@<TRIPOS>MOLECULE
0WV
   23    21     1     0     0
SMALL
bcc


@<TRIPOS>ATOM
      1 C4          0.5090   -1.1440   -0.6240 c2        1 0WV     -0.221000
      2 C5          1.5400   -0.2990   -0.6570 c2        1 0WV     -0.137000
      3 C6          2.0870    0.5540    2.6600 c1        1 0WV      0.225000
      4 C8          2.2100    0.1590   -1.8680 c2        1 0WV     -0.080000
      5 C9          3.2410    1.0140   -1.8020 c2        1 0WV     -0.212000
      6 C10         1.7090   -0.3540   -3.1680 c3        1 0WV     -0.183000
      7 C3         -0.5030   -1.2100    2.6880 c1        1 0WV      0.262000
      8 C1          1.3820    0.0060    3.6630 c2        1 0WV     -0.199000
      9 O1          1.9920   -0.3660    4.8480 oh        1 0WV     -0.232000
     10 C2         -0.0550   -0.2610    3.5010 c2        1 0WV     -0.409000
     11 H1          0.0420   -1.4560    0.3220 ha        1 0WV      0.115500
     12 H2          1.9540    0.1110    0.2860 ha        1 0WV      0.131000
     13 H3         -0.8690    1.6550    4.0080 hc        1 0WV      0.091333
     14 H4         -0.7450    0.4820    5.3910 hc        1 0WV      0.091333
     15 H5         -2.0460    0.2780    4.1420 hc        1 0WV      0.091333
     16 H6          3.6230    1.4020   -0.8490 ha        1 0WV      0.114000
     17 H7          3.7620    1.3730   -2.6980 ha        1 0WV      0.114000
     18 H8          2.2950    0.0630   -4.0240 hc        1 0WV      0.080667
     19 H9          0.6350   -0.0740   -3.3070 hc        1 0WV      0.080667
     20 H10         1.7860   -1.4700   -3.1980 hc        1 0WV      0.080667
     21 H11         0.0610   -1.5820   -1.5260 ha        1 0WV      0.115500
     22 H12         1.3370   -0.2460    5.5530 ho        1 0WV      0.221000
     23 C7         -0.9820    0.5830    4.3020 c3        1 0WV     -0.142000
@<TRIPOS>BOND
     1    1    2 1   
     2    1   11 1   
     3    1   21 1   
     4    2    4 1   
     5    2   12 1   
     6    3    8 1   
     7    4    5 1   
     8    4    6 1   
     9    5   16 1   
    10    5   17 1   
    11    6   18 1   
    12    6   19 1   
    13    6   20 1   
    14    7   10 1   
    15    8    9 1   
    16    8   10 1   
    17    9   22 1   
    18   10   23 1   
    19   13   23 1   
    20   14   23 1   
    21   15   23 1   
@<TRIPOS>SUBSTRUCTURE
     1 0WV         1 TEMP              0 ****  ****    0 ROOT
