@<TRIPOS>MOLECULE
0WV
   23    21     1     0     0
SMALL
bcc


@<TRIPOS>ATOM
      1 C4          0.5180   -1.1410   -0.6300 c2        1 0WV     -0.221000
      2 C5          1.5520   -0.2980   -0.6540 c2        1 0WV     -0.137000
      3 C6          2.0560    0.5750    2.6650 c1        1 0WV      0.225000
      4 C8          2.2420    0.1460   -1.8590 c2        1 0WV     -0.080000
      5 C9          3.2730    1.0000   -1.7860 c2        1 0WV     -0.212000
      6 C10         1.7620   -0.3810   -3.1620 c3        1 0WV     -0.183000
      7 C3         -0.5360   -1.1860    2.6700 c1        1 0WV      0.262000
      8 C1          1.3450    0.0220    3.6610 c2        1 0WV     -0.199000
      9 O1          1.9480   -0.3570    4.8480 oh        1 0WV     -0.232000
     10 C2         -0.0910   -0.2430    3.4910 c2        1 0WV     -0.409000
     11 H1          0.0350   -1.4410    0.3120 ha        1 0WV      0.115500
     12 H2          1.9510    0.1210    0.2910 ha        1 0WV      0.131000
     13 H3         -0.9050    1.6720    4.0040 hc        1 0WV      0.091333
     14 H4         -0.7910    0.4900    5.3810 hc        1 0WV      0.091333
     15 H5         -2.0850    0.2960    4.1240 hc        1 0WV      0.091333
     16 H6          3.6400    1.3980   -0.8310 ha        1 0WV      0.114000
     17 H7          3.8090    1.3490   -2.6770 ha        1 0WV      0.114000
     18 H8          2.3630    0.0250   -4.0120 hc        1 0WV      0.080667
     19 H9          0.6910   -0.1000   -3.3210 hc        1 0WV      0.080667
     20 H10         1.8370   -1.4970   -3.1780 hc        1 0WV      0.080667
     21 H11         0.0840   -1.5870   -1.5340 ha        1 0WV      0.115500
     22 H12         1.2900   -0.2400    5.5500 ho        1 0WV      0.221000
     23 C7         -1.0220    0.5980    4.2920 c3        1 0WV     -0.142000
@<TRIPOS>BOND
     1    1    2 1   
     2    1   11 1   
     3    1   21 1   
     4    2    4 1   
     5    2   12 1   
     6    3    8 1   
     7    4    5 1   
     8    4    6 1   
     9    5   16 1   
    10    5   17 1   
    11    6   18 1   
    12    6   19 1   
    13    6   20 1   
    14    7   10 1   
    15    8    9 1   
    16    8   10 1   
    17    9   22 1   
    18   10   23 1   
    19   13   23 1   
    20   14   23 1   
    21   15   23 1   
@<TRIPOS>SUBSTRUCTURE
     1 0WV         1 TEMP              0 ****  ****    0 ROOT
