@<TRIPOS>MOLECULE
0WV
   23    18     1     0     0
SMALL
bcc


@<TRIPOS>ATOM
      1 C4         -1.1430   -0.0650   -0.6940 c1        1 0WV     -0.126000
      2 C5          0.2420   -0.0140   -0.6940 c1        1 0WV     -0.009000
      3 C6          0.9340    0.0100    0.5070 c1        1 0WV     -0.200000
      4 C7         -1.9000   -0.1230    3.0160 c3        1 0WV     -0.168000
      5 C8          0.9990   -0.0230   -2.0040 c2        1 0WV     -0.070000
      6 C9          1.4230   -1.1900   -2.5280 c1        1 0WV     -0.213000
      7 C10         1.2810    1.2770   -2.7240 c3        1 0WV     -0.182000
      8 C3         -1.8360   -0.0910    0.5060 c1        1 0WV     -0.126000
      9 C1          0.2410   -0.0160    1.7070 c1        1 0WV      0.073000
     10 O1          0.9420    0.0540    2.9250 o         1 0WV     -0.252000
     11 C2         -1.1440   -0.0670    1.7060 c1        1 0WV     -0.089000
     12 H1         -1.6310   -0.0810   -1.5400 ha        1 0WV      0.134500
     13 H2          1.9090    0.0460    0.5070 ha        1 0WV      0.135000
     14 H3         -2.8600   -0.2000    2.8360 hc        1 0WV      0.086333
     15 H4         -1.7280    0.6960    3.5270 hc        1 0WV      0.086333
     16 H5         -1.6000   -0.8990    3.5330 hc        1 0WV      0.086333
     17 H6          1.2400   -2.0300   -2.0630 DU        1 0WV      0.115000
     18 H7          1.9120   -1.1960   -3.3750 ha        1 0WV      0.116000
     19 H8          0.6260    1.9520   -2.4480 hc        1 0WV      0.084000
     20 H9          2.1840    1.5860   -2.4980 hc        1 0WV      0.084000
     21 H10         1.2170    1.1350   -3.6920 hc        1 0WV      0.084000
     22 H11        -2.8120   -0.1270    0.5050 ha        1 0WV      0.134500
     23 H12         1.5040   -0.6320    2.9840 ho        1 0WV      0.216000
@<TRIPOS>BOND
     1    1    8 1   
     2    1   12 1   
     3    2    3 1   
     4    2    5 1   
     5    3   13 1   
     6    4   11 1   
     7    4   14 1   
     8    4   15 1   
     9    4   16 1   
    10    5    6 1   
    11    5    7 1   
    12    6   18 1   
    13    7   19 1   
    14    7   20 1   
    15    7   21 1   
    16    8   22 1   
    17    9   11 1   
    18   10   23 1   
@<TRIPOS>SUBSTRUCTURE
     1 0WV         1 TEMP              0 ****  ****    0 ROOT
