@<TRIPOS>MOLECULE
0WV
   23    23     1     0     0
SMALL
bcc


@<TRIPOS>ATOM
      1 C4          0.4530    1.3480    0.0210 ca        1 0WV     -0.153000
      2 C5          0.9740    0.0450    0.0450 ca        1 0WV     -0.021800
      3 C6          0.0960   -1.0420    0.0800 ca        1 0WV     -0.147000
      4 C8          2.4220   -0.1780    0.0330 ce        1 0WV     -0.065400
      5 C9          2.9910   -1.1790    0.7180 c2        1 0WV     -0.209000
      6 C10         3.2320    0.7710   -0.7740 c3        1 0WV     -0.059900
      7 C3         -0.9210    1.5590    0.0400 ca        1 0WV     -0.094000
      8 C1         -1.2900   -0.8170    0.0960 ca        1 0WV      0.125100
      9 O1         -2.0710   -1.9510    0.1310 oh        1 0WV     -0.500100
     10 C2         -1.8190    0.4870    0.0780 ca        1 0WV     -0.158300
     11 H1          1.1370    2.2090   -0.0080 ha        1 0WV      0.135000
     12 H2          0.4720   -2.0750    0.0890 ha        1 0WV      0.152000
     13 H3         -3.7650    0.2560   -0.7970 hc        1 0WV      0.044367
     14 H4         -3.7380    0.2880    1.0180 hc        1 0WV      0.044367
     15 H5         -3.5080    1.8190    0.0800 hc        1 0WV      0.044367
     16 H6          2.4110   -1.8800    1.3310 ha        1 0WV      0.116500
     17 H7          4.0750   -1.3490    0.7080 ha        1 0WV      0.116500
     18 H8          3.3550    1.7370   -0.2210 hc        1 0WV      0.044033
     19 H9          4.2490    0.3560   -0.9820 hc        1 0WV      0.044033
     20 H10         2.7290    0.9870   -1.7490 hc        1 0WV      0.044033
     21 H11        -1.3130    2.5880    0.0260 ha        1 0WV      0.132000
     22 H12        -3.0000   -1.6810    0.1320 ho        1 0WV      0.420000
     23 C7         -3.2790    0.7250    0.0960 c3        1 0WV     -0.053800
@<TRIPOS>BOND
     1    1    2 ar  
     2    1    7 ar  
     3    1   11 1   
     4    2    3 ar  
     5    2    4 1   
     6    3    8 ar  
     7    3   12 1   
     8    4    5 2   
     9    4    6 1   
    10    5   16 1   
    11    5   17 1   
    12    6   18 1   
    13    6   19 1   
    14    6   20 1   
    15    7   10 ar  
    16    7   21 1   
    17    8    9 1   
    18    8   10 ar  
    19    9   22 1   
    20   10   23 1   
    21   13   23 1   
    22   14   23 1   
    23   15   23 1   
@<TRIPOS>SUBSTRUCTURE
     1 0WV         1 TEMP              0 ****  ****    0 ROOT
