@<TRIPOS>MOLECULE
0WV
   23    21     1     0     0
SMALL
bcc


@<TRIPOS>ATOM
      1 C4          0.4240   -1.0140   -0.6390 c2        1 0WV     -0.221000
      2 C5          1.5290   -0.2690   -0.6740 c2        1 0WV     -0.137000
      3 C6          2.1950    0.4770    2.6480 c1        1 0WV      0.225000
      4 C8          2.2280    0.1360   -1.8890 c2        1 0WV     -0.080000
      5 C9          3.3340    0.8910   -1.8250 c2        1 0WV     -0.212000
      6 C10         1.6710   -0.3170   -3.1880 c3        1 0WV     -0.183000
      7 C3         -0.5470   -1.0400    2.6860 c1        1 0WV      0.262000
      8 C1          1.4630   -0.0370    3.6510 c2        1 0WV     -0.199000
      9 O1          2.0620   -0.5010    4.8090 oh        1 0WV     -0.232000
     10 C2          0.0050   -0.1650    3.5170 c2        1 0WV     -0.409000
     11 H1         -0.0620   -1.2900    0.3090 ha        1 0WV      0.115500
     12 H2          1.9880    0.0920    0.2680 ha        1 0WV      0.131000
     13 H3         -0.6160    1.8010    4.1030 hc        1 0WV      0.091333
     14 H4         -1.9130    0.5350    4.2230 hc        1 0WV      0.091333
     15 H5         -0.5730    0.5750    5.4450 hc        1 0WV      0.091333
     16 H6          3.7590    1.2340   -0.8730 ha        1 0WV      0.114000
     17 H7          3.8790    1.2090   -2.7230 ha        1 0WV      0.114000
     18 H8          2.2860    0.0510   -4.0450 hc        1 0WV      0.080667
     19 H9          1.6430   -1.4350   -3.2270 hc        1 0WV      0.080667
     20 H10         0.6260    0.0630   -3.3140 hc        1 0WV      0.080667
     21 H11        -0.0710   -1.4000   -1.5400 ha        1 0WV      0.115500
     22 H12         1.4370   -0.3450    5.5330 ho        1 0WV      0.221000
     23 C7         -0.8230    0.7340    4.3660 c3        1 0WV     -0.142000
@<TRIPOS>BOND
     1    1    2 1   
     2    1   11 1   
     3    1   21 1   
     4    2    4 1   
     5    2   12 1   
     6    3    8 1   
     7    4    5 1   
     8    4    6 1   
     9    5   16 1   
    10    5   17 1   
    11    6   18 1   
    12    6   19 1   
    13    6   20 1   
    14    7   10 1   
    15    8    9 1   
    16    8   10 1   
    17    9   22 1   
    18   10   23 1   
    19   13   23 1   
    20   14   23 1   
    21   15   23 1   
@<TRIPOS>SUBSTRUCTURE
     1 0WV         1 TEMP              0 ****  ****    0 ROOT
