@<TRIPOS>MOLECULE
0WW
   60    64     1     0     0
SMALL
bcc


@<TRIPOS>ATOM
      1 C1          0.1820    1.0800   -0.8280 c3        1 0WW      0.100800
      2 N1          1.5890    0.8550   -0.3880 n4        1 0WW     -0.754000
      3 C2          2.3780    2.1200   -0.3660 c3        1 0WW      0.111800
      4 C3          3.8220    1.8930    0.0790 c3        1 0WW     -0.035100
      5 C4          3.9120    1.2640    1.4210 ca        1 0WW     -0.156300
      6 C5          3.9520   -0.1440    1.5880 ca        1 0WW      0.169400
      7 N2          3.7930   -0.9800    0.4680 nc        1 0WW     -0.724100
      8 C6          3.9560   -2.2760    0.6330 cd        1 0WW      0.527800
      9 N3          4.2150   -2.9170    1.8260 n         1 0WW     -0.491400
     10 C7          4.3040   -2.1710    3.0230 c         1 0WW      0.703100
     11 C8          4.1590   -0.7050    2.8850 ca        1 0WW     -0.198600
     12 C9          4.2620    0.0770    4.0380 ca        1 0WW      0.009000
     13 C10         4.1830    1.4600    3.9020 ca        1 0WW      0.088400
     14 C11         4.0280    2.0450    2.5750 ca        1 0WW     -0.034200
     15 N4          3.9830    3.4290    2.7630 na        1 0WW     -0.305300
     16 C12         4.1640    3.6470    4.1790 cc        1 0WW      0.630700
     17 N5          4.2670    2.4740    4.8720 nd        1 0WW     -0.589100
     18 N6          4.0810    4.9280    4.7330 nh        1 0WW     -0.778200
     19 C13         4.6850    6.0300    4.0000 c3        1 0WW      0.275100
     20 O1          4.4920   -2.7710    4.0900 o         1 0WW     -0.571500
     21 C14        -0.6530   -0.2030   -0.8430 c3        1 0WW     -0.088700
     22 C15        -2.1110    0.1890   -1.0640 c3        1 0WW     -0.078400
     23 C16        -2.9950   -1.0400   -1.1210 c3        1 0WW     -0.077900
     24 C17        -2.5290   -2.0060   -2.1900 c3        1 0WW     -0.083400
     25 C18        -1.0770   -2.3860   -1.9900 c3        1 0WW     -0.077900
     26 C19        -0.1860   -1.1600   -1.9300 c3        1 0WW     -0.078400
     27 S1          4.1600    8.5040    5.1670 ss        1 0WW      0.075200
     28 C20         5.2900    9.2140    6.1600 cc        1 0WW     -0.153100
     29 C21         6.4150    8.4270    6.3060 cd        1 0WW     -0.155000
     30 C22         6.3040    7.2160    5.5590 cd        1 0WW     -0.125000
     31 C23         5.0980    7.1440    4.8820 cc        1 0WW     -0.196400
     32 H1         -0.2830    1.8260   -0.1220 hx        1 0WW      0.099700
     33 H2          0.2090    1.5290   -1.8620 hx        1 0WW      0.099700
     34 H3          2.0450    0.1820   -1.0190 hn        1 0WW      0.463300
     35 H5          1.8640    2.8320    0.3410 hx        1 0WW      0.096700
     36 H6          2.3640    2.5590   -1.4030 hx        1 0WW      0.096700
     37 H7          4.3190    2.9020    0.0790 hc        1 0WW      0.086700
     38 H8          4.3670    1.2740   -0.6850 hc        1 0WW      0.086700
     39 H9          3.8710   -2.9240   -0.2690 h5        1 0WW      0.059800
     40 H10         4.3650   -3.9030    1.8570 hn        1 0WW      0.355500
     41 H11         4.4120   -0.3990    5.0230 ha        1 0WW      0.194000
     42 H12         4.1470    4.1070    2.0660 hn        1 0WW      0.301700
     43 H14         4.2420    4.9430    5.7240 hn        1 0WW      0.451800
     44 H15         5.5880    5.6850    3.4130 h1        1 0WW      0.049200
     45 H16         3.9130    6.3930    3.2590 h1        1 0WW      0.049200
     46 H17        -0.5760   -0.7190    0.1560 hc        1 0WW      0.070700
     47 H18        -2.4520    0.8570   -0.2310 hc        1 0WW      0.045950
     48 H19        -2.2020    0.7620   -2.0240 hc        1 0WW      0.045950
     49 H20        -4.0500   -0.7230   -1.3340 hc        1 0WW      0.056700
     50 H21        -2.9920   -1.5520   -0.1230 hc        1 0WW      0.056700
     51 H22        -3.1630   -2.9300   -2.1620 hc        1 0WW      0.058200
     52 H23        -2.6590   -1.5400   -3.2020 hc        1 0WW      0.058200
     53 H24        -0.7400   -3.0440   -2.8330 hc        1 0WW      0.056700
     54 H25        -0.9700   -2.9730   -1.0400 hc        1 0WW      0.056700
     55 H26        -0.2050   -0.6370   -2.9230 hc        1 0WW      0.045950
     56 H27         0.8680   -1.4880   -1.7350 hc        1 0WW      0.045950
     57 H30         7.0880    6.4560    5.5330 ha        1 0WW      0.158000
     58 H28         5.1380   10.1860    6.6300 h4        1 0WW      0.184000
     59 H121        1.5950    0.4460    0.5560 hn        1 0WW      0.463300
     60 H29         7.2890    8.6820    6.9100 ha        1 0WW      0.167000
@<TRIPOS>BOND
     1    1    2 1   
     2    1   21 1   
     3    1   32 1   
     4    1   33 1   
     5    2    3 1   
     6    2   34 1   
     7    2   59 1   
     8    3    4 1   
     9    3   35 1   
    10    3   36 1   
    11    4    5 1   
    12    4   37 1   
    13    4   38 1   
    14    5    6 ar  
    15    5   14 ar  
    16    6    7 1   
    17    6   11 ar  
    18    7    8 2   
    19    8    9 1   
    20    8   39 1   
    21    9   10 1   
    22    9   40 1   
    23   10   11 1   
    24   10   20 2   
    25   11   12 ar  
    26   12   13 ar  
    27   12   41 1   
    28   13   14 ar  
    29   13   17 1   
    30   14   15 1   
    31   15   16 1   
    32   15   42 1   
    33   16   17 2   
    34   16   18 1   
    35   18   19 1   
    36   18   43 1   
    37   19   31 1   
    38   19   44 1   
    39   19   45 1   
    40   21   22 1   
    41   21   26 1   
    42   21   46 1   
    43   22   23 1   
    44   22   47 1   
    45   22   48 1   
    46   23   24 1   
    47   23   49 1   
    48   23   50 1   
    49   24   25 1   
    50   24   51 1   
    51   24   52 1   
    52   25   26 1   
    53   25   53 1   
    54   25   54 1   
    55   26   55 1   
    56   26   56 1   
    57   27   28 1   
    58   27   31 1   
    59   28   29 2   
    60   28   58 1   
    61   29   30 1   
    62   29   60 1   
    63   30   31 2   
    64   30   57 1   
@<TRIPOS>SUBSTRUCTURE
     1 0WW         1 TEMP              0 ****  ****    0 ROOT
