@<TRIPOS>MOLECULE
0WW
   60    64     1     0     0
SMALL
bcc


@<TRIPOS>ATOM
      1 C1          0.1390    1.0690   -0.7830 c3        1 0WW      0.100800
      2 N1          1.5650    0.8860   -0.3900 ny        1 0WW     -0.754000
      3 C2          2.3050    2.1800   -0.3450 c3        1 0WW      0.111800
      4 C3          3.7690    1.9950    0.0520 c3        1 0WW     -0.035100
      5 C4          3.9220    1.3260    1.3680 ca        1 0WW     -0.156300
      6 C5          4.0220   -0.0840    1.4840 ca        1 0WW      0.169400
      7 N2          3.8620   -0.8880    0.3410 nc        1 0WW     -0.724100
      8 C6          4.0800   -2.1810    0.4570 cd        1 0WW      0.527800
      9 N3          4.3980   -2.8520    1.6190 ns        1 0WW     -0.491400
     10 C7          4.4930   -2.1420    2.8380 c         1 0WW      0.703100
     11 C8          4.2870   -0.6790    2.7550 ca        1 0WW     -0.198600
     12 C9          4.3930    0.0670    3.9310 ca        1 0WW      0.009000
     13 C10         4.2570    1.4500    3.8450 ca        1 0WW      0.088400
     14 C11         4.0420    2.0720    2.5440 ca        1 0WW     -0.034200
     15 N4          3.9490    3.4460    2.7810 na        1 0WW     -0.305300
     16 C12         4.1620    3.6240    4.1980 cc        1 0WW      0.630700
     17 N5          4.3300    2.4330    4.8470 nd        1 0WW     -0.589100
     18 N6          4.0460    4.8810    4.7980 nu        1 0WW     -0.778200
     19 C13         4.5840    6.0300    4.0880 c3        1 0WW      0.275100
     20 O1          4.7350   -2.7700    3.8790 o         1 0WW     -0.571500
     21 C14        -0.6460   -0.2450   -0.8180 c3        1 0WW     -0.088700
     22 C15        -2.1240    0.0970   -0.9850 c3        1 0WW     -0.078400
     23 C16        -2.9610   -1.1640   -1.0600 c3        1 0WW     -0.077900
     24 C17        -2.4890   -2.0750   -2.1740 c3        1 0WW     -0.083400
     25 C18        -1.0180   -2.4030   -2.0270 c3        1 0WW     -0.077900
     26 C19        -0.1750   -1.1460   -1.9500 c3        1 0WW     -0.078400
     27 S1          3.9950    8.4400    5.3540 ss        1 0WW      0.075200
     28 C20         5.1230    9.1620    6.3380 cc        1 0WW     -0.153100
     29 C21         6.2830    8.4180    6.4250 cd        1 0WW     -0.155000
     30 C22         6.2000    7.2300    5.6410 cd        1 0WW     -0.125000
     31 C23         4.9780    7.1300    4.9960 cc        1 0WW     -0.196400
     32 H1         -0.3350    1.7730   -0.0390 hx        1 0WW      0.099700
     33 H2          0.1180    1.5530   -1.8010 hx        1 0WW      0.099700
     34 H3          2.0290    0.2530   -1.0550 hn        1 0WW      0.463300
     35 H5          1.7840    2.8470    0.3990 hx        1 0WW      0.096700
     36 H6          2.2440    2.6520   -1.3660 hx        1 0WW      0.096700
     37 H7          4.2260    3.0230    0.0730 hc        1 0WW      0.086700
     38 H8          4.3160    1.4240   -0.7480 hc        1 0WW      0.086700
     39 H9          3.9940   -2.8010   -0.4640 h5        1 0WW      0.059800
     40 H10         4.5870   -3.8310    1.6130 hn        1 0WW      0.355500
     41 H11         4.5900   -0.4350    4.8950 ha        1 0WW      0.194000
     42 H12         4.0660    4.1530    2.1040 hn        1 0WW      0.301700
     43 H14         4.2340    4.8690    5.7850 hn        1 0WW      0.451800
     44 H15         3.7770    6.3850    3.3810 h1        1 0WW      0.049200
     45 H16         5.4830    5.7410    3.4650 h1        1 0WW      0.049200
     46 H17        -0.5200   -0.7900    0.1600 hc        1 0WW      0.070700
     47 H18        -2.2650    0.6970   -1.9220 hc        1 0WW      0.045950
     48 H19        -2.4660    0.7230   -0.1200 hc        1 0WW      0.045950
     49 H20        -2.9100   -1.7080   -0.0800 hc        1 0WW      0.056700
     50 H21        -4.0330   -0.8820   -1.2330 hc        1 0WW      0.056700
     51 H22        -3.0870   -3.0240   -2.1590 hc        1 0WW      0.058200
     52 H23        -2.6670   -1.5810   -3.1650 hc        1 0WW      0.058200
     53 H24        -0.6810   -3.0190   -2.9010 hc        1 0WW      0.056700
     54 H25        -0.8620   -3.0170   -1.1010 hc        1 0WW      0.056700
     55 H26        -0.2430   -0.5920   -2.9230 hc        1 0WW      0.045950
     56 H27         0.8970   -1.4380   -1.7960 hc        1 0WW      0.045950
     57 H30         7.0120    6.5030    5.5660 ha        1 0WW      0.158000
     58 H28         4.9460   10.1110    6.8450 h4        1 0WW      0.184000
     59 H121        1.6140    0.4460    0.5400 hn        1 0WW      0.463300
     60 H29         7.1630    8.6890    7.0130 ha        1 0WW      0.167000
@<TRIPOS>BOND
     1    1    2 1   
     2    1   21 1   
     3    1   32 1   
     4    1   33 1   
     5    2    3 1   
     6    2   34 1   
     7    2   59 1   
     8    3    4 1   
     9    3   35 1   
    10    3   36 1   
    11    4    5 1   
    12    4   37 1   
    13    4   38 1   
    14    5    6 ar  
    15    5   14 ar  
    16    6    7 1   
    17    6   11 ar  
    18    7    8 2   
    19    8    9 1   
    20    8   39 1   
    21    9   10 1   
    22    9   40 1   
    23   10   11 1   
    24   10   20 2   
    25   11   12 ar  
    26   12   13 ar  
    27   12   41 1   
    28   13   14 ar  
    29   13   17 1   
    30   14   15 1   
    31   15   16 1   
    32   15   42 1   
    33   16   17 2   
    34   16   18 1   
    35   18   19 1   
    36   18   43 1   
    37   19   31 1   
    38   19   44 1   
    39   19   45 1   
    40   21   22 1   
    41   21   26 1   
    42   21   46 1   
    43   22   23 1   
    44   22   47 1   
    45   22   48 1   
    46   23   24 1   
    47   23   49 1   
    48   23   50 1   
    49   24   25 1   
    50   24   51 1   
    51   24   52 1   
    52   25   26 1   
    53   25   53 1   
    54   25   54 1   
    55   26   55 1   
    56   26   56 1   
    57   27   28 1   
    58   27   31 1   
    59   28   29 2   
    60   28   58 1   
    61   29   30 1   
    62   29   60 1   
    63   30   31 2   
    64   30   57 1   
@<TRIPOS>SUBSTRUCTURE
     1 0WW         1 TEMP              0 ****  ****    0 ROOT
