@<TRIPOS>MOLECULE
0WW
   61    65     1     0     0
SMALL
bcc


@<TRIPOS>ATOM
      1 C1         -0.1320    0.5120   -0.6440 c3        1 0WW      0.101800
      2 N1          1.3400    0.4730   -0.3960 n4        1 0WW     -0.770000
      3 C2          1.8110    1.6670    0.3600 c3        1 0WW      0.116800
      4 C3          3.3200    1.6690    0.6160 c3        1 0WW     -0.030100
      5 C4          3.6900    1.2330    1.9880 ca        1 0WW     -0.141300
      6 C5          3.4990   -0.1030    2.4210 ca        1 0WW      0.253400
      7 N2          2.8640   -1.0210    1.5760 nc        1 0WW     -0.760100
      8 C6          2.7640   -2.2800    1.9720 cd        1 0WW      0.569800
      9 N3          3.1970   -2.7900    3.1690 n         1 0WW     -0.472400
     10 C7          3.8030   -1.9370    4.1240 c         1 0WW      0.702100
     11 C8          3.9620   -0.5200    3.7160 ca        1 0WW     -0.207600
     12 C9          4.5820    0.3440    4.6100 ca        1 0WW      0.065000
     13 C10         4.7660    1.6710    4.2060 ca        1 0WW      0.026400
     14 C11         4.3220    2.1050    2.8880 ca        1 0WW      0.015800
     15 N4          4.6490    3.4640    2.7970 na        1 0WW     -0.269300
     16 C12         5.3180    3.7790    4.0200 cc        1 0WW      0.416700
     17 N5          5.3720    2.7380    4.8870 nd        1 0WW     -0.449100
     18 N6          5.8340    5.1120    4.3310 n4        1 0WW     -0.698000
     19 C13         4.9150    5.8610    5.2930 c3        1 0WW      0.245100
     20 O1          4.1600   -2.3980    5.2130 o         1 0WW     -0.531500
     21 C14        -0.6320   -0.6920   -1.4490 c3        1 0WW     -0.087700
     22 C15        -2.1590   -0.6530   -1.4440 c3        1 0WW     -0.078400
     23 C16        -2.7260   -1.8040   -2.2490 c3        1 0WW     -0.077900
     24 C17        -2.1920   -1.8040   -3.6650 c3        1 0WW     -0.085400
     25 C18        -0.6790   -1.8200   -3.6810 c3        1 0WW     -0.077900
     26 C19        -0.1030   -0.6720   -2.8750 c3        1 0WW     -0.078400
     27 S1          6.2010    7.6750    6.9600 ss        1 0WW      0.196200
     28 C20         6.3830    9.2370    6.4790 cc        1 0WW     -0.129100
     29 C21         5.8640    9.4620    5.2080 cd        1 0WW     -0.150000
     30 C22         5.3130    8.2780    4.6640 cd        1 0WW     -0.100000
     31 C23         5.4490    7.1970    5.5430 cc        1 0WW     -0.326400
     32 H1         -0.6480    0.5400    0.3580 hx        1 0WW      0.101700
     33 H2         -0.3680    1.4640   -1.2000 hx        1 0WW      0.101700
     34 H3          1.8300    0.4220   -1.2970 hn        1 0WW      0.464800
     35 H5          1.2510    1.6960    1.3390 hx        1 0WW      0.102700
     36 H6          1.5280    2.5780   -0.2410 hx        1 0WW      0.102700
     37 H7          3.8620    1.0160   -0.1270 hc        1 0WW      0.076700
     38 H8          3.6770    2.7160    0.4230 hc        1 0WW      0.076700
     39 H9          2.2820   -3.0010    1.2700 h5        1 0WW      0.072800
     40 H10         3.0990   -3.7630    3.3860 hn        1 0WW      0.374500
     41 H11         4.9220   -0.0140    5.6010 ha        1 0WW      0.209000
     42 H12         4.6590    4.0060    1.9720 hn        1 0WW      0.322700
     43 H14         6.7630    5.0040    4.7710 hn        1 0WW      0.470800
     44 H15         4.8460    5.2390    6.2330 hx        1 0WW      0.115700
     45 H16         3.9010    5.9020    4.7990 hx        1 0WW      0.115700
     46 H17        -0.3030   -1.6460   -0.9490 hc        1 0WW      0.063700
     47 H18        -2.5340   -0.7110   -0.3890 hc        1 0WW      0.045700
     48 H19        -2.5090    0.3190   -1.8810 hc        1 0WW      0.045700
     49 H20        -3.8450   -1.7200   -2.2680 hc        1 0WW      0.059950
     50 H21        -2.4710   -2.7750   -1.7490 hc        1 0WW      0.059950
     51 H22        -2.5650   -0.8960   -4.2090 hc        1 0WW      0.063700
     52 H23        -2.5810   -2.7030   -4.2120 hc        1 0WW      0.063700
     53 H24        -0.3080   -2.7940   -3.2640 hc        1 0WW      0.059950
     54 H25        -0.3120   -1.7460   -4.7390 hc        1 0WW      0.059950
     55 H26        -0.3780    0.3000   -3.3650 hc        1 0WW      0.045700
     56 H27         1.0160   -0.7540   -2.8790 hc        1 0WW      0.045700
     57 H30         4.8270    8.2350    3.6870 ha        1 0WW      0.154000
     58 H28         6.8510   10.0100    7.0970 h4        1 0WW      0.211000
     59 H121        1.5850   -0.3810    0.1400 hn        1 0WW      0.464800
     60 H62         5.9510    5.6670    3.4760 hn        1 0WW      0.470800
     61 H29         5.8690   10.4280    4.6930 ha        1 0WW      0.189000
@<TRIPOS>BOND
     1    1    2 1   
     2    1   21 1   
     3    1   32 1   
     4    1   33 1   
     5    2    3 1   
     6    2   34 1   
     7    2   59 1   
     8    3    4 1   
     9    3   35 1   
    10    3   36 1   
    11    4    5 1   
    12    4   37 1   
    13    4   38 1   
    14    5    6 ar  
    15    5   14 ar  
    16    6    7 1   
    17    6   11 ar  
    18    7    8 2   
    19    8    9 1   
    20    8   39 1   
    21    9   10 1   
    22    9   40 1   
    23   10   11 1   
    24   10   20 2   
    25   11   12 ar  
    26   12   13 ar  
    27   12   41 1   
    28   13   14 ar  
    29   13   17 1   
    30   14   15 1   
    31   15   16 1   
    32   15   42 1   
    33   16   17 2   
    34   16   18 1   
    35   18   19 1   
    36   18   43 1   
    37   18   60 1   
    38   19   31 1   
    39   19   44 1   
    40   19   45 1   
    41   21   22 1   
    42   21   26 1   
    43   21   46 1   
    44   22   23 1   
    45   22   47 1   
    46   22   48 1   
    47   23   24 1   
    48   23   49 1   
    49   23   50 1   
    50   24   25 1   
    51   24   51 1   
    52   24   52 1   
    53   25   26 1   
    54   25   53 1   
    55   25   54 1   
    56   26   55 1   
    57   26   56 1   
    58   27   28 1   
    59   27   31 1   
    60   28   29 2   
    61   28   58 1   
    62   29   30 1   
    63   29   61 1   
    64   30   31 2   
    65   30   57 1   
@<TRIPOS>SUBSTRUCTURE
     1 0WW         1 TEMP              0 ****  ****    0 ROOT
