@<TRIPOS>MOLECULE
0WW
   59    52     1     0     0
SMALL
bcc


@<TRIPOS>ATOM
      1 C1         -2.4220   -2.4570   -1.6890 c3        1 0WW     -0.073000
      2 N1         -1.3730   -1.4750   -1.8320 n3        1 0WW     -0.307000
      3 C2         -1.2040   -0.7350   -0.5370 c3        1 0WW     -0.078000
      4 C3          0.1270    0.0230   -0.5500 c3        1 0WW     -0.120000
      5 C4          0.5690    0.3130    0.8940 c2        1 0WW     -0.062000
      6 C5          1.1380   -0.7840    1.5760 c2        1 0WW      0.040000
      7 N2          0.8440   -2.1480    1.1440 n2        1 0WW     -0.196000
      8 C6          1.4380   -3.2740    1.8370 c1        1 0WW      0.064000
      9 N3          2.3160   -3.0490    2.9500 n2        1 0WW     -0.343000
     10 C7          2.6010   -1.7390    3.3650 c1        1 0WW      0.344000
     11 C8          2.0070   -0.5670    2.6210 c1        1 0WW     -0.177000
     12 C9          2.3270    0.7440    3.0070 c1        1 0WW     -0.012000
     13 C10         1.7570    1.8430    2.3220 c1        1 0WW     -0.067000
     14 C11         0.8930    1.6310    1.2840 c1        1 0WW      0.005000
     15 N4          0.4750    2.8380    0.8370 n1        1 0WW     -0.210500
     16 C12         1.0780    3.8040    1.5990 c1        1 0WW      0.117000
     17 N5          1.8650    3.1890    2.5100 n1        1 0WW     -0.210500
     18 N6          1.1720    5.2360    1.5900 n2        1 0WW     -0.250000
     19 C13         2.4540    5.8860    1.8550 c3        1 0WW      0.011000
     20 O1          3.2930   -1.5450    4.3690 o         1 0WW     -0.346000
     21 C14        -2.2740   -3.5420   -2.7870 c3        1 0WW     -0.136000
     22 C15        -1.7600   -4.8130   -2.1520 c3        1 0WW     -0.153000
     23 C16        -1.7580   -5.9900   -3.1210 c3        1 0WW     -0.154500
     24 C17        -3.1060   -6.1830   -3.8030 c3        1 0WW     -0.156000
     25 C18        -3.6230   -4.9090   -4.4380 c3        1 0WW     -0.154500
     26 C19        -3.6230   -3.7350   -3.4700 c3        1 0WW     -0.153000
     27 S1          2.0430    8.4520    1.1160 ss        1 0WW      0.607000
     28 C20         2.3830    9.8340    1.7640 c1        1 0WW     -0.440000
     29 C21         2.7330    9.6040    3.1400 c1        1 0WW     -0.159000
     30 C22         2.6280    8.0280    3.4310 c1        1 0WW     -0.137000
     31 C23         2.2160    7.3670    2.2110 c2        1 0WW     -0.427000
     32 H1         -2.3590   -2.8730   -0.8110 h1        1 0WW      0.088000
     33 H2         -3.2920   -2.0200   -1.7800 h1        1 0WW      0.088000
     34 H3         -0.5920   -1.8910   -2.0500 hn        1 0WW      0.155000
     35 H5         -1.9520   -0.0880   -0.4260 h1        1 0WW      0.074000
     36 H6         -1.2090   -1.3770    0.2140 h1        1 0WW      0.074000
     37 H7          0.8080   -0.5220   -0.9950 hc        1 0WW      0.100500
     38 H8          0.0150    0.8830   -1.0420 hc        1 0WW      0.100500
     39 H9          1.2410   -4.1790    1.5500 ha        1 0WW      0.179000
     40 H10         2.6940   -3.7640    3.3910 hn        1 0WW      0.251000
     41 H11         2.9650    0.8970    3.7200 ha        1 0WW      0.176000
     42 H12        -0.1140    2.9850    0.1410 DU        1 0WW      0.188000
     43 H14         0.4320    5.7390    1.4320 hn        1 0WW      0.221000
     44 H15         3.0220    5.8280    1.0560 h1        1 0WW      0.094000
     45 H16         2.8970    5.4390    2.6030 h1        1 0WW      0.094000
     46 H17        -1.6230   -3.2340   -3.4510 hc        1 0WW      0.088000
     47 H18        -0.8350   -4.6590   -1.8320 hc        1 0WW      0.080750
     48 H19        -2.3320   -5.0370   -1.3830 hc        1 0WW      0.080750
     49 H20        -1.0720   -5.8370   -3.8080 hc        1 0WW      0.078750
     50 H21        -1.5340   -6.8110   -2.6230 hc        1 0WW      0.078750
     51 H22        -3.0150   -6.8660   -4.4940 hc        1 0WW      0.078500
     52 H23        -3.7600   -6.4930   -3.1330 hc        1 0WW      0.078500
     53 H24        -4.5420   -5.0620   -4.7510 hc        1 0WW      0.078750
     54 H25        -3.0650   -4.6870   -5.1970 hc        1 0WW      0.078750
     55 H26        -4.3030   -3.8870   -2.7880 hc        1 0WW      0.080750
     56 H27        -3.8480   -2.9160   -3.9660 hc        1 0WW      0.080750
     57 H28         2.3610   10.7010    1.3130 DU        1 0WW      0.188000
     58 H29         2.9920   10.2920    3.7890 DU        1 0WW      0.188000
     59 H30         2.8090    7.5950    4.2770 DU        1 0WW      0.188000
@<TRIPOS>BOND
     1    1    2 1   
     2    1   21 1   
     3    1   32 1   
     4    1   33 1   
     5    2    3 1   
     6    2   34 1   
     7    3    4 1   
     8    3   35 1   
     9    3   36 1   
    10    4    5 1   
    11    4   37 1   
    12    4   38 1   
    13    5    6 1   
    14    5   14 1   
    15    6    7 1   
    16    6   11 1   
    17    7    8 1   
    18    8   39 1   
    19    9   10 1   
    20    9   40 1   
    21   10   20 1   
    22   12   13 1   
    23   12   41 1   
    24   15   16 1   
    25   16   17 1   
    26   18   19 1   
    27   18   43 1   
    28   19   31 1   
    29   19   44 1   
    30   19   45 1   
    31   21   22 1   
    32   21   26 1   
    33   21   46 1   
    34   22   23 1   
    35   22   47 1   
    36   22   48 1   
    37   23   24 1   
    38   23   49 1   
    39   23   50 1   
    40   24   25 1   
    41   24   51 1   
    42   24   52 1   
    43   25   26 1   
    44   25   53 1   
    45   25   54 1   
    46   26   55 1   
    47   26   56 1   
    48   27   28 1   
    49   27   31 1   
    50   28   29 1   
    51   29   30 1   
    52   30   31 1   
@<TRIPOS>SUBSTRUCTURE
     1 0WW         1 TEMP              0 ****  ****    0 ROOT
