@<TRIPOS>MOLECULE
0WW
   59    63     1     0     0
SMALL
bcc


@<TRIPOS>ATOM
      1 C1         -3.6880    1.8120    0.6170 c3        1 0WW      0.164800
      2 N1         -2.9360    1.1430   -0.4270 n3        1 0WW     -0.829200
      3 C2         -2.2630   -0.0530    0.0420 c3        1 0WW      0.162800
      4 C3         -1.6360   -0.8650   -1.0970 c3        1 0WW     -0.033100
      5 C4         -0.7570   -1.9310   -0.5470 ca        1 0WW     -0.070300
      6 C5         -1.1750   -3.2710   -0.3800 ca        1 0WW      0.179400
      7 N2         -2.4910   -3.6350   -0.7190 nc        1 0WW     -0.623100
      8 C6         -2.8500   -4.8840   -0.5590 cd        1 0WW      0.487800
      9 N3         -2.0510   -5.9130   -0.0750 n         1 0WW     -0.503400
     10 C7         -0.7200   -5.6470    0.2940 c         1 0WW      0.707100
     11 C8         -0.2640   -4.2500    0.1350 ca        1 0WW     -0.197600
     12 C9          1.0480   -3.9420    0.5000 ca        1 0WW     -0.012000
     13 C10         1.4760   -2.6250    0.3580 ca        1 0WW      0.072400
     14 C11         0.5550   -1.6300   -0.1690 ca        1 0WW     -0.040200
     15 N4          1.2710   -0.4290   -0.2290 na        1 0WW     -0.293300
     16 C12         2.5650   -0.7100    0.3220 cc        1 0WW      0.595700
     17 N5          2.7200   -2.0280    0.6400 nd        1 0WW     -0.598100
     18 N6          3.5070    0.3160    0.5550 nh        1 0WW     -0.765200
     19 C13         3.6180    1.3300   -0.4860 c3        1 0WW      0.255100
     20 O1         -0.0200   -6.5820    0.7230 o         1 0WW     -0.621500
     21 C14        -4.6280    2.9070    0.0970 c3        1 0WW     -0.064700
     22 C15        -5.4800    3.4140    1.2530 c3        1 0WW     -0.071900
     23 C16        -6.4050    4.5270    0.8050 c3        1 0WW     -0.076900
     24 C17        -5.6320    5.6640    0.1680 c3        1 0WW     -0.077400
     25 C18        -4.7730    5.1660   -0.9770 c3        1 0WW     -0.076900
     26 C19        -3.8490    4.0510   -0.5310 c3        1 0WW     -0.071900
     27 S1          5.2110    3.3850    0.5170 ss        1 0WW      0.067200
     28 C20         6.7690    3.5790   -0.0330 cc        1 0WW     -0.169100
     29 C21         7.1070    2.6220   -0.9680 cd        1 0WW     -0.159000
     30 C22         6.0230    1.7250   -1.2120 cd        1 0WW     -0.137000
     31 C23         4.9140    2.0470   -0.4490 cc        1 0WW     -0.164400
     32 H1         -4.3060    1.0830    1.2230 h1        1 0WW      0.030200
     33 H2         -2.9400    2.2760    1.3200 h1        1 0WW      0.030200
     34 H3         -3.5290    0.9290   -1.2080 hn        1 0WW      0.356800
     35 H5         -1.4520    0.2790    0.7510 h1        1 0WW      0.034200
     36 H6         -2.9510   -0.7360    0.6230 h1        1 0WW      0.034200
     37 H7         -2.4480   -1.3020   -1.7360 hc        1 0WW      0.062200
     38 H8         -1.0330   -0.1910   -1.7630 hc        1 0WW      0.062200
     39 H9         -3.8920   -5.1620   -0.8300 h5        1 0WW      0.050800
     40 H10        -2.4060   -6.8370    0.0130 hn        1 0WW      0.337500
     41 H11         1.7150   -4.7280    0.8900 ha        1 0WW      0.176000
     42 H12         0.8690    0.4670   -0.3260 hn        1 0WW      0.312700
     43 H14         4.3960   -0.0570    0.8390 hn        1 0WW      0.425800
     44 H15         3.4820    0.8880   -1.5180 h1        1 0WW      0.054700
     45 H16         2.7740    2.0630   -0.3190 h1        1 0WW      0.054700
     46 H17        -5.3140    2.4700   -0.6820 hc        1 0WW      0.046700
     47 H18        -6.0870    2.5700    1.6720 hc        1 0WW      0.043450
     48 H19        -4.8110    3.7880    2.0720 hc        1 0WW      0.043450
     49 H20        -7.1480    4.1220    0.0690 hc        1 0WW      0.038700
     50 H21        -6.9800    4.9120    1.6870 hc        1 0WW      0.038700
     51 H22        -6.3480    6.4400   -0.2080 hc        1 0WW      0.039200
     52 H23        -4.9800    6.1510    0.9400 hc        1 0WW      0.039200
     53 H24        -5.4330    4.7960   -1.8050 hc        1 0WW      0.038700
     54 H25        -4.1640    6.0140   -1.3850 hc        1 0WW      0.038700
     55 H26        -3.1100    4.4500    0.2130 hc        1 0WW      0.043450
     56 H27        -3.2680    3.6740   -1.4130 hc        1 0WW      0.043450
     57 H29         8.0730    2.5430   -1.4700 ha        1 0WW      0.157000
     58 H30         6.0780    0.8960   -1.9210 ha        1 0WW      0.157000
     59 H28         7.4260    4.3730    0.3190 h4        1 0WW      0.175000
@<TRIPOS>BOND
     1    1    2 1   
     2    1   21 1   
     3    1   32 1   
     4    1   33 1   
     5    2    3 1   
     6    2   34 1   
     7    3    4 1   
     8    3   35 1   
     9    3   36 1   
    10    4    5 1   
    11    4   37 1   
    12    4   38 1   
    13    5    6 ar  
    14    5   14 ar  
    15    6    7 1   
    16    6   11 ar  
    17    7    8 2   
    18    8    9 1   
    19    8   39 1   
    20    9   10 1   
    21    9   40 1   
    22   10   11 1   
    23   10   20 2   
    24   11   12 ar  
    25   12   13 ar  
    26   12   41 1   
    27   13   14 ar  
    28   13   17 1   
    29   14   15 1   
    30   15   16 1   
    31   15   42 1   
    32   16   17 2   
    33   16   18 1   
    34   18   19 1   
    35   18   43 1   
    36   19   31 1   
    37   19   44 1   
    38   19   45 1   
    39   21   22 1   
    40   21   26 1   
    41   21   46 1   
    42   22   23 1   
    43   22   47 1   
    44   22   48 1   
    45   23   24 1   
    46   23   49 1   
    47   23   50 1   
    48   24   25 1   
    49   24   51 1   
    50   24   52 1   
    51   25   26 1   
    52   25   53 1   
    53   25   54 1   
    54   26   55 1   
    55   26   56 1   
    56   27   28 1   
    57   27   31 1   
    58   28   29 2   
    59   28   59 1   
    60   29   30 1   
    61   29   57 1   
    62   30   31 2   
    63   30   58 1   
@<TRIPOS>SUBSTRUCTURE
     1 0WW         1 TEMP              0 ****  ****    0 ROOT
