@<TRIPOS>MOLECULE
0WX
   69    64     1     0     0
SMALL
bcc


@<TRIPOS>ATOM
      1 C2         -0.6170    0.6070   -0.0550 c2        1 0WX      0.282000
      2 O14        -1.3350    0.5730   -1.0500 o         1 0WX     -0.191000
      3 N3          0.7880    0.3690   -0.1930 ns        1 0WX     -0.303000
      4 C4          1.6770    0.4140    0.8070 c1        1 0WX      0.118000
      5 N5          1.2170    0.6830    2.1100 n7        1 0WX     -0.213000
      6 C6         -0.0800    0.8450    2.4370 c2        1 0WX      0.232000
      7 C10        -0.5030    0.8780    3.8260 c2        1 0WX     -0.125000
      8 C18         0.4190    1.1000    4.7710 c1        1 0WX     -0.399000
      9 C19         0.4580    1.2340    6.1890 c3        1 0WX     -0.037000
     10 N20         1.8910    1.5380    6.6140 ny        1 0WX     -0.046000
     11 C21         2.1520    2.9950    6.7480 c3        1 0WX     -0.139000
     12 C22         3.5930    3.3000    7.1990 c3        1 0WX      0.008000
     13 C27         3.7150    4.7970    7.4320 c3        1 0WX     -0.212000
     14 C26         4.5100    1.6420   11.7430 c2        1 0WX     -0.133000
     15 C25         4.6880    1.2250   10.4850 c2        1 0WX     -0.120000
     16 C24         4.2810    1.9510    9.3550 c1        1 0WX     -0.033000
     17 C23         3.9360    2.5450    8.3710 c1        1 0WX     -0.269000
     18 C9         -1.9050    0.5730    4.0210 c2        1 0WX      0.042000
     19 N11        -2.6030    0.4080    5.1830 na        1 0WX     -0.172000
     20 C12        -3.9390   -0.0080    4.8090 c2        1 0WX      0.019000
     21 N16        -4.8940   -0.1960    5.8330 n2        1 0WX     -0.162000
     22 C17        -5.9240   -0.9570    5.6230 c2        1 0WX     -0.074000
     23 N13        -4.0640   -0.0990    3.4610 n2        1 0WX     -0.037000
     24 C8         -2.8170    0.2700    2.9300 c2        1 0WX     -0.227000
     25 C7         -2.4530    0.3800    1.5870 c1        1 0WX      0.068000
     26 C1         -1.1130    0.9740    1.3400 c3        1 0WX     -0.193000
     27 H1          1.1270    0.1320   -1.1090 hn        1 0WX      0.295000
     28 H2          1.9080    0.6580    2.8420 hn        1 0WX      0.293000
     29 H3         -1.3490   -0.8780    7.6600 ha        1 0WX      0.002375
     30 H4         -1.4760   -1.5440    7.6820 ha        1 0WX      0.002375
     31 H5          0.1780    0.2730    6.7200 hx        1 0WX      0.142000
     32 H6          1.9610    3.4780    5.7480 hx        1 0WX      0.141000
     33 H7          1.4240    3.4170    7.5010 hx        1 0WX      0.141000
     34 H8          4.3020    3.0110    6.3650 hc        1 0WX      0.120000
     35 H9          3.4580    5.3520    6.4980 hc        1 0WX      0.100667
     36 H10         3.0360    5.1310    8.2520 hc        1 0WX      0.100667
     37 H11         4.0200    2.5920   11.9990 ha        1 0WX      0.133500
     38 H12         4.7660    5.0460    7.7200 hc        1 0WX      0.100667
     39 H13         4.8570    1.0460   12.6000 ha        1 0WX      0.133500
     40 H14         5.1990    0.2650   10.2650 ha        1 0WX      0.155000
     41 H15         6.4830   -1.7090   10.0680 ha        1 0WX      0.002375
     42 H16         6.0000   -1.7370    9.5940 ha        1 0WX      0.002375
     43 H17        -0.7830    3.4670    8.1730 ha        1 0WX      0.002375
     44 H18        -0.7300    4.1300    8.3020 ha        1 0WX      0.002375
     45 H19        -2.2820    0.5280    6.1120 hn        1 0WX      0.267000
     46 H20        -6.1520   -1.4900    4.6640 h4        1 0WX      0.178000
     47 H21        -1.7020    1.3650    8.0160 ha        1 0WX      0.002375
     48 H22        -2.2750    1.3330    8.3800 ha        1 0WX      0.002375
     49 H25        -1.3630    2.0940    1.2750 hc        1 0WX      0.219000
     50 C3         -6.7820   -1.4380    6.7010 c1        1 0WX      0.157000
     51 N1         -7.8490   -0.7840    7.2080 n3        1 0WX     -0.110000
     52 C11        -8.5820   -1.3910    8.1990 c1        1 0WX      0.046000
     53 C13        -9.7770   -0.6260    8.7330 c1        1 0WX      0.009000
     54 O1        -10.0930    0.5420    8.2690 os        1 0WX     -0.029000
     55 C15        -9.3150    1.1480    7.2660 c2        1 0WX     -0.099000
     56 C16        -8.2340    0.5200    6.7530 c2        1 0WX     -0.226000
     57 H26        -0.1840    2.0780    6.5840 hx        1 0WX      0.142000
     58 H27         2.5220    1.1550    5.8970 hn        1 0WX      0.240500
     59 H23        -5.8290   -0.9780   11.2330 ha        1 0WX      0.002375
     60 H24        -5.1680   -0.8440   11.2920 ha        1 0WX      0.002375
     61 H28        -8.0570   -0.8950   10.4630 ha        1 0WX      0.002375
     62 H29        -7.8890   -0.2900   10.1970 ha        1 0WX      0.002375
     63 H30        -6.3430    1.8960   10.7740 ha        1 0WX      0.002375
     64 H31        -6.3880    1.2330   10.9050 ha        1 0WX      0.002375
     65 H32        -3.5230    0.9910   10.1100 ha        1 0WX      0.002375
     66 H33        -9.7070    2.1360    6.9930 h4        1 0WX      0.205000
     67 H34        -4.1490    0.9290   10.3620 ha        1 0WX      0.002375
     68 H35        -7.6060    0.9750    5.9680 h4        1 0WX      0.182000
     69 H202        2.0970    1.0860    7.5100 hn        1 0WX      0.240500
@<TRIPOS>BOND
     1    1    2 1   
     2    1    3 1   
     3    1   26 1   
     4    3    4 1   
     5    3   27 1   
     6    4    5 1   
     7    5    6 1   
     8    5   28 1   
     9    6    7 1   
    10    6   26 1   
    11    7    8 1   
    12    7   18 1   
    13    8    9 1   
    14    9   10 1   
    15    9   31 1   
    16    9   57 1   
    17   10   11 1   
    18   10   58 1   
    19   10   69 1   
    20   11   12 1   
    21   11   32 1   
    22   11   33 1   
    23   12   13 1   
    24   12   17 1   
    25   12   34 1   
    26   13   35 1   
    27   13   36 1   
    28   13   38 1   
    29   14   15 1   
    30   14   37 1   
    31   14   39 1   
    32   15   16 1   
    33   15   40 1   
    34   16   17 1   
    35   18   19 1   
    36   18   24 1   
    37   19   20 1   
    38   19   45 1   
    39   20   21 1   
    40   20   23 1   
    41   21   22 1   
    42   22   46 1   
    43   22   50 1   
    44   23   24 1   
    45   24   25 1   
    46   25   26 1   
    47   26   49 1   
    48   29   30 1   
    49   41   42 1   
    50   43   44 1   
    51   47   48 1   
    52   50   51 1   
    53   51   52 1   
    54   51   56 1   
    55   52   53 1   
    56   53   54 1   
    57   54   55 1   
    58   55   56 1   
    59   55   66 1   
    60   56   68 1   
    61   59   60 1   
    62   61   62 1   
    63   63   64 1   
    64   65   67 1   
@<TRIPOS>SUBSTRUCTURE
     1 0WX         1 TEMP              0 ****  ****    0 ROOT
