@<TRIPOS>MOLECULE
0WX
   69    61     1     0     0
SMALL
bcc


@<TRIPOS>ATOM
      1 C2          0.2380    1.3990    1.5920 c2        1 0WX      0.308000
      2 O14         0.3060    1.5910    0.3840 o         1 0WX     -0.182000
      3 N3          1.4490    0.9980    2.2720 n         1 0WX     -0.273000
      4 C4          1.4950    0.8750    3.6070 c2        1 0WX      0.175000
      5 N5          0.4250    1.0560    4.4490 n2        1 0WX     -0.223000
      6 C6         -0.7550    1.3750    3.9270 c2        1 0WX      0.187000
      7 C10        -1.9460    1.4410    4.7920 c2        1 0WX     -0.063000
      8 C18        -1.8850    1.8160    6.0570 c1        1 0WX     -0.027000
      9 C19        -1.8400    2.2140    7.2860 c2        1 0WX     -0.131000
     10 N20         4.2100    0.1170    4.4710 n2        1 0WX     -0.341000
     11 C21         4.7480    0.4400    5.5860 c2        1 0WX     -0.014000
     12 C22         6.1040    0.1000    6.1020 c3        1 0WX     -0.258000
     13 C27         6.6320    3.5170    7.2990 c3        1 0WX     -0.272000
     14 C26         3.3290    2.5890    7.8530 c1        1 0WX      0.169000
     15 C25         2.8880    3.4760    8.7260 c2        1 0WX     -0.335000
     16 C24         1.7660    3.4060    9.5540 c1        1 0WX     -0.117000
     17 C23         0.8070    3.3530   10.2680 c1        1 0WX     -0.186000
     18 C9         -3.1620    0.9920    4.1420 c2        1 0WX      0.038000
     19 N11        -4.3780    0.7220    4.6690 na        1 0WX     -0.174000
     20 C12        -5.1870    0.1870    3.5850 c2        1 0WX      0.030000
     21 N16        -6.5310   -0.2370    3.7770 nh        1 0WX     -0.197000
     22 C17        -6.8460   -0.8390    5.0560 c3        1 0WX     -0.091000
     23 N13        -4.4940    0.1450    2.4190 n2        1 0WX      0.003000
     24 C8         -3.2170    0.6610    2.7190 c2        1 0WX     -0.243000
     25 C7         -2.1460    0.8590    1.8580 c1        1 0WX      0.057000
     26 C1         -0.9920    1.6050    2.4560 c3        1 0WX     -0.204000
     27 H1          2.2580    0.8040    1.7080 hn        1 0WX      0.286000
     28 H2          4.1360    1.0660    6.2840 h4        1 0WX      0.176000
     29 H3         -0.0770    1.0060    9.7840 ha        1 0WX      0.003167
     30 H4         -0.6500    0.6840    9.9500 ha        1 0WX      0.003167
     31 H5         -1.6680    1.5130    8.1270 ha        1 0WX      0.183500
     32 H6         -2.6760    2.4120   10.4580 ha        1 0WX      0.003167
     33 H7         -2.1580    2.6310   10.0780 ha        1 0WX      0.003167
     34 H8          6.7390   -0.4250    5.3480 hc        1 0WX      0.108000
     35 H9          7.2940    2.8840    7.9300 hc        1 0WX      0.069000
     36 H10         6.6240    1.0410    6.4170 hc        1 0WX      0.108000
     37 H11         5.5950    3.1100    7.3260 hc        1 0WX      0.069000
     38 H12         6.6340    4.5580    7.6900 hc        1 0WX      0.069000
     39 H13         3.4980    4.4090    8.8320 ha        1 0WX      0.213000
     40 H14         7.0040    3.5150    6.2510 hc        1 0WX      0.069000
     41 H15         2.1370    0.7000    7.8450 ha        1 0WX      0.003167
     42 H16         1.7370    1.0090    8.3030 ha        1 0WX      0.003167
     43 H17        -0.0360    3.3070   10.9110 ha        1 0WX      0.233000
     44 H18         6.0010   -0.5600    7.0000 hc        1 0WX      0.108000
     45 H19        -4.7330    0.7140    5.6360 hn        1 0WX      0.332000
     46 H20        -7.1570    0.5150    3.5440 hn        1 0WX      0.199000
     47 H21        -2.9370   -0.0370   10.2760 ha        1 0WX      0.003167
     48 H22        -2.8600    0.1630    9.6320 ha        1 0WX      0.003167
     49 H25        -1.2920    2.7000    2.3120 hc        1 0WX      0.216000
     50 C3         -6.2800   -0.1330    6.2510 c1        1 0WX     -0.234000
     51 N1         -6.7420   -0.3020    7.4670 n3        1 0WX     -0.043000
     52 C11        -9.0090   -1.9740    8.0920 c1        1 0WX      0.089000
     53 C13       -10.0120   -2.7120    8.4420 c2        1 0WX     -0.479000
     54 O1         -4.8650    1.3710   10.4090 oh        1 0WX     -0.140000
     55 C15        -5.5590    0.8560    9.4100 c1        1 0WX     -0.025000
     56 C16        -6.1340    0.2930    8.5260 c1        1 0WX     -0.126000
     57 H26        -1.9730    3.2700    7.5790 ha        1 0WX      0.183500
     58 H27         4.7540   -0.4420    3.8480 hn        1 0WX      0.153000
     59 H23        -6.3950   -1.8790    5.0520 h1        1 0WX      0.124000
     60 H24        -7.9690   -0.9540    5.0890 h1        1 0WX      0.124000
     61 H28        -9.9270   -3.7780    8.7260 ha        1 0WX      0.218500
     62 H29        -7.5530   -0.8980    7.7190 hn        1 0WX      0.277000
     63 H30       -11.0570   -2.3540    8.4940 ha        1 0WX      0.218500
     64 H31        -5.4710    1.9700   10.8950 ho        1 0WX      0.244000
     65 H32        -4.7750    3.8600   11.7440 ha        1 0WX      0.003167
     66 H33        -4.1810    3.6140   11.5300 ha        1 0WX      0.003167
     67 H34        -3.6980    1.6030   12.4920 ha        1 0WX      0.003167
     68 H35        -3.3880    1.0700   12.2100 ha        1 0WX      0.003167
     69 H202        2.4890    0.5760    4.1090 h5        1 0WX      0.302000
@<TRIPOS>BOND
     1    1    2 1   
     2    1    3 1   
     3    1   26 1   
     4    3    4 1   
     5    3   27 1   
     6    4    5 1   
     7    4   69 1   
     8    5    6 1   
     9    6    7 1   
    10    6   26 1   
    11    7    8 1   
    12    7   18 1   
    13    8    9 1   
    14    9   31 1   
    15    9   57 1   
    16   10   11 1   
    17   10   58 1   
    18   11   12 1   
    19   11   28 1   
    20   12   34 1   
    21   12   36 1   
    22   12   44 1   
    23   13   35 1   
    24   13   37 1   
    25   13   38 1   
    26   13   40 1   
    27   14   15 1   
    28   15   16 1   
    29   15   39 1   
    30   16   17 1   
    31   17   43 1   
    32   18   19 1   
    33   18   24 1   
    34   19   20 1   
    35   19   45 1   
    36   20   21 1   
    37   20   23 1   
    38   21   22 1   
    39   21   46 1   
    40   22   50 1   
    41   22   59 1   
    42   22   60 1   
    43   23   24 1   
    44   24   25 1   
    45   25   26 1   
    46   26   49 1   
    47   29   30 1   
    48   32   33 1   
    49   41   42 1   
    50   47   48 1   
    51   50   51 1   
    52   51   56 1   
    53   51   62 1   
    54   52   53 1   
    55   53   61 1   
    56   53   63 1   
    57   54   55 1   
    58   54   64 1   
    59   55   56 1   
    60   65   66 1   
    61   67   68 1   
@<TRIPOS>SUBSTRUCTURE
     1 0WX         1 TEMP              0 ****  ****    0 ROOT
