@<TRIPOS>MOLECULE
0WX
   68    72     1     0     0
SMALL
bcc


@<TRIPOS>ATOM
      1 C2          5.5540   -2.6880   -0.7180 c         1 0WX      0.707100
      2 O14         5.9270   -3.7750   -1.1920 o         1 0WX     -0.622500
      3 N3          6.5040   -1.6670   -0.5340 n         1 0WX     -0.503400
      4 C4          6.1080   -0.4440   -0.0070 cc        1 0WX      0.487800
      5 N5          4.8950   -0.1140    0.3560 nd        1 0WX     -0.623100
      6 C6          3.8730   -1.0700    0.2120 ca        1 0WX      0.179400
      7 C10         2.5530   -0.7430    0.6000 ca        1 0WX     -0.071300
      8 C18         2.1810    0.5720    1.1830 c3        1 0WX     -0.030100
      9 C19         1.6520    1.5090    0.0910 c3        1 0WX      0.163800
     10 N20         1.0970    2.7370    0.6280 n3        1 0WX     -0.828200
     11 C21         0.7550    3.6970   -0.4030 c3        1 0WX      0.165800
     12 C22         0.4340    5.0960    0.1370 c3        1 0WX     -0.064700
     13 C27         0.2590    6.0500   -1.0370 c3        1 0WX     -0.071900
     14 C26        -0.0980    7.4440   -0.5630 c3        1 0WX     -0.076900
     15 C25        -1.3370    7.4300    0.3080 c3        1 0WX     -0.077400
     16 C24        -1.1770    6.4760    1.4730 c3        1 0WX     -0.076900
     17 C23        -0.8180    5.0810    1.0010 c3        1 0WX     -0.071900
     18 C9          1.5800   -1.7320    0.4160 ca        1 0WX     -0.037200
     19 N11         0.2030   -1.7170    0.6510 na        1 0WX     -0.292300
     20 C12        -0.2780   -3.0210    0.3080 cc        1 0WX      0.597700
     21 N16        -1.6150   -3.4080    0.5530 nh        1 0WX     -0.765200
     22 C17        -2.6310   -2.4230    0.2260 c3        1 0WX      0.167800
     23 N13         0.7080   -3.8240   -0.1900 nd        1 0WX     -0.600100
     24 C8          1.8820   -3.0490   -0.1240 ca        1 0WX      0.070400
     25 C7          3.1910   -3.3520   -0.4910 ca        1 0WX     -0.011000
     26 C1          4.1650   -2.3670   -0.3230 ca        1 0WX     -0.198600
     27 H1          7.4520   -1.8330   -0.7830 hn        1 0WX      0.338500
     28 H2          6.9090    0.3180    0.1110 h5        1 0WX      0.050800
     29 H3          1.3950    0.4240    1.9730 hc        1 0WX      0.059700
     30 H4          3.0600    1.0480    1.6930 hc        1 0WX      0.059700
     31 H5          2.4900    1.6990   -0.6430 h1        1 0WX      0.035200
     32 H6          1.5800    3.8020   -1.1700 h1        1 0WX      0.030200
     33 H7         -0.1500    3.2970   -0.9430 h1        1 0WX      0.030200
     34 H8          1.2960    5.4620    0.7630 hc        1 0WX      0.046700
     35 H9          1.2070    6.0900   -1.6340 hc        1 0WX      0.043200
     36 H10        -0.5500    5.6650   -1.7120 hc        1 0WX      0.043200
     37 H11         0.7610    7.8720    0.0180 hc        1 0WX      0.038700
     38 H12        -0.2680    8.1070   -1.4500 hc        1 0WX      0.038700
     39 H13        -1.5380    8.4640    0.6920 hc        1 0WX      0.038700
     40 H14        -2.2230    7.1220   -0.3080 hc        1 0WX      0.038700
     41 H15        -0.3750    6.8560    2.1590 hc        1 0WX      0.038700
     42 H16        -2.1310    6.4360    2.0600 hc        1 0WX      0.038700
     43 H17        -1.6700    4.6530    0.4110 hc        1 0WX      0.043200
     44 H18        -0.6560    4.4170    1.8890 hc        1 0WX      0.043200
     45 H19        -0.2920   -1.0230    1.1470 hn        1 0WX      0.315700
     46 H20        -1.8070   -4.3160    0.1700 hn        1 0WX      0.416800
     47 H21        -2.6160   -1.6380    1.0350 h1        1 0WX      0.052200
     48 H22        -2.4160   -1.9110   -0.7560 h1        1 0WX      0.052200
     49 H25         3.4620   -4.3370   -0.9060 ha        1 0WX      0.176000
     50 C3         -4.0390   -3.0620    0.1700 c3        1 0WX      0.164800
     51 N1         -5.0740   -2.0580   -0.0270 n3        1 0WX     -0.729600
     52 C11        -6.3660   -2.4940    0.4890 c3        1 0WX      0.132800
     53 C13        -7.4750   -1.4670    0.2310 c3        1 0WX      0.126400
     54 O1         -7.5430   -1.1000   -1.1420 os        1 0WX     -0.413600
     55 C15        -6.3020   -0.5970   -1.6210 c3        1 0WX      0.126400
     56 C16        -5.1640   -1.6010   -1.4080 c3        1 0WX      0.132800
     57 H26         0.8270    0.9890   -0.4740 h1        1 0WX      0.035200
     58 H27         1.7250    3.1440    1.2960 hn        1 0WX      0.356800
     59 H23        -4.0530   -3.8450   -0.6450 h1        1 0WX      0.043700
     60 H24        -4.2320   -3.5860    1.1500 h1        1 0WX      0.043700
     61 H28        -6.6810   -3.4800    0.0390 h1        1 0WX      0.042200
     62 H29        -6.2640   -2.6340    1.6010 h1        1 0WX      0.042200
     63 H30        -8.4770   -1.9210    0.4490 h1        1 0WX      0.056200
     64 H31        -7.3200   -0.5500    0.8580 h1        1 0WX      0.056200
     65 H32        -6.4710   -0.4330   -2.7180 h1        1 0WX      0.056200
     66 H33        -6.0710    0.3780   -1.1160 h1        1 0WX      0.056200
     67 H34        -4.1920   -1.0980   -1.6700 h1        1 0WX      0.042200
     68 H35        -5.3120   -2.4640   -2.1220 h1        1 0WX      0.042200
@<TRIPOS>BOND
     1    1    2 2   
     2    1    3 1   
     3    1   26 1   
     4    3    4 1   
     5    3   27 1   
     6    4    5 2   
     7    4   28 1   
     8    5    6 1   
     9    6    7 ar  
    10    6   26 ar  
    11    7    8 1   
    12    7   18 ar  
    13    8    9 1   
    14    8   29 1   
    15    8   30 1   
    16    9   10 1   
    17    9   31 1   
    18    9   57 1   
    19   10   11 1   
    20   10   58 1   
    21   11   12 1   
    22   11   32 1   
    23   11   33 1   
    24   12   13 1   
    25   12   17 1   
    26   12   34 1   
    27   13   14 1   
    28   13   35 1   
    29   13   36 1   
    30   14   15 1   
    31   14   37 1   
    32   14   38 1   
    33   15   16 1   
    34   15   39 1   
    35   15   40 1   
    36   16   17 1   
    37   16   41 1   
    38   16   42 1   
    39   17   43 1   
    40   17   44 1   
    41   18   19 1   
    42   18   24 ar  
    43   19   20 1   
    44   19   45 1   
    45   20   21 1   
    46   20   23 2   
    47   21   22 1   
    48   21   46 1   
    49   22   47 1   
    50   22   48 1   
    51   22   50 1   
    52   23   24 1   
    53   24   25 ar  
    54   25   26 ar  
    55   25   49 1   
    56   50   51 1   
    57   50   59 1   
    58   50   60 1   
    59   51   52 1   
    60   51   56 1   
    61   52   53 1   
    62   52   61 1   
    63   52   62 1   
    64   53   54 1   
    65   53   63 1   
    66   53   64 1   
    67   54   55 1   
    68   55   56 1   
    69   55   65 1   
    70   55   66 1   
    71   56   67 1   
    72   56   68 1   
@<TRIPOS>SUBSTRUCTURE
     1 0WX         1 TEMP              0 ****  ****    0 ROOT
