@<TRIPOS>MOLECULE
0WX
   68    63     1     0     0
SMALL
bcc


@<TRIPOS>ATOM
      1 C2          3.1630    0.8420   -4.9090 c1        1 0WX      0.344000
      2 O14         2.5860    0.7310   -5.9520 o         1 0WX     -0.348000
      3 N3          4.5660    0.8670   -4.8850 n3        1 0WX     -0.343000
      4 C4          5.2640    0.8300   -3.6310 c2        1 0WX      0.063000
      5 N5          4.5260    0.7660   -2.3960 n1        1 0WX     -0.190000
      6 C6          3.0650    0.7360   -2.4160 c1        1 0WX     -0.049250
      7 C10         2.3500    0.6530   -1.2120 c1        1 0WX     -0.049250
      8 C18         3.1480    0.6300    0.0860 c2        1 0WX     -0.120000
      9 C19         3.7130   -0.8010    0.3210 c3        1 0WX     -0.073000
     10 N20         3.5700   -1.1530    1.7040 n3        1 0WX     -0.304000
     11 C21         3.3810   -2.5920    1.8220 c3        1 0WX     -0.070000
     12 C22         2.8080   -2.8760    3.0160 c3        1 0WX     -0.138000
     13 C27         1.2210   -3.1020    2.8840 c3        1 0WX     -0.148500
     14 C26         0.5620   -3.4470    4.1960 c3        1 0WX     -0.154500
     15 C25         1.4670   -3.8950    5.1080 c3        1 0WX     -0.154000
     16 C24         2.5140   -4.7030    4.8340 c3        1 0WX     -0.154500
     17 C23         3.1630   -4.3450    3.5070 c3        1 0WX     -0.148500
     18 C9          0.9350    0.6130   -1.2290 c1        1 0WX     -0.049250
     19 N11         0.0110    0.6550   -0.2240 n1        1 0WX     -0.252000
     20 C12        -1.2130    0.7210   -0.7860 c1        1 0WX      0.120000
     21 N16        -2.5210    0.7420   -0.1380 n2        1 0WX     -0.250000
     22 C17        -3.7190    0.6200   -0.9320 c3        1 0WX     -0.050000
     23 N13        -1.0560    0.7210   -2.1450 n2        1 0WX     -0.176000
     24 C8          0.2670    0.6540   -2.4150 c1        1 0WX     -0.063000
     25 C7          0.9870    0.7380   -3.6320 c1        1 0WX     -0.018000
     26 C1          2.3920    0.7780   -3.6140 c1        1 0WX     -0.049250
     27 H1          5.0280    0.9070   -5.6550 hn        1 0WX      0.251000
     28 H2          6.2280    0.8470   -3.6160 h5        1 0WX      0.181000
     29 H3          2.5720    0.8730    0.8240 ha        1 0WX      0.103000
     30 H4          3.8850    1.2650    0.0270 ha        1 0WX      0.103000
     31 H5          4.6450   -0.8210    0.0800 h1        1 0WX      0.071000
     32 H6          2.8020   -2.9070    1.0960 h1        1 0WX      0.091500
     33 H7          4.2530   -3.0410    1.7630 h1        1 0WX      0.091500
     34 H8          3.0260   -2.1970    3.7050 hc        1 0WX      0.087000
     35 H9          0.8210   -2.2960    2.5410 hc        1 0WX      0.077000
     36 H10         1.0590   -3.8260    2.2530 hc        1 0WX      0.077000
     37 H11         0.1230   -2.6550    4.5490 hc        1 0WX      0.079000
     38 H12        -0.1240   -4.1610    4.0390 hc        1 0WX      0.079000
     39 H13         0.9440   -4.3580    5.8040 hc        1 0WX      0.077500
     40 H14         1.8550   -3.0790    5.5350 hc        1 0WX      0.077500
     41 H15         3.1800   -4.6170    5.5480 hc        1 0WX      0.079000
     42 H16         2.1940   -5.6510    4.7980 hc        1 0WX      0.079000
     43 H17         2.8660   -4.9760    2.8360 hc        1 0WX      0.077000
     44 H18         4.1460   -4.4200    3.6020 hc        1 0WX      0.077000
     45 H19         0.1950    0.6880    0.6810 DU        1 0WX      0.249000
     46 H20        -2.5830    0.8970    0.7630 hn        1 0WX      0.212000
     47 H21        -4.0400   -0.2930   -0.8940 h1        1 0WX      0.100000
     48 H22        -3.5220    0.8540   -1.8510 h1        1 0WX      0.100000
     49 H25         0.5110    0.6800   -4.4850 ha        1 0WX      0.175000
     50 C3         -4.7900    1.5580   -0.3860 c3        1 0WX     -0.081000
     51 N1         -4.9570    2.6700   -1.2820 n3        1 0WX     -0.267000
     52 C11        -4.6060    3.8650   -0.6140 c3        1 0WX     -0.106000
     53 C13        -4.9010    5.1050   -1.4480 c3        1 0WX     -0.024000
     54 O1         -6.2320    5.1240   -1.9330 os        1 0WX     -0.269000
     55 C15        -6.5830    3.9290   -2.6020 c3        1 0WX     -0.024000
     56 C16        -6.2850    2.6880   -1.7670 c3        1 0WX     -0.106000
     57 H26         3.2170   -1.4430   -0.2360 h1        1 0WX      0.071000
     58 H27         2.8510   -0.7230    2.0520 hn        1 0WX      0.151000
     59 H23        -4.5130    1.8920    0.5060 h1        1 0WX      0.088000
     60 H24        -5.6440    1.0710   -0.3030 h1        1 0WX      0.088000
     61 H28        -5.1130    3.9210    0.2240 h1        1 0WX      0.082750
     62 H29        -3.6530    3.8440   -0.4060 h1        1 0WX      0.082750
     63 H30        -4.7510    5.9090   -0.8900 h1        1 0WX      0.094500
     64 H31        -4.2760    5.1290   -2.2200 h1        1 0WX      0.094500
     65 H32        -7.5610    3.9510   -2.8100 h1        1 0WX      0.094500
     66 H33        -6.0800    3.8760   -3.4450 h1        1 0WX      0.094500
     67 H34        -6.4320    1.8760   -2.3310 h1        1 0WX      0.082750
     68 H35        -6.8960    2.6610   -1.0130 h1        1 0WX      0.082750
@<TRIPOS>BOND
     1    1    2 1   
     2    1    3 1   
     3    3    4 1   
     4    3   27 1   
     5    4    5 1   
     6    4   28 1   
     7    6   26 1   
     8    7   18 1   
     9    8    9 1   
    10    8   29 1   
    11    8   30 1   
    12    9   10 1   
    13    9   31 1   
    14    9   57 1   
    15   10   11 1   
    16   10   58 1   
    17   11   12 1   
    18   11   32 1   
    19   11   33 1   
    20   12   13 1   
    21   12   17 1   
    22   12   34 1   
    23   13   14 1   
    24   13   35 1   
    25   13   36 1   
    26   14   15 1   
    27   14   37 1   
    28   14   38 1   
    29   15   16 1   
    30   15   39 1   
    31   15   40 1   
    32   16   17 1   
    33   16   41 1   
    34   16   42 1   
    35   17   43 1   
    36   17   44 1   
    37   19   20 1   
    38   20   23 1   
    39   21   22 1   
    40   21   46 1   
    41   22   47 1   
    42   22   48 1   
    43   22   50 1   
    44   23   24 1   
    45   24   25 1   
    46   25   49 1   
    47   50   51 1   
    48   50   59 1   
    49   50   60 1   
    50   51   52 1   
    51   51   56 1   
    52   52   53 1   
    53   52   61 1   
    54   52   62 1   
    55   53   54 1   
    56   53   63 1   
    57   53   64 1   
    58   54   55 1   
    59   55   56 1   
    60   55   65 1   
    61   55   66 1   
    62   56   67 1   
    63   56   68 1   
@<TRIPOS>SUBSTRUCTURE
     1 0WX         1 TEMP              0 ****  ****    0 ROOT
