@<TRIPOS>MOLECULE
0WY
   67    71     1     0     0
SMALL
bcc


@<TRIPOS>ATOM
      1 C1          0.5330    3.8600    0.8230 c3        1 0WY      0.164800
      2 N1          0.5260    2.8340   -0.2010 n3        1 0WY     -0.828200
      3 C2          1.2420    1.6370    0.1980 c3        1 0WY      0.161800
      4 C3          1.4060    0.6340   -0.9500 c3        1 0WY     -0.028100
      5 C4          1.9430   -0.6530   -0.4360 ca        1 0WY     -0.089300
      6 C5          3.3210   -0.9890   -0.4700 ca        1 0WY      0.218400
      7 N2          4.2290   -0.0680   -0.9990 nc        1 0WY     -0.685100
      8 C6          5.5300   -0.3730   -1.0090 cd        1 0WY      0.661800
      9 N3          6.0460   -1.6130   -0.5730 n         1 0WY     -0.508400
     10 C7          5.1920   -2.5830   -0.0200 c         1 0WY      0.720100
     11 C8          3.7560   -2.2570    0.0280 ca        1 0WY     -0.215600
     12 C9          2.8830   -3.2030    0.5690 ca        1 0WY     -0.004000
     13 C10         1.5300   -2.8880    0.6240 ca        1 0WY      0.061400
     14 C11         1.0780   -1.6020    0.1150 ca        1 0WY     -0.028200
     15 N4         -0.3120   -1.5880    0.2710 na        1 0WY     -0.294300
     16 C12        -0.6510   -2.8180    0.9260 cc        1 0WY      0.594700
     17 N5          0.4310   -3.6270    1.1080 nd        1 0WY     -0.599100
     18 N6         -1.9650   -3.0790    1.3770 nh        1 0WY     -0.766200
     19 C13        -3.0390   -2.6680    0.4910 c3        1 0WY      0.172800
     20 O1          5.7020   -3.6450    0.3800 o         1 0WY     -0.623500
     21 C14         0.0290    5.2240    0.3350 c3        1 0WY     -0.064700
     22 C15        -1.4380    5.1620   -0.0580 c3        1 0WY     -0.072400
     23 C16        -1.9550    6.5260   -0.4680 c3        1 0WY     -0.076900
     24 C17        -1.7320    7.5540    0.6220 c3        1 0WY     -0.077400
     25 C18        -0.2730    7.6150    1.0250 c3        1 0WY     -0.076900
     26 C19         0.2420    6.2530    1.4380 c3        1 0WY     -0.072400
     27 N7          6.4740    0.6050   -1.4220 nh        1 0WY     -0.883800
     28 C20        -4.3700   -3.3520    0.8220 c3        1 0WY     -0.044100
     29 C21        -5.4480   -2.8190   -0.0540 ca        1 0WY     -0.088300
     30 C22        -7.0470   -1.0780   -0.5860 ca        1 0WY     -0.127000
     31 C23        -6.0290   -1.5760    0.2250 ca        1 0WY     -0.124000
     32 C24        -7.4930   -1.8170   -1.6820 ca        1 0WY     -0.126000
     33 C25        -5.9000   -3.5560   -1.1540 ca        1 0WY     -0.124000
     34 C26        -6.9190   -3.0560   -1.9640 ca        1 0WY     -0.127000
     35 H1         -0.1330    3.5020    1.6580 h1        1 0WY      0.030700
     36 H2          1.5660    4.0090    1.2630 h1        1 0WY      0.030700
     37 H3          0.8930    3.1930   -1.0630 hn        1 0WY      0.355800
     38 H5          2.2690    1.8660    0.6120 h1        1 0WY      0.034700
     39 H6          0.6500    1.1560    1.0270 h1        1 0WY      0.034700
     40 H7          0.4140    0.4550   -1.4470 hc        1 0WY      0.059200
     41 H8          2.0810    1.0680   -1.7340 hc        1 0WY      0.059200
     42 H9          7.0280   -1.7790   -0.5480 hn        1 0WY      0.335500
     43 H10         3.2690   -4.1670    0.9390 ha        1 0WY      0.174000
     44 H11        -0.8810   -0.7820    0.2310 hn        1 0WY      0.312700
     45 H13        -2.0600   -4.0260    1.7000 hn        1 0WY      0.417800
     46 H14        -3.1680   -1.5540    0.6120 h1        1 0WY      0.049200
     47 H15        -2.7940   -2.8690   -0.5920 h1        1 0WY      0.049200
     48 H16         0.6280    5.5430   -0.5640 hc        1 0WY      0.045700
     49 H17        -1.5730    4.4410   -0.9050 hc        1 0WY      0.043450
     50 H18        -2.0380    4.7780    0.8090 hc        1 0WY      0.043450
     51 H19        -1.4340    6.8570   -1.4050 hc        1 0WY      0.038450
     52 H20        -3.0500    6.4560   -0.6990 hc        1 0WY      0.038450
     53 H21        -2.0650    8.5620    0.2630 hc        1 0WY      0.038700
     54 H22        -2.3560    7.2920    1.5160 hc        1 0WY      0.038700
     55 H23         0.3360    8.0000    0.1650 hc        1 0WY      0.038450
     56 H24        -0.1480    8.3350    1.8750 hc        1 0WY      0.038450
     57 H25        -0.2880    5.9160    2.3680 hc        1 0WY      0.043450
     58 H26         1.3350    6.3240    1.6810 hc        1 0WY      0.043450
     59 H27         6.0570    1.4300   -1.8000 hn        1 0WY      0.410300
     60 H28         7.2140    0.2480   -1.9870 hn        1 0WY      0.410300
     61 H29        -4.2730   -4.4620    0.6820 hc        1 0WY      0.059200
     62 H30        -4.6360   -3.1700    1.8980 hc        1 0WY      0.059200
     63 H31        -7.4990   -0.1010   -0.3610 ha        1 0WY      0.134000
     64 H32        -5.6800   -0.9930    1.0910 ha        1 0WY      0.133500
     65 H33        -8.2960   -1.4240   -2.3220 ha        1 0WY      0.133000
     66 H34        -5.4510   -4.5350   -1.3790 ha        1 0WY      0.133500
     67 H35        -7.2690   -3.6420   -2.8260 ha        1 0WY      0.134000
@<TRIPOS>BOND
     1    1    2 1   
     2    1   21 1   
     3    1   35 1   
     4    1   36 1   
     5    2    3 1   
     6    2   37 1   
     7    3    4 1   
     8    3   38 1   
     9    3   39 1   
    10    4    5 1   
    11    4   40 1   
    12    4   41 1   
    13    5    6 ar  
    14    5   14 ar  
    15    6    7 1   
    16    6   11 ar  
    17    7    8 2   
    18    8    9 1   
    19    8   27 1   
    20    9   10 1   
    21    9   42 1   
    22   10   11 1   
    23   10   20 2   
    24   11   12 ar  
    25   12   13 ar  
    26   12   43 1   
    27   13   14 ar  
    28   13   17 1   
    29   14   15 1   
    30   15   16 1   
    31   15   44 1   
    32   16   17 2   
    33   16   18 1   
    34   18   19 1   
    35   18   45 1   
    36   19   28 1   
    37   19   46 1   
    38   19   47 1   
    39   21   22 1   
    40   21   26 1   
    41   21   48 1   
    42   22   23 1   
    43   22   49 1   
    44   22   50 1   
    45   23   24 1   
    46   23   51 1   
    47   23   52 1   
    48   24   25 1   
    49   24   53 1   
    50   24   54 1   
    51   25   26 1   
    52   25   55 1   
    53   25   56 1   
    54   26   57 1   
    55   26   58 1   
    56   27   59 1   
    57   27   60 1   
    58   28   29 1   
    59   28   61 1   
    60   28   62 1   
    61   29   31 ar  
    62   29   33 ar  
    63   30   31 ar  
    64   30   32 ar  
    65   30   63 1   
    66   31   64 1   
    67   32   34 ar  
    68   32   65 1   
    69   33   34 ar  
    70   33   66 1   
    71   34   67 1   
@<TRIPOS>SUBSTRUCTURE
     1 0WY         1 TEMP              0 ****  ****    0 ROOT
