@<TRIPOS>MOLECULE
0WY
   69    73     1     0     0
SMALL
bcc


@<TRIPOS>ATOM
      1 C1          0.0120   -0.0220    0.2770 c3        1 0WY      0.102800
      2 N1         -0.4820    1.3280    0.6960 n4        1 0WY     -0.763000
      3 C2         -1.9630    1.4480    0.5590 c3        1 0WY      0.096800
      4 C3         -2.4970    2.8140    1.0040 c3        1 0WY     -0.043100
      5 C4         -3.9860    2.7660    1.0250 ca        1 0WY     -0.043300
      6 C5         -4.7990    3.3250   -0.0000 ca        1 0WY      0.118400
      7 N2         -4.2030    4.0410   -1.0470 nc        1 0WY     -0.581100
      8 C6         -4.9970    4.5930   -1.9500 cd        1 0WY      0.519800
      9 N3         -6.3870    4.4980   -2.0150 n         1 0WY     -0.505400
     10 C7         -7.0640    3.7600   -1.0030 c         1 0WY      0.719100
     11 C8         -6.2210    3.1740    0.0600 ca        1 0WY     -0.136600
     12 C9         -6.8710    2.5030    1.0910 ca        1 0WY     -0.030000
     13 C10        -6.0930    1.9850    2.1330 ca        1 0WY      0.175400
     14 C11        -4.6410    2.1490    2.0870 ca        1 0WY     -0.107200
     15 N4         -4.1250    1.4980    3.2330 na        1 0WY     -0.294300
     16 C12        -5.3070    1.0590    3.9700 cc        1 0WY      0.687700
     17 N5         -6.4830    1.3070    3.2820 nd        1 0WY     -0.607100
     18 N6         -5.2280    0.4360    5.1800 nh        1 0WY     -0.798200
     19 C13        -3.9770    0.2050    5.8590 c3        1 0WY      0.209800
     20 O1         -8.2890    3.6760   -1.0980 o         1 0WY     -0.512500
     21 C14         1.5340   -0.1520    0.3750 c3        1 0WY     -0.092700
     22 C15         2.0130   -0.0850    1.8180 c3        1 0WY     -0.077900
     23 C16         3.5120   -0.3030    1.9000 c3        1 0WY     -0.078900
     24 C17         3.9160   -1.6130    1.2560 c3        1 0WY     -0.085400
     25 C18         3.4250   -1.6960   -0.1740 c3        1 0WY     -0.078900
     26 C19         1.9270   -1.4860   -0.2570 c3        1 0WY     -0.077900
     27 N7         -4.3300    5.4100   -3.0220 n4        1 0WY     -0.800600
     28 C20        -4.1550   -0.5190    7.1990 c3        1 0WY     -0.043100
     29 C21        -2.8270   -0.6920    7.8480 ca        1 0WY     -0.113300
     30 C22        -0.9420   -2.0940    8.4340 ca        1 0WY     -0.123500
     31 C23        -2.1700   -1.9260    7.7960 ca        1 0WY     -0.125000
     32 C24        -0.3620   -1.0310    9.1280 ca        1 0WY     -0.113000
     33 C25        -2.2430    0.3710    8.5470 ca        1 0WY     -0.125000
     34 C26        -1.0150    0.2020    9.1830 ca        1 0WY     -0.123500
     35 H1         -0.3190   -0.1930   -0.7870 hx        1 0WY      0.106700
     36 H2         -0.4820   -0.7900    0.9390 hx        1 0WY      0.106700
     37 H3         -0.0220    2.0460    0.1250 hn        1 0WY      0.449300
     38 H5         -2.2270    1.2700   -0.5220 hx        1 0WY      0.115200
     39 H6         -2.4330    0.6290    1.1780 hx        1 0WY      0.115200
     40 H7         -2.1200    3.0630    2.0350 hc        1 0WY      0.074200
     41 H8         -2.1180    3.6170    0.3190 hc        1 0WY      0.074200
     42 H9         -6.9310    4.9350   -2.7290 hn        1 0WY      0.359500
     43 H10        -7.9710    2.3930    1.0910 ha        1 0WY      0.208000
     44 H11        -3.3620    1.8960    3.7310 hn        1 0WY      0.284700
     45 H13        -6.0700    0.0680    5.5740 hn        1 0WY      0.489800
     46 H14        -3.4720    1.1970    6.0500 h1        1 0WY      0.047200
     47 H15        -3.3000   -0.4120    5.1990 h1        1 0WY      0.047200
     48 H16         2.0260    0.6730   -0.2140 hc        1 0WY      0.069700
     49 H17         1.7700    0.9150    2.2650 hc        1 0WY      0.044950
     50 H18         1.4890   -0.8700    2.4250 hc        1 0WY      0.044950
     51 H19         4.0420    0.5450    1.3930 hc        1 0WY      0.062450
     52 H20         3.8240   -0.3010    2.9780 hc        1 0WY      0.062450
     53 H21         3.4990   -2.4690    1.8490 hc        1 0WY      0.064700
     54 H22         5.0340   -1.7060    1.2740 hc        1 0WY      0.064700
     55 H23         3.6770   -2.7030   -0.6000 hc        1 0WY      0.062450
     56 H24         3.9490   -0.9250   -0.7990 hc        1 0WY      0.062450
     57 H25         1.6050   -1.5040   -1.3310 hc        1 0WY      0.044950
     58 H26         1.4010   -2.3210    0.2750 hc        1 0WY      0.044950
     59 H27        -3.3110    5.4120   -2.8820 hn        1 0WY      0.481800
     60 H28        -4.6760    6.3770   -2.9750 hn        1 0WY      0.481800
     61 H29        -4.8290    0.0780    7.8720 hc        1 0WY      0.072200
     62 H30        -4.6390   -1.5180    7.0340 hc        1 0WY      0.072200
     63 H31        -0.4370   -3.0710    8.4040 ha        1 0WY      0.145000
     64 H32        -2.6320   -2.7740    7.2680 ha        1 0WY      0.132500
     65 H33         0.6010   -1.1680    9.6430 ha        1 0WY      0.148000
     66 H34        -2.7660    1.3370    8.6120 ha        1 0WY      0.132500
     67 H35        -0.5670    1.0370    9.7440 ha        1 0WY      0.145000
     68 H12        -0.2100    1.4900    1.6740 hn        1 0WY      0.449300
     69 H73        -4.5440    5.0100   -3.9450 hn        1 0WY      0.481800
@<TRIPOS>BOND
     1    1    2 1   
     2    1   21 1   
     3    1   35 1   
     4    1   36 1   
     5    2    3 1   
     6    2   37 1   
     7    2   68 1   
     8    3    4 1   
     9    3   38 1   
    10    3   39 1   
    11    4    5 1   
    12    4   40 1   
    13    4   41 1   
    14    5    6 ar  
    15    5   14 ar  
    16    6    7 1   
    17    6   11 ar  
    18    7    8 2   
    19    8    9 1   
    20    8   27 1   
    21    9   10 1   
    22    9   42 1   
    23   10   11 1   
    24   10   20 2   
    25   11   12 ar  
    26   12   13 ar  
    27   12   43 1   
    28   13   14 ar  
    29   13   17 1   
    30   14   15 1   
    31   15   16 1   
    32   15   44 1   
    33   16   17 2   
    34   16   18 1   
    35   18   19 1   
    36   18   45 1   
    37   19   28 1   
    38   19   46 1   
    39   19   47 1   
    40   21   22 1   
    41   21   26 1   
    42   21   48 1   
    43   22   23 1   
    44   22   49 1   
    45   22   50 1   
    46   23   24 1   
    47   23   51 1   
    48   23   52 1   
    49   24   25 1   
    50   24   53 1   
    51   24   54 1   
    52   25   26 1   
    53   25   55 1   
    54   25   56 1   
    55   26   57 1   
    56   26   58 1   
    57   27   59 1   
    58   27   60 1   
    59   27   69 1   
    60   28   29 1   
    61   28   61 1   
    62   28   62 1   
    63   29   31 ar  
    64   29   33 ar  
    65   30   31 ar  
    66   30   32 ar  
    67   30   63 1   
    68   31   64 1   
    69   32   34 ar  
    70   32   65 1   
    71   33   34 ar  
    72   33   66 1   
    73   34   67 1   
@<TRIPOS>SUBSTRUCTURE
     1 0WY         1 TEMP              0 ****  ****    0 ROOT
