@<TRIPOS>MOLECULE
0WY
   69    73     1     0     0
SMALL
bcc


@<TRIPOS>ATOM
      1 C1          0.0130   -0.0220    0.2810 c3        1 0WY      0.102800
      2 N1         -0.4790    1.3300    0.6980 ny        1 0WY     -0.763000
      3 C2         -1.9590    1.4520    0.5600 c3        1 0WY      0.096800
      4 C3         -2.4920    2.8190    1.0040 c3        1 0WY     -0.043100
      5 C4         -3.9810    2.7730    1.0220 ca        1 0WY     -0.043300
      6 C5         -4.7920    3.3330   -0.0040 ca        1 0WY      0.118400
      7 N2         -4.1940    4.0490   -1.0500 nc        1 0WY     -0.581100
      8 C6         -4.9860    4.6020   -1.9540 cd        1 0WY      0.519800
      9 N3         -6.3760    4.5090   -2.0200 ns        1 0WY     -0.505400
     10 C7         -7.0550    3.7710   -1.0090 c         1 0WY      0.719100
     11 C8         -6.2140    3.1840    0.0550 ca        1 0WY     -0.136600
     12 C9         -6.8660    2.5140    1.0850 ca        1 0WY     -0.030000
     13 C10        -6.0910    1.9950    2.1270 ca        1 0WY      0.175400
     14 C11        -4.6390    2.1570    2.0840 ca        1 0WY     -0.107200
     15 N4         -4.1250    1.5050    3.2310 na        1 0WY     -0.294300
     16 C12        -5.3080    1.0680    3.9660 cc        1 0WY      0.687700
     17 N5         -6.4820    1.3180    3.2760 nd        1 0WY     -0.607100
     18 N6         -5.2310    0.4450    5.1760 nu        1 0WY     -0.798200
     19 C13        -3.9810    0.2120    5.8570 c3        1 0WY      0.209800
     20 O1         -8.2800    3.6890   -1.1050 o         1 0WY     -0.512500
     21 C14         1.5350   -0.1550    0.3830 c3        1 0WY     -0.092700
     22 C15         2.0110   -0.0860    1.8260 c3        1 0WY     -0.077900
     23 C16         3.5090   -0.3080    1.9120 c3        1 0WY     -0.078900
     24 C17         3.9120   -1.6190    1.2710 c3        1 0WY     -0.085400
     25 C18         3.4240   -1.7030   -0.1600 c3        1 0WY     -0.078900
     26 C19         1.9260   -1.4900   -0.2470 c3        1 0WY     -0.077900
     27 N7         -4.3160    5.4180   -3.0250 nz        1 0WY     -0.800600
     28 C20        -4.1620   -0.5110    7.1960 c3        1 0WY     -0.043100
     29 C21        -2.8350   -0.6870    7.8470 ca        1 0WY     -0.113300
     30 C22        -0.9530   -2.0910    8.4350 ca        1 0WY     -0.123500
     31 C23        -2.1800   -1.9220    7.7950 ca        1 0WY     -0.125000
     32 C24        -0.3730   -1.0300    9.1300 ca        1 0WY     -0.113000
     33 C25        -2.2510    0.3750    8.5470 ca        1 0WY     -0.125000
     34 C26        -1.0240    0.2030    9.1850 ca        1 0WY     -0.123500
     35 H1         -0.3160   -0.1930   -0.7830 hx        1 0WY      0.106700
     36 H2         -0.4840   -0.7880    0.9440 hx        1 0WY      0.106700
     37 H3         -0.2080    1.4920    1.6760 hn        1 0WY      0.449300
     38 H5         -2.4320    0.6340    1.1780 hx        1 0WY      0.115200
     39 H6         -2.2220    1.2740   -0.5220 hx        1 0WY      0.115200
     40 H7         -2.1160    3.0680    2.0350 hc        1 0WY      0.074200
     41 H8         -2.1100    3.6210    0.3180 hc        1 0WY      0.074200
     42 H9         -6.9180    4.9470   -2.7350 hn        1 0WY      0.359500
     43 H10        -7.9670    2.4050    1.0830 ha        1 0WY      0.208000
     44 H11        -3.3620    1.9020    3.7290 hn        1 0WY      0.284700
     45 H13        -6.0740    0.0780    5.5680 hn        1 0WY      0.489800
     46 H14        -3.3050   -0.4070    5.1970 h1        1 0WY      0.047200
     47 H15        -3.4750    1.2030    6.0480 h1        1 0WY      0.047200
     48 H16         2.0300    0.6690   -0.2060 hc        1 0WY      0.069700
     49 H17         1.4850   -0.8690    2.4330 hc        1 0WY      0.044950
     50 H18         1.7700    0.9150    2.2710 hc        1 0WY      0.044950
     51 H19         4.0430    0.5390    1.4050 hc        1 0WY      0.062450
     52 H20         3.8190   -0.3040    2.9900 hc        1 0WY      0.062450
     53 H21         3.4920   -2.4740    1.8640 hc        1 0WY      0.064700
     54 H22         5.0290   -1.7150    1.2910 hc        1 0WY      0.064700
     55 H23         3.9510   -0.9350   -0.7850 hc        1 0WY      0.062450
     56 H24         3.6740   -2.7110   -0.5850 hc        1 0WY      0.062450
     57 H25         1.6060   -1.5080   -1.3210 hc        1 0WY      0.044950
     58 H26         1.3980   -2.3240    0.2850 hc        1 0WY      0.044950
     59 H27        -4.5310    5.0200   -3.9470 hn        1 0WY      0.481800
     60 H28        -3.2970    5.4180   -2.8840 hn        1 0WY      0.481800
     61 H29        -4.8360    0.0860    7.8680 hc        1 0WY      0.072200
     62 H30        -4.6480   -1.5100    7.0310 hc        1 0WY      0.072200
     63 H31        -0.4500   -3.0700    8.4050 ha        1 0WY      0.145000
     64 H32        -2.6430   -2.7690    7.2660 ha        1 0WY      0.132500
     65 H33         0.5900   -1.1690    9.6460 ha        1 0WY      0.148000
     66 H34        -2.7720    1.3420    8.6110 ha        1 0WY      0.132500
     67 H35        -0.5750    1.0380    9.7460 ha        1 0WY      0.145000
     68 H12        -0.0170    2.0460    0.1270 hn        1 0WY      0.449300
     69 H73        -4.6610    6.3860   -2.9760 hn        1 0WY      0.481800
@<TRIPOS>BOND
     1    1    2 1   
     2    1   21 1   
     3    1   35 1   
     4    1   36 1   
     5    2    3 1   
     6    2   37 1   
     7    2   68 1   
     8    3    4 1   
     9    3   38 1   
    10    3   39 1   
    11    4    5 1   
    12    4   40 1   
    13    4   41 1   
    14    5    6 ar  
    15    5   14 ar  
    16    6    7 1   
    17    6   11 ar  
    18    7    8 2   
    19    8    9 1   
    20    8   27 1   
    21    9   10 1   
    22    9   42 1   
    23   10   11 1   
    24   10   20 2   
    25   11   12 ar  
    26   12   13 ar  
    27   12   43 1   
    28   13   14 ar  
    29   13   17 1   
    30   14   15 1   
    31   15   16 1   
    32   15   44 1   
    33   16   17 2   
    34   16   18 1   
    35   18   19 1   
    36   18   45 1   
    37   19   28 1   
    38   19   46 1   
    39   19   47 1   
    40   21   22 1   
    41   21   26 1   
    42   21   48 1   
    43   22   23 1   
    44   22   49 1   
    45   22   50 1   
    46   23   24 1   
    47   23   51 1   
    48   23   52 1   
    49   24   25 1   
    50   24   53 1   
    51   24   54 1   
    52   25   26 1   
    53   25   55 1   
    54   25   56 1   
    55   26   57 1   
    56   26   58 1   
    57   27   59 1   
    58   27   60 1   
    59   27   69 1   
    60   28   29 1   
    61   28   61 1   
    62   28   62 1   
    63   29   31 ar  
    64   29   33 ar  
    65   30   31 ar  
    66   30   32 ar  
    67   30   63 1   
    68   31   64 1   
    69   32   34 ar  
    70   32   65 1   
    71   33   34 ar  
    72   33   66 1   
    73   34   67 1   
@<TRIPOS>SUBSTRUCTURE
     1 0WY         1 TEMP              0 ****  ****    0 ROOT
