@<TRIPOS>MOLECULE
0WY
   67    61     1     0     0
SMALL
bcc


@<TRIPOS>ATOM
      1 C1          2.6820   -2.0970    2.9580 c3        1 0WY     -0.074000
      2 N1          2.8050   -0.9790    2.0220 n3        1 0WY     -0.298000
      3 C2          1.7260   -1.0430    1.0420 c3        1 0WY     -0.074000
      4 C3          1.3810    0.3880    0.5590 c3        1 0WY     -0.149000
      5 C4         -0.0390    0.4000   -0.0440 c1        1 0WY     -0.074000
      6 C5         -1.0850    0.4710    0.8990 c1        1 0WY      0.080000
      7 N2         -0.9140   -0.1110    2.2270 n1        1 0WY     -0.259000
      8 C6         -2.0160   -0.1040    3.1720 c1        1 0WY      0.217000
      9 N3         -3.2710    0.4750    2.8030 n         1 0WY     -0.347000
     10 C7         -3.4370    1.0370    1.5250 c2        1 0WY      0.357000
     11 C8         -2.2800    1.0630    0.5580 c2        1 0WY     -0.193000
     12 C9         -2.4590    1.6000   -0.7390 c2        1 0WY     -0.008000
     13 C10        -1.4130    1.5290   -1.6840 c1        1 0WY     -0.076000
     14 C11        -0.2190    0.9380   -1.3440 c1        1 0WY      0.009000
     15 N4          0.5520    0.8810   -2.4610 n1        1 0WY     -0.212500
     16 C12        -0.1570    1.4340   -3.4930 c1        1 0WY      0.116000
     17 N5         -1.3680    1.8320   -3.0100 n1        1 0WY     -0.212500
     18 N6         -0.1470    1.8360   -4.8850 n2        1 0WY     -0.261000
     19 C13        -1.3250    2.4440   -5.4720 c3        1 0WY     -0.041000
     20 O1         -4.4940    1.5640    1.2240 o         1 0WY     -0.348000
     21 C14         3.6820   -2.0320    3.8750 c3        1 0WY     -0.107000
     22 C15         3.3180   -1.0420    5.0890 c3        1 0WY     -0.152500
     23 C16         4.4050   -0.9670    6.1400 c3        1 0WY     -0.153000
     24 C17         5.2480   -2.0290    6.0630 c3        1 0WY     -0.154000
     25 C18         4.8760   -3.3020    5.8010 c3        1 0WY     -0.153000
     26 C19         3.7800   -3.3590    4.7420 c3        1 0WY     -0.152500
     27 N7         -1.8470   -0.6820    4.4770 n2        1 0WY     -0.323000
     28 C20        -1.7050    1.6910   -6.7570 c3        1 0WY     -0.129000
     29 C21        -3.2300    1.5860   -6.8580 c2        1 0WY     -0.078000
     30 C22        -5.3210    2.4030   -7.7220 c1        1 0WY     -0.131000
     31 C23        -3.9380    2.4960   -7.6330 c2        1 0WY     -0.128000
     32 C24        -5.9940    1.4020   -7.0380 c1        1 0WY     -0.130000
     33 C25        -3.9030    0.5850   -6.1740 c1        1 0WY     -0.124000
     34 C26        -5.2860    0.4930   -6.2640 c1        1 0WY     -0.130000
     35 H1          2.7450   -2.9440    2.4660 h1        1 0WY      0.071500
     36 H2          1.8170   -2.0470    3.4140 h1        1 0WY      0.071500
     37 H3          2.7540   -0.1900    2.4800 hn        1 0WY      0.148000
     38 H5          0.9380   -1.4480    1.4520 h1        1 0WY      0.094000
     39 H6          2.0120   -1.5860    0.2760 h1        1 0WY      0.094000
     40 H7          2.0270    0.6670   -0.1220 hc        1 0WY      0.093000
     41 H8          1.4190    1.0050    1.3160 hc        1 0WY      0.093000
     42 H9         -3.9630    0.4790    3.3960 hn        1 0WY      0.250000
     43 H10        -3.3060    2.0170   -0.9800 ha        1 0WY      0.174000
     44 H11         1.3920    0.5360   -2.5130 DU        1 0WY      0.250000
     45 H13         0.6170    1.7560   -5.3770 hn        1 0WY      0.200000
     46 H14        -2.0660    2.3980   -4.8370 h1        1 0WY      0.091500
     47 H15        -1.1360    3.3830   -5.6870 h1        1 0WY      0.091500
     48 H16         4.5390   -1.8030    3.4680 hc        1 0WY      0.102000
     49 H17         2.4920   -1.3540    5.5120 hc        1 0WY      0.077250
     50 H18         3.1680   -0.1440    4.7280 hc        1 0WY      0.077250
     51 H19         4.9180   -0.1410    6.0120 hc        1 0WY      0.077500
     52 H20         3.9900   -0.9510    7.0280 hc        1 0WY      0.077500
     53 H21         5.7240   -2.0580    6.9220 hc        1 0WY      0.079000
     54 H22         5.9120   -1.7960    5.3790 hc        1 0WY      0.079000
     55 H23         5.6570   -3.8050    5.4810 hc        1 0WY      0.077500
     56 H24         4.5440   -3.7160    6.6290 hc        1 0WY      0.077500
     57 H25         3.9600   -4.1130    4.1440 hc        1 0WY      0.077250
     58 H26         2.9190   -3.5090    5.1870 hc        1 0WY      0.077250
     59 H27        -2.4970   -0.5680    5.1180 hn        1 0WY      0.206500
     60 H28        -1.0840   -1.1510    4.6760 hn        1 0WY      0.206500
     61 H29        -1.3580    2.1760   -7.5340 hc        1 0WY      0.106000
     62 H30        -1.3170    0.7930   -6.7350 hc        1 0WY      0.106000
     63 H31        -5.8210    3.0430   -8.2680 ha        1 0WY      0.130000
     64 H32        -3.4630    3.2030   -8.1160 ha        1 0WY      0.130000
     65 H33        -6.9690    1.3360   -7.1010 ha        1 0WY      0.131000
     66 H34        -3.4060   -0.0540   -5.6300 ha        1 0WY      0.142000
     67 H35        -5.7620   -0.2140   -5.7800 ha        1 0WY      0.131000
@<TRIPOS>BOND
     1    1    2 1   
     2    1   21 1   
     3    1   35 1   
     4    1   36 1   
     5    2    3 1   
     6    2   37 1   
     7    3    4 1   
     8    3   38 1   
     9    3   39 1   
    10    4    5 1   
    11    4   40 1   
    12    4   41 1   
    13    5   14 1   
    14    6   11 1   
    15    7    8 1   
    16    8    9 1   
    17    9   10 1   
    18    9   42 1   
    19   10   11 1   
    20   10   20 1   
    21   11   12 1   
    22   12   13 1   
    23   12   43 1   
    24   15   16 1   
    25   16   17 1   
    26   18   19 1   
    27   18   45 1   
    28   19   28 1   
    29   19   46 1   
    30   19   47 1   
    31   21   22 1   
    32   21   26 1   
    33   21   48 1   
    34   22   23 1   
    35   22   49 1   
    36   22   50 1   
    37   23   24 1   
    38   23   51 1   
    39   23   52 1   
    40   24   25 1   
    41   24   53 1   
    42   24   54 1   
    43   25   26 1   
    44   25   55 1   
    45   25   56 1   
    46   26   57 1   
    47   26   58 1   
    48   27   59 1   
    49   27   60 1   
    50   28   29 1   
    51   28   61 1   
    52   28   62 1   
    53   29   31 1   
    54   29   33 1   
    55   30   31 1   
    56   30   63 1   
    57   31   64 1   
    58   32   34 1   
    59   32   65 1   
    60   33   66 1   
    61   34   67 1   
@<TRIPOS>SUBSTRUCTURE
     1 0WY         1 TEMP              0 ****  ****    0 ROOT
