@<TRIPOS>MOLECULE
0WY
   70    74     1     0     0
SMALL
bcc


@<TRIPOS>ATOM
      1 C1          0.3580   -0.1880   -1.1010 c3        1 0WY      0.104800
      2 N1          0.1200    0.8710   -0.0620 n4        1 0WY     -0.766000
      3 C2         -1.3290    1.0520    0.2350 c3        1 0WY      0.101800
      4 C3         -1.5990    2.1060    1.3140 c3        1 0WY     -0.045100
      5 C4         -3.0600    2.2240    1.5750 ca        1 0WY     -0.080300
      6 C5         -3.9090    3.0610    0.8070 ca        1 0WY      0.224400
      7 N2         -3.3560    3.8570   -0.2160 nc        1 0WY     -0.631100
      8 C6         -4.1640    4.6800   -0.8710 cd        1 0WY      0.600800
      9 N3         -5.5350    4.8060   -0.7110 n         1 0WY     -0.493400
     10 C7         -6.1880    4.0000    0.2730 c         1 0WY      0.718100
     11 C8         -5.3140    3.1210    1.0790 ca        1 0WY     -0.188600
     12 C9         -5.9200    2.3940    2.1000 ca        1 0WY      0.070000
     13 C10        -5.0930    1.6000    2.9000 ca        1 0WY      0.061400
     14 C11        -3.6630    1.5280    2.6400 ca        1 0WY     -0.005200
     15 N4         -3.1370    0.6580    3.6070 na        1 0WY     -0.267300
     16 C12        -4.2480    0.2880    4.4330 cc        1 0WY      0.454700
     17 N5         -5.4250    0.8090    4.0140 nd        1 0WY     -0.435100
     18 N6         -4.1320   -0.6040    5.5910 n4        1 0WY     -0.696000
     19 C13        -4.2940    0.1460    6.8960 c3        1 0WY      0.111800
     20 O1         -7.4070    4.1060    0.3760 o         1 0WY     -0.470500
     21 C14         1.8420   -0.3540   -1.4400 c3        1 0WY     -0.093700
     22 C15         2.6330   -0.8930   -0.2570 c3        1 0WY     -0.077400
     23 C16         4.0820   -1.1300   -0.6420 c3        1 0WY     -0.079400
     24 C17         4.1930   -2.0550   -1.8350 c3        1 0WY     -0.087400
     25 C18         3.3880   -1.5390   -3.0090 c3        1 0WY     -0.079400
     26 C19         1.9390   -1.3100   -2.6280 c3        1 0WY     -0.077400
     27 N7         -3.5230    5.5740   -1.9020 n4        1 0WY     -0.812600
     28 C20        -4.1890   -0.7960    8.0970 c3        1 0WY     -0.044100
     29 C21        -4.3800    0.0130    9.3310 ca        1 0WY     -0.151300
     30 C22        -3.4540    1.1720   11.2420 ca        1 0WY     -0.112500
     31 C23        -3.2700    0.4570   10.0590 ca        1 0WY     -0.114000
     32 C24        -4.7430    1.4470   11.7010 ca        1 0WY     -0.082000
     33 C25        -5.6730    0.2880    9.7940 ca        1 0WY     -0.114000
     34 C26        -5.8510    1.0040   10.9760 ca        1 0WY     -0.112500
     35 H1         -0.2160    0.1060   -2.0260 hx        1 0WY      0.105700
     36 H2         -0.0560   -1.1590   -0.7040 hx        1 0WY      0.105700
     37 H3          0.5220    1.7560   -0.3920 hn        1 0WY      0.453300
     38 H5         -1.7420    0.0530    0.5570 hx        1 0WY      0.110200
     39 H6         -1.8430    1.3510   -0.7240 hx        1 0WY      0.110200
     40 H7         -1.1810    3.1010    0.9960 hc        1 0WY      0.079200
     41 H8         -1.0590    1.8280    2.2610 hc        1 0WY      0.079200
     42 H9         -6.1000    5.4400   -1.2450 hn        1 0WY      0.379500
     43 H10        -7.0150    2.4540    2.2750 ha        1 0WY      0.226000
     44 H11        -2.1840    0.6020    3.8710 hn        1 0WY      0.325700
     45 H13        -4.8820   -1.3160    5.5260 hn        1 0WY      0.479300
     46 H14        -3.4910    0.9340    6.9420 hx        1 0WY      0.120700
     47 H15        -5.3070    0.6450    6.8830 hx        1 0WY      0.120700
     48 H16         2.2760    0.6380   -1.7520 hc        1 0WY      0.072700
     49 H17         2.6020   -0.1690    0.5990 hc        1 0WY      0.042950
     50 H18         2.1810   -1.8600    0.0900 hc        1 0WY      0.042950
     51 H19         4.5720   -0.1480   -0.8790 hc        1 0WY      0.066700
     52 H20         4.6260   -1.5750    0.2320 hc        1 0WY      0.066700
     53 H21         5.2710   -2.1490   -2.1340 hc        1 0WY      0.070200
     54 H22         3.8350   -3.0810   -1.5530 hc        1 0WY      0.070200
     55 H23         3.8360   -0.5810   -3.3840 hc        1 0WY      0.066700
     56 H24         3.4300   -2.2810   -3.8500 hc        1 0WY      0.066700
     57 H25         1.4620   -2.2900   -2.3610 hc        1 0WY      0.042950
     58 H26         1.3840   -0.8810   -3.5030 hc        1 0WY      0.042950
     59 H27        -3.6870    6.5610   -1.6480 hn        1 0WY      0.495800
     60 H28        -3.9300    5.3850   -2.8300 hn        1 0WY      0.495800
     61 H29        -4.9800   -1.5930    8.0410 hc        1 0WY      0.075700
     62 H30        -3.1870   -1.3010    8.1170 hc        1 0WY      0.075700
     63 H31        -2.5790    1.5100   11.8210 ha        1 0WY      0.161000
     64 H32        -2.2510    0.2250    9.7160 ha        1 0WY      0.130000
     65 H33        -4.8860    2.0050   12.6410 ha        1 0WY      0.166000
     66 H34        -6.5500   -0.0770    9.2400 ha        1 0WY      0.130000
     67 H35        -6.8690    1.2100   11.3450 ha        1 0WY      0.161000
     68 H12         0.6250    0.6050    0.7940 hn        1 0WY      0.453300
     69 H62        -3.2280   -1.0910    5.5830 hn        1 0WY      0.479300
     70 H73        -2.5070    5.4070   -1.9400 hn        1 0WY      0.495800
@<TRIPOS>BOND
     1    1    2 1   
     2    1   21 1   
     3    1   35 1   
     4    1   36 1   
     5    2    3 1   
     6    2   37 1   
     7    2   68 1   
     8    3    4 1   
     9    3   38 1   
    10    3   39 1   
    11    4    5 1   
    12    4   40 1   
    13    4   41 1   
    14    5    6 ar  
    15    5   14 ar  
    16    6    7 1   
    17    6   11 ar  
    18    7    8 2   
    19    8    9 1   
    20    8   27 1   
    21    9   10 1   
    22    9   42 1   
    23   10   11 1   
    24   10   20 2   
    25   11   12 ar  
    26   12   13 ar  
    27   12   43 1   
    28   13   14 ar  
    29   13   17 1   
    30   14   15 1   
    31   15   16 1   
    32   15   44 1   
    33   16   17 2   
    34   16   18 1   
    35   18   19 1   
    36   18   45 1   
    37   18   69 1   
    38   19   28 1   
    39   19   46 1   
    40   19   47 1   
    41   21   22 1   
    42   21   26 1   
    43   21   48 1   
    44   22   23 1   
    45   22   49 1   
    46   22   50 1   
    47   23   24 1   
    48   23   51 1   
    49   23   52 1   
    50   24   25 1   
    51   24   53 1   
    52   24   54 1   
    53   25   26 1   
    54   25   55 1   
    55   25   56 1   
    56   26   57 1   
    57   26   58 1   
    58   27   59 1   
    59   27   60 1   
    60   27   70 1   
    61   28   29 1   
    62   28   61 1   
    63   28   62 1   
    64   29   31 ar  
    65   29   33 ar  
    66   30   31 ar  
    67   30   32 ar  
    68   30   63 1   
    69   31   64 1   
    70   32   34 ar  
    71   32   65 1   
    72   33   34 ar  
    73   33   66 1   
    74   34   67 1   
@<TRIPOS>SUBSTRUCTURE
     1 0WY         1 TEMP              0 ****  ****    0 ROOT
