@<TRIPOS>MOLECULE
0WZ
   30    31     1     0     0
SMALL
bcc


@<TRIPOS>ATOM
      1 C4         -5.0020   -1.2320    0.4250 cc        1 0WZ     -0.329300
      2 C3         -4.1550   -0.1160    0.3830 cd        1 0WZ     -0.118300
      3 N2         -2.8670   -0.5980    0.0990 na        1 0WZ      0.176300
      4 C5         -4.1360   -2.3560    0.1570 cc        1 0WZ      0.282200
      5 N1         -2.8600   -1.9390   -0.0330 nd        1 0WZ     -0.502800
      6 N           2.8240   -1.0750   -1.3750 n3        1 0WZ     -0.888800
      7 CA          3.0810   -0.0660   -0.3570 c3        1 0WZ      0.022500
      8 CB          2.0260   -0.0410    0.7540 c3        1 0WZ     -0.038100
      9 CG          0.7110    0.4930    0.3080 ca        1 0WZ     -0.040300
     10 CD1         0.6160    1.8090   -0.1680 ca        1 0WZ     -0.092000
     11 CE1        -0.6080    2.3270   -0.5650 ca        1 0WZ     -0.197000
     12 CZ         -1.7670    1.5420   -0.4910 ca        1 0WZ      0.078100
     13 OH         -2.9970    2.0600   -0.8570 oh        1 0WZ     -0.519100
     14 CE2        -1.6990    0.2130   -0.0050 ca        1 0WZ     -0.011200
     15 CD2        -0.4410   -0.2930    0.3850 ca        1 0WZ     -0.098000
     16 C           4.4920   -0.1640    0.3210 c         1 0WZ      0.887600
     17 O1          5.3020   -1.0260   -0.1200 o         1 0WZ     -0.838800
     18 H1         -6.0660   -1.2560    0.6160 ha        1 0WZ      0.153000
     19 H2         -4.3540    0.9480    0.5130 h4        1 0WZ      0.188000
     20 H3         -4.4080   -3.4090    0.1000 h4        1 0WZ      0.032100
     21 H7          3.0630    0.9310   -0.8870 h1        1 0WZ      0.040700
     22 H8          1.9010   -1.0680    1.1870 hc        1 0WZ      0.066200
     23 H9          2.4330    0.6230    1.5700 hc        1 0WZ      0.066200
     24 H10         1.5260    2.4270   -0.2270 ha        1 0WZ      0.153000
     25 H11        -0.6790    3.3560   -0.9460 ha        1 0WZ      0.125000
     26 H12        -2.8270    2.8410   -1.4010 ho        1 0WZ      0.415000
     27 H13        -0.3530   -1.3310    0.7470 ha        1 0WZ      0.159000
     28 OXT         4.7400    0.6480    1.2550 o         1 0WZ     -0.838800
     29 H4          3.6720   -1.1800   -1.9090 hn        1 0WZ      0.333300
     30 H5          2.6660   -1.9580   -0.9220 hn        1 0WZ      0.333300
@<TRIPOS>BOND
     1    1    2 2   
     2    1    4 1   
     3    1   18 1   
     4    2    3 1   
     5    2   19 1   
     6    3    5 1   
     7    3   14 1   
     8    4    5 2   
     9    4   20 1   
    10    6    7 1   
    11    6   29 1   
    12    6   30 1   
    13    7    8 1   
    14    7   16 1   
    15    7   21 1   
    16    8    9 1   
    17    8   22 1   
    18    8   23 1   
    19    9   10 ar  
    20    9   15 ar  
    21   10   11 ar  
    22   10   24 1   
    23   11   12 ar  
    24   11   25 1   
    25   12   13 1   
    26   12   14 ar  
    27   13   26 1   
    28   14   15 ar  
    29   15   27 1   
    30   16   17 1   
    31   16   28 1   
@<TRIPOS>SUBSTRUCTURE
     1 0WZ         1 TEMP              0 ****  ****    0 ROOT
