@<TRIPOS>MOLECULE
0WZ
   30    25     1     0     0
SMALL
bcc


@<TRIPOS>ATOM
      1 C4         -3.7240   -0.7200   -2.9780 c1        1 0WZ     -0.264000
      2 C3         -2.3590   -0.6510   -2.8560 c1        1 0WZ     -0.139000
      3 N2         -2.0760    0.0320   -1.7220 n2        1 0WZ     -0.064500
      4 C5         -4.2800   -0.0700   -1.9010 c1        1 0WZ     -0.139000
      5 N1         -3.2720    0.3930   -1.1290 n2        1 0WZ     -0.064500
      6 N           3.0510    0.0570    2.9340 n3        1 0WZ     -0.324000
      7 CA          1.7350   -0.3760    2.6250 c3        1 0WZ     -0.129000
      8 CB          1.7360   -1.0440    1.2750 c3        1 0WZ     -0.119000
      9 CG          1.0790   -0.1330    0.2640 c2        1 0WZ     -0.043000
     10 CD1         1.7790    0.9240   -0.2610 c1        1 0WZ     -0.079000
     11 CE1         1.2130    1.7020   -1.2770 c1        1 0WZ     -0.204000
     12 CZ         -0.0720    1.3990   -1.7590 c1        1 0WZ      0.034000
     13 OH         -0.7080    2.2730   -2.7330 o         1 0WZ     -0.272000
     14 CE2        -0.7700    0.3410   -1.2320 c1        1 0WZ      0.029000
     15 CD2        -0.2030   -0.4340   -0.2180 c2        1 0WZ     -0.097000
     16 C           1.2510   -1.3620    3.6940 c2        1 0WZ      0.308000
     17 O1          1.7200   -2.5630    3.7240 o         1 0WZ     -0.573000
     18 H1         -4.1920   -1.1340   -3.6670 DU        1 0WZ      0.170000
     19 H2         -1.6940   -1.0360   -3.4900 DU        1 0WZ      0.170000
     20 H3         -5.2830    0.0440   -1.7170 DU        1 0WZ      0.170000
     21 H4          3.3930   -0.4600    3.5870 hn        1 0WZ      0.127000
     22 H5          3.0280    0.9360    3.2160 hn        1 0WZ      0.127000
     23 H7          1.1130    0.4250    2.6040 h1        1 0WZ      0.088000
     24 H8          2.6640   -1.2240    1.0000 hc        1 0WZ      0.102500
     25 H9          1.2300   -1.9060    1.3270 hc        1 0WZ      0.102500
     26 H10         2.6960    1.1220    0.0640 ha        1 0WZ      0.152000
     27 H11         1.7060    2.4500   -1.6500 ha        1 0WZ      0.123000
     28 H12        -0.4820    3.1050   -2.5730 ho        1 0WZ      0.213000
     29 H13        -0.7260   -1.1410    0.2020 ha        1 0WZ      0.168000
     30 OXT         0.4480   -0.9500    4.6450 o         1 0WZ     -0.573000
@<TRIPOS>BOND
     1    1    2 1   
     2    1    4 1   
     3    2    3 1   
     4    3    5 1   
     5    4    5 1   
     6    6    7 1   
     7    6   21 1   
     8    6   22 1   
     9    7    8 1   
    10    7   16 1   
    11    7   23 1   
    12    8    9 1   
    13    8   24 1   
    14    8   25 1   
    15    9   10 1   
    16    9   15 1   
    17   10   26 1   
    18   11   12 1   
    19   11   27 1   
    20   12   14 1   
    21   13   28 1   
    22   14   15 1   
    23   15   29 1   
    24   16   17 1   
    25   16   30 1   
@<TRIPOS>SUBSTRUCTURE
     1 0WZ         1 TEMP              0 ****  ****    0 ROOT
