@<TRIPOS>MOLECULE
0X1
   58    62     1     0     0
SMALL
bcc


@<TRIPOS>ATOM
      1 C1          0.0000    0.0000    0.0000 ca        1 0X1     -0.145000
      2 C2          1.3820    0.0000    0.0000 ca        1 0X1      0.116100
      3 C3          1.4060    0.0130    2.4050 ca        1 0X1     -0.095000
      4 C4         -8.4900    1.1650    1.9390 ca        1 0X1      0.432200
      5 C5         -6.4430    0.0100    1.5130 ca        1 0X1     -0.202300
      6 C6         -0.6930    0.0070    1.2140 ca        1 0X1     -0.014000
      7 C7         -7.1370    1.2020    1.6540 ca        1 0X1     -0.148600
      8 C8          0.0170    0.0130    2.4240 ca        1 0X1     -0.127300
      9 C9          2.0820    0.0000    1.2030 ca        1 0X1     -0.131000
     10 C10        -7.1400   -1.1830    1.6670 ca        1 0X1      0.007800
     11 C11        -8.4960   -1.1390    1.9630 ca        1 0X1      0.322600
     12 C12        -2.0440    0.0210    3.6710 cc        1 0X1     -0.060300
     13 C13        -4.9690    0.0090    1.2020 c3        1 0X1      0.028100
     14 C14        -2.1610    0.0070    1.2290 cd        1 0X1     -0.113000
     15 C15        -2.8120    0.0140    2.4180 cc        1 0X1     -0.410400
     16 C16        -9.2630   -2.4230    2.1430 c3        1 0X1     -0.030400
     17 C17        -6.4270    2.5210    1.4970 c3        1 0X1      0.336700
     18 N18        -9.1200    0.0160    2.0830 nb        1 0X1     -0.549000
     19 N19        -4.2060    0.0150    2.4530 ny        1 0X1      0.303600
     20 N20        -0.6630    0.0210    3.6400 n         1 0X1      0.366800
     21 O21        -6.4830    5.4820    0.0850 o         1 0X1     -0.564500
     22 O22        -5.8240    5.4120    2.5200 o         1 0X1     -0.564500
     23 O23        -8.2040    6.0600    1.9860 o         1 0X1     -0.564500
     24 O24        -6.5030   -2.3760    1.5390 oh        1 0X1     -0.506100
     25 C25        -0.2120    0.0270    4.9120 c         1 0X1      0.425300
     26 O26        -7.3580    3.5890    1.6870 os        1 0X1     -0.480200
     27 P27        -6.9430    5.1410    1.5900 p5        1 0X1      0.763900
     28 O28         2.0600   -0.0010   -1.1780 os        1 0X1     -0.225200
     29 C29         1.9790    1.1060   -1.9610 ca        1 0X1      0.142100
     30 C30         2.5420    1.1030   -3.2300 ca        1 0X1     -0.171500
     31 C31         2.4580    2.2300   -4.0250 ca        1 0X1     -0.061000
     32 C32         1.8130    3.3600   -3.5560 ca        1 0X1     -0.144000
     33 C33         1.2510    3.3660   -2.2930 ca        1 0X1     -0.061000
     34 C34         1.3280    2.2400   -1.4970 ca        1 0X1     -0.171500
     35 N35        -1.2840    0.0310    5.7300 ns        1 0X1      0.108100
     36 O36         0.9560    0.0270    5.2600 o         1 0X1     -0.721500
     37 N37        -2.4300    0.0270    4.9230 nd        1 0X1     -0.405600
     38 H1         -0.5420   -0.1070   -0.9320 ha        1 0X1      0.122000
     39 H3          1.9600    0.0130    3.3360 ha        1 0X1      0.153000
     40 H4         -9.0390    2.0920    2.0440 h4        1 0X1      0.040100
     41 H9          3.1650   -0.0000    1.1950 ha        1 0X1      0.116000
     42 H113       -4.7210   -0.8780    0.6320 hx        1 0X1      0.077200
     43 H213       -4.7210    0.8910    0.6230 hx        1 0X1      0.077200
     44 H14        -2.7120   -0.1530    0.3100 ha        1 0X1      0.117000
     45 H116       -9.3220   -2.9450    1.1960 hc        1 0X1      0.010700
     46 H216       -8.7550   -3.0480    2.8680 hc        1 0X1      0.010700
     47 H316      -10.2620   -2.2010    2.4960 hc        1 0X1      0.010700
     48 H117       -6.0020    2.5860    0.5030 h1        1 0X1     -0.009800
     49 H217       -5.6370    2.5960    2.2340 h1        1 0X1     -0.009800
     50 HN19       -4.4890   -0.7900    2.9760 hn        1 0X1      0.208800
     51 HO24       -6.6210   -2.7030    0.6620 ho        1 0X1      0.406000
     52 H30         3.0470    0.2180   -3.5970 ha        1 0X1      0.122500
     53 H31         2.8980    2.2280   -5.0150 ha        1 0X1      0.103000
     54 H32         1.7510    4.2440   -4.1800 ha        1 0X1      0.104000
     55 H33         0.7630    4.2590   -1.9220 ha        1 0X1      0.103000
     56 H34         0.8880    2.2440   -0.5080 ha        1 0X1      0.122500
     57 HN35       -1.2650    0.1390    6.7250 hn        1 0X1      0.219500
     58 H192       -4.4860    0.8270    2.9660 hn        1 0X1      0.208800
@<TRIPOS>BOND
     1    1    2 ar  
     2    1    6 ar  
     3    1   38 1   
     4    2    9 ar  
     5    2   28 1   
     6    3    8 ar  
     7    3    9 ar  
     8    3   39 1   
     9    4    7 ar  
    10    4   18 ar  
    11    4   40 1   
    12    5    7 ar  
    13    5   10 ar  
    14    5   13 1   
    15    6    8 ar  
    16    6   14 1   
    17    7   17 1   
    18    8   20 1   
    19    9   41 1   
    20   10   11 ar  
    21   10   24 1   
    22   11   16 1   
    23   11   18 ar  
    24   12   15 1   
    25   12   20 1   
    26   12   37 2   
    27   13   19 1   
    28   13   42 1   
    29   13   43 1   
    30   14   15 2   
    31   14   44 1   
    32   15   19 1   
    33   16   45 1   
    34   16   46 1   
    35   16   47 1   
    36   17   26 1   
    37   17   48 1   
    38   17   49 1   
    39   19   50 1   
    40   19   58 1   
    41   20   25 1   
    42   21   27 1   
    43   22   27 1   
    44   23   27 1   
    45   24   51 1   
    46   25   35 1   
    47   25   36 2   
    48   26   27 1   
    49   28   29 1   
    50   29   30 ar  
    51   29   34 ar  
    52   30   31 ar  
    53   30   52 1   
    54   31   32 ar  
    55   31   53 1   
    56   32   33 ar  
    57   32   54 1   
    58   33   34 ar  
    59   33   55 1   
    60   34   56 1   
    61   35   37 1   
    62   35   57 1   
@<TRIPOS>SUBSTRUCTURE
     1 0X1         1 TEMP              0 ****  ****    0 ROOT
