@<TRIPOS>MOLECULE
0X1
   57    52     1     0     0
SMALL
bcc


@<TRIPOS>ATOM
      1 C1          3.1250   -0.0410   -1.2790 c1        1 0X1     -0.174000
      2 C2          4.5150    0.1130   -1.2750 c1        1 0X1      0.056000
      3 C3          4.4220    0.9420    1.0080 c1        1 0X1     -0.112000
      4 C4         -5.0230   -1.1150    1.7410 c1        1 0X1     -0.076000
      5 C5         -3.6350    0.7530    1.1860 c1        1 0X1     -0.150000
      6 C6          2.3770    0.2950   -0.1390 c1        1 0X1      0.040000
      7 C7         -4.0490   -0.5300    0.9370 c2        1 0X1     -0.048000
      8 C8          3.0260    0.7880    1.0060 c1        1 0X1      0.012000
      9 C9          5.1650    0.6060   -0.1290 c1        1 0X1     -0.161000
     10 C10        -4.1820    1.4580    2.2260 c1        1 0X1     -0.020000
     11 C11        -5.1570    0.8700    3.0290 c2        1 0X1     -0.133000
     12 C12         0.8410    1.0070    2.2560 c1        1 0X1      0.026000
     13 C13        -2.2440    1.1470    0.6610 c2        1 0X1      0.027000
     14 C14         0.8930    0.1310   -0.1430 c2        1 0X1     -0.292000
     15 C15         0.1320    0.4780    1.0300 c2        1 0X1      0.171000
     16 C16        -6.2000    0.9660    4.1470 c3        1 0X1     -0.152000
     17 C17        -4.4810   -0.9900   -0.4590 c3        1 0X1      0.080000
     18 N18        -5.5690   -0.4100    2.7790 n2        1 0X1     -0.138000
     19 N19        -1.2740    0.1710    1.0890 n3        1 0X1     -0.267000
     20 N20         2.2150    1.1560    2.2520 n2        1 0X1     -0.199000
     21 O21        -5.8420   -4.4270   -1.4710 o         1 0X1     -0.911833
     22 O22        -7.2770   -2.4860   -0.9480 o         1 0X1     -0.911833
     23 O23        -5.6560   -2.3590   -2.8080 o         1 0X1     -0.911833
     24 O24        -3.8110    2.8070    2.4380 o         1 0X1     -0.292000
     25 C25         2.5980    1.0290    3.7200 c2        1 0X1      0.321000
     26 O26        -4.8010   -2.3700   -0.4240 os        1 0X1     -0.714000
     27 P27        -5.9070   -2.9170   -1.4250 p5        1 0X1      1.548500
     28 O28         5.6760    0.5240   -1.9810 os        1 0X1     -0.169000
     29 C29         5.6850   -0.0720   -3.2640 c2        1 0X1      0.064000
     30 C30         6.2130   -1.3460   -3.4330 c2        1 0X1     -0.170000
     31 C31         6.2840   -1.9070   -4.7040 c1        1 0X1     -0.095000
     32 C32         5.8260   -1.1920   -5.8060 c1        1 0X1     -0.154000
     33 C33         5.2980    0.0820   -5.6370 c1        1 0X1     -0.116000
     34 C34         5.2270    0.6430   -4.3660 c2        1 0X1     -0.155000
     35 N35         1.2460    0.7960    4.4450 n         1 0X1     -0.228000
     36 O36         3.6990    0.7370    4.1490 o         1 0X1     -0.354000
     37 N37         0.3310    0.8130    3.4420 n2        1 0X1     -0.100000
     38 H1          2.6720   -0.3850   -2.0790 ha        1 0X1      0.159000
     39 H3          4.8760    1.2860    1.8070 ha        1 0X1      0.160000
     40 H4         -5.3190   -2.0330    1.5630 DU        1 0X1      0.218500
     41 H9          6.1420    0.7140   -0.1260 ha        1 0X1      0.141000
     42 H113       -2.2620    1.1810   -0.3210 h4        1 0X1      0.097500
     43 H213       -1.9980    2.0300    1.0150 h4        1 0X1      0.097500
     44 H14         0.4310   -0.1350   -0.9670 ha        1 0X1      0.163000
     45 H116       -6.2090    1.8790    4.5090 hc        1 0X1      0.066000
     46 H216       -7.0890    0.7470    3.7870 hc        1 0X1      0.066000
     47 H316       -5.9710    0.3320    4.8640 hc        1 0X1      0.066000
     48 H117       -5.2710   -0.4780   -0.7430 h1        1 0X1      0.064500
     49 H217       -3.7480   -0.8410   -1.0950 h1        1 0X1      0.064500
     50 HN19       -1.5520   -0.6450    1.4020 hn        1 0X1      0.256000
     51 HO24       -4.4090    3.3440    2.0500 ho        1 0X1      0.200000
     52 H30         6.5360   -1.8500   -2.6560 ha        1 0X1      0.158000
     53 H31         6.6580   -2.8070   -4.8240 ha        1 0X1      0.147000
     54 H32         5.8760   -1.5870   -6.7020 ha        1 0X1      0.132000
     55 H33         4.9750    0.5860   -6.4150 DU        1 0X1      0.218500
     56 H34         4.8980    1.5610   -4.2530 ha        1 0X1      0.139000
     57 HN35        1.0770    0.9530    5.3320 hn        1 0X1      0.245000
@<TRIPOS>BOND
     1    1    6 1   
     2    1   38 1   
     3    2    9 1   
     4    2   28 1   
     5    3    8 1   
     6    3   39 1   
     7    4    7 1   
     8    4   18 1   
     9    5    7 1   
    10    5   10 1   
    11    6   14 1   
    12    7   17 1   
    13    8   20 1   
    14    9   41 1   
    15   10   11 1   
    16   11   16 1   
    17   11   18 1   
    18   12   15 1   
    19   12   37 1   
    20   13   19 1   
    21   13   42 1   
    22   13   43 1   
    23   14   15 1   
    24   14   44 1   
    25   15   19 1   
    26   16   45 1   
    27   16   46 1   
    28   16   47 1   
    29   17   26 1   
    30   17   48 1   
    31   17   49 1   
    32   19   50 1   
    33   20   25 1   
    34   21   27 1   
    35   22   27 1   
    36   23   27 1   
    37   24   51 1   
    38   25   35 1   
    39   25   36 1   
    40   26   27 1   
    41   28   29 1   
    42   29   30 1   
    43   29   34 1   
    44   30   31 1   
    45   30   52 1   
    46   31   53 1   
    47   32   33 1   
    48   32   54 1   
    49   33   34 1   
    50   34   56 1   
    51   35   37 1   
    52   35   57 1   
@<TRIPOS>SUBSTRUCTURE
     1 0X1         1 TEMP              0 ****  ****    0 ROOT
