@<TRIPOS>MOLECULE
0X1
   57    61     1     0     0
SMALL
bcc


@<TRIPOS>ATOM
      1 C1         -3.4750   -0.7530    0.8600 ca        1 0X1     -0.090000
      2 C2         -4.2960   -0.0980   -0.0510 ca        1 0X1      0.047100
      3 C3         -3.0580   -0.9910   -1.9150 ca        1 0X1     -0.119000
      4 C4          3.8250    0.3510    0.5570 ca        1 0X1      0.393200
      5 C5          2.6310   -1.2280    1.9390 ca        1 0X1     -0.182300
      6 C6         -2.3920   -1.5130    0.3920 ca        1 0X1     -0.077000
      7 C7          2.5900   -0.1320    1.0710 ca        1 0X1     -0.108600
      8 C8         -2.1600   -1.6090   -1.0100 ca        1 0X1      0.118700
      9 C9         -4.1120   -0.2340   -1.4370 ca        1 0X1     -0.098000
     10 C10         3.8930   -1.7830    2.2440 ca        1 0X1     -0.009200
     11 C11         5.0730   -1.2210    1.7030 ca        1 0X1      0.334600
     12 C12         0.0200   -2.6120   -0.5390 cc        1 0X1     -0.014300
     13 C13         1.3840   -1.8070    2.5400 c3        1 0X1      0.207100
     14 C14        -1.4340   -2.0540    1.3260 cd        1 0X1     -0.103000
     15 C15        -0.2320   -2.5540    0.9100 cc        1 0X1      0.102600
     16 C16         6.3920   -1.8100    2.0790 c3        1 0X1     -0.117400
     17 C17         1.3110    0.5740    0.6890 c3        1 0X1      0.263700
     18 N18         5.0230   -0.1550    0.8600 nb        1 0X1     -0.671000
     19 N19         0.7900   -2.9310    1.8230 nh        1 0X1     -0.700600
     20 N20        -1.0600   -2.3450   -1.4580 n         1 0X1     -0.109200
     21 O21        -0.9550    1.6430   -0.7760 o         1 0X1     -0.934833
     22 O22         0.4600   -0.0050   -2.0470 o         1 0X1     -0.934833
     23 O23         0.7650    2.5030   -2.4930 o         1 0X1     -0.934833
     24 O24         4.0560   -2.8610    3.0970 oh        1 0X1     -0.527100
     25 C25        -0.3730   -2.1530   -2.7420 c         1 0X1      0.715300
     26 O26         1.5020    1.4870   -0.3110 os        1 0X1     -0.557200
     27 P27         0.3020    1.4260   -1.5710 p5        1 0X1      1.362900
     28 O28        -5.3450    0.6980    0.4250 os        1 0X1     -0.282200
     29 C29        -5.0210    2.0490    0.5600 ca        1 0X1      0.101100
     30 C30        -6.0690    2.8520    1.0390 ca        1 0X1     -0.168000
     31 C31        -5.8490    4.2170    1.2080 ca        1 0X1     -0.116500
     32 C32        -4.6070    4.7730    0.9040 ca        1 0X1     -0.187000
     33 C33        -3.5750    3.9620    0.4280 ca        1 0X1     -0.116500
     34 C34        -3.7650    2.5920    0.2500 ca        1 0X1     -0.168000
     35 N35         1.0350   -2.5400   -2.5020 n         1 0X1     -0.200900
     36 O36        -0.9320   -2.0050   -3.8330 o         1 0X1     -0.629500
     37 N37         1.1960   -2.7600   -1.1610 nd        1 0X1     -0.244600
     38 H1         -3.6350   -0.6270    1.9390 ha        1 0X1      0.127000
     39 H3         -2.8560   -1.0460   -2.9980 ha        1 0X1      0.171000
     40 H4          3.7890    1.2010   -0.1580 h4        1 0X1      0.073100
     41 H9         -4.7730    0.3060   -2.1290 ha        1 0X1      0.131000
     42 H113        1.6160   -2.1890    3.5780 h1        1 0X1      0.054700
     43 H213        0.6200   -0.9830    2.6500 h1        1 0X1      0.054700
     44 H14        -1.6700   -1.9600    2.3970 ha        1 0X1      0.125000
     45 H116        6.2950   -2.9210    2.1590 hc        1 0X1      0.031033
     46 H216        7.1860   -1.5670    1.3310 hc        1 0X1      0.031033
     47 H316        6.7070   -1.4130    3.0750 hc        1 0X1      0.031033
     48 H117        0.5400   -0.1970    0.3900 h1        1 0X1      0.014200
     49 H217        0.9570    1.0860    1.6400 h1        1 0X1      0.014200
     50 HN19        1.5020   -3.4620    1.3540 hn        1 0X1      0.379800
     51 HO24        3.2370   -3.3740    3.0750 ho        1 0X1      0.411000
     52 H30        -7.0410    2.4000    1.2730 ha        1 0X1      0.195500
     53 H31        -6.6620    4.8540    1.5830 ha        1 0X1      0.130500
     54 H32        -4.4420    5.8500    1.0380 ha        1 0X1      0.106000
     55 H33        -2.5880    4.3860    0.1810 ha        1 0X1      0.130500
     56 H34        -2.9070    1.9760   -0.1340 ha        1 0X1      0.195500
     57 HN35        1.6290   -1.7520   -2.7820 hn        1 0X1      0.350500
@<TRIPOS>BOND
     1    1    2 ar  
     2    1    6 ar  
     3    1   38 1   
     4    2    9 ar  
     5    2   28 1   
     6    3    8 ar  
     7    3    9 ar  
     8    3   39 1   
     9    4    7 ar  
    10    4   18 ar  
    11    4   40 1   
    12    5    7 ar  
    13    5   10 ar  
    14    5   13 1   
    15    6    8 ar  
    16    6   14 1   
    17    7   17 1   
    18    8   20 1   
    19    9   41 1   
    20   10   11 ar  
    21   10   24 1   
    22   11   16 1   
    23   11   18 ar  
    24   12   15 1   
    25   12   20 1   
    26   12   37 2   
    27   13   19 1   
    28   13   42 1   
    29   13   43 1   
    30   14   15 2   
    31   14   44 1   
    32   15   19 1   
    33   16   45 1   
    34   16   46 1   
    35   16   47 1   
    36   17   26 1   
    37   17   48 1   
    38   17   49 1   
    39   19   50 1   
    40   20   25 1   
    41   21   27 1   
    42   22   27 1   
    43   23   27 1   
    44   24   51 1   
    45   25   35 1   
    46   25   36 2   
    47   26   27 1   
    48   28   29 1   
    49   29   30 ar  
    50   29   34 ar  
    51   30   31 ar  
    52   30   52 1   
    53   31   32 ar  
    54   31   53 1   
    55   32   33 ar  
    56   32   54 1   
    57   33   34 ar  
    58   33   55 1   
    59   34   56 1   
    60   35   37 1   
    61   35   57 1   
@<TRIPOS>SUBSTRUCTURE
     1 0X1         1 TEMP              0 ****  ****    0 ROOT
