@<TRIPOS>MOLECULE
0X1
   57    61     1     0     0
SMALL
bcc


@<TRIPOS>ATOM
      1 C1          0.0480   -0.3350    0.3720 ca        1 0X1     -0.091000
      2 C2          1.0400    0.6340    0.4740 ca        1 0X1      0.046100
      3 C3          0.3100    1.2480    2.6860 ca        1 0X1     -0.118000
      4 C4         -6.9280    1.6330    1.5810 ca        1 0X1      0.397200
      5 C5         -6.0900   -0.6070    1.2470 ca        1 0X1     -0.138300
      6 C6         -0.8660   -0.5020    1.4240 ca        1 0X1     -0.075000
      7 C7         -5.8730    0.7710    1.1690 ca        1 0X1     -0.111600
      8 C8         -0.7540    0.3190    2.5830 ca        1 0X1      0.116700
      9 C9          1.1940    1.4090    1.6350 ca        1 0X1     -0.099000
     10 C10        -7.3400   -1.0500    1.7330 ca        1 0X1     -0.009200
     11 C11        -8.3380   -0.1220    2.1010 ca        1 0X1      0.287600
     12 C12        -2.9430   -0.4900    3.3140 cc        1 0X1     -0.014300
     13 C13        -5.0600   -1.6220    0.8440 c3        1 0X1      0.221100
     14 C14        -1.9950   -1.3890    1.2670 cd        1 0X1     -0.107000
     15 C15        -3.0410   -1.3810    2.1460 cc        1 0X1      0.103600
     16 C16        -9.6520   -0.6190    2.6050 c3        1 0X1     -0.129400
     17 C17        -4.5880    1.3800    0.6600 c3        1 0X1      0.263700
     18 N18        -8.1180    1.2200    2.0250 nb        1 0X1     -0.668000
     19 N19        -4.2210   -2.1370    1.9200 nh        1 0X1     -0.694600
     20 N20        -1.6890    0.1590    3.6100 n         1 0X1     -0.110200
     21 O21        -2.0630    2.8770    0.6110 o         1 0X1     -0.934500
     22 O22        -3.1060    2.5260    2.8770 o         1 0X1     -0.934500
     23 O23        -3.3980    4.7900    1.7080 o         1 0X1     -0.934500
     24 O24        -7.5540   -2.4170    1.7870 oh        1 0X1     -0.519100
     25 C25        -2.0620    1.1900    4.5870 c         1 0X1      0.715300
     26 O26        -4.5560    2.7360    0.8350 os        1 0X1     -0.558200
     27 P27        -3.1060    3.3320    1.5930 p5        1 0X1      1.362900
     28 O28         1.9210    0.8230   -0.5980 os        1 0X1     -0.282200
     29 C29         1.5400    1.8340   -1.4810 ca        1 0X1      0.101100
     30 C30         2.4200    2.0260   -2.5590 ca        1 0X1     -0.168500
     31 C31         2.1300    3.0130   -3.4980 ca        1 0X1     -0.117500
     32 C32         0.9850    3.7950   -3.3660 ca        1 0X1     -0.187000
     33 C33         0.1190    3.5930   -2.2890 ca        1 0X1     -0.117500
     34 C34         0.3820    2.6120   -1.3340 ca        1 0X1     -0.168500
     35 N35        -3.4710    0.9130    4.9390 n         1 0X1     -0.202900
     36 O36        -1.2680    1.9150    5.1950 o         1 0X1     -0.630500
     37 N37        -3.9340   -0.0740    4.1130 nd        1 0X1     -0.245600
     38 H1         -0.0580   -0.9240   -0.5490 ha        1 0X1      0.127000
     39 H3          0.3730    1.9010    3.5740 ha        1 0X1      0.170000
     40 H4         -6.7430    2.7280    1.5470 h4        1 0X1      0.074100
     41 H9          1.9820    2.1740    1.6780 ha        1 0X1      0.131000
     42 H113       -5.5930   -2.5220    0.4170 h1        1 0X1      0.057700
     43 H213       -4.4050   -1.1820    0.0390 h1        1 0X1      0.057700
     44 H14        -2.0220   -2.0100    0.3590 ha        1 0X1      0.126000
     45 H116       -9.5140   -1.1110    3.6010 hc        1 0X1      0.029033
     46 H216      -10.3940    0.2070    2.7240 hc        1 0X1      0.029033
     47 H316      -10.0710   -1.3720    1.8910 hc        1 0X1      0.029033
     48 H117       -3.7170    0.8820    1.1820 h1        1 0X1      0.015200
     49 H217       -4.5460    1.1180   -0.4440 h1        1 0X1      0.015200
     50 HN19       -4.7580   -2.2280    2.7640 hn        1 0X1      0.382800
     51 HO24       -8.1810   -2.5760    2.5060 ho        1 0X1      0.400000
     52 H30         3.3180    1.4020   -2.6480 ha        1 0X1      0.196000
     53 H31         2.8120    3.1710   -4.3450 ha        1 0X1      0.129500
     54 H32         0.7630    4.5730   -4.1100 ha        1 0X1      0.105000
     55 H33        -0.7900    4.2050   -2.1690 ha        1 0X1      0.129500
     56 H34        -0.3420    2.4810   -0.4840 ha        1 0X1      0.196000
     57 HN35       -4.0100    1.7680    4.7690 hn        1 0X1      0.349500
@<TRIPOS>BOND
     1    1    2 ar  
     2    1    6 ar  
     3    1   38 1   
     4    2    9 ar  
     5    2   28 1   
     6    3    8 ar  
     7    3    9 ar  
     8    3   39 1   
     9    4    7 ar  
    10    4   18 ar  
    11    4   40 1   
    12    5    7 ar  
    13    5   10 ar  
    14    5   13 1   
    15    6    8 ar  
    16    6   14 1   
    17    7   17 1   
    18    8   20 1   
    19    9   41 1   
    20   10   11 ar  
    21   10   24 1   
    22   11   16 1   
    23   11   18 ar  
    24   12   15 1   
    25   12   20 1   
    26   12   37 2   
    27   13   19 1   
    28   13   42 1   
    29   13   43 1   
    30   14   15 2   
    31   14   44 1   
    32   15   19 1   
    33   16   45 1   
    34   16   46 1   
    35   16   47 1   
    36   17   26 1   
    37   17   48 1   
    38   17   49 1   
    39   19   50 1   
    40   20   25 1   
    41   21   27 1   
    42   22   27 1   
    43   23   27 1   
    44   24   51 1   
    45   25   35 1   
    46   25   36 2   
    47   26   27 1   
    48   28   29 1   
    49   29   30 ar  
    50   29   34 ar  
    51   30   31 ar  
    52   30   52 1   
    53   31   32 ar  
    54   31   53 1   
    55   32   33 ar  
    56   32   54 1   
    57   33   34 ar  
    58   33   55 1   
    59   34   56 1   
    60   35   37 1   
    61   35   57 1   
@<TRIPOS>SUBSTRUCTURE
     1 0X1         1 TEMP              0 ****  ****    0 ROOT
