@<TRIPOS>MOLECULE
0X2
   26    21     1     0     0
SMALL
bcc


@<TRIPOS>ATOM
      1 C4          1.5320    0.4180    1.0140 c1        1 0X2     -0.126000
      2 C5          2.9140    0.3570    0.9240 c1        1 0X2     -0.027000
      3 C6          3.6960    0.7370    2.0030 c2        1 0X2     -0.128000
      4 C11        -2.7690   -2.4020   -2.2910 c1        1 0X2      0.286000
      5 C7          0.6770   -0.0420   -0.1460 c1        1 0X2      0.361000
      6 C8         -1.5400   -0.4550   -1.1220 c1        1 0X2      0.078000
      7 C9         -2.1970    0.5280   -2.0730 c2        1 0X2     -0.183000
      8 C10        -2.8630   -0.1430   -3.2850 c2        1 0X2     -0.017000
      9 C12        -1.8210   -1.9170   -1.2510 c2        1 0X2     -0.285000
     10 N1         -0.7380    0.0210   -0.0530 n2        1 0X2     -0.320000
     11 N2         -3.3780   -1.4810   -3.1740 n1        1 0X2     -0.190000
     12 C3          0.9320    0.8600    2.1840 c2        1 0X2     -0.027000
     13 O2         -3.0680   -3.5780   -2.3390 o         1 0X2     -0.254000
     14 O1          1.2010   -0.5030   -1.1400 o         1 0X2     -0.291000
     15 CL2        -0.6280    1.2290    2.8680 cl        1 0X2      0.019000
     16 C2          1.7150    1.2400    3.2630 c1        1 0X2     -0.128000
     17 CL1         3.6680   -0.1640   -0.5590 cl        1 0X2      0.019000
     18 C1          3.0970    1.1790    3.1720 c1        1 0X2     -0.094000
     19 H1          4.6700    0.6940    1.9390 ha        1 0X2      0.159000
     20 H2         -1.6690    1.3090   -2.3340 ha        1 0X2      0.126000
     21 H3         -2.8950    0.9680   -1.5470 ha        1 0X2      0.126000
     22 H4         -2.9460    0.3430   -4.1280 h4        1 0X2      0.158000
     23 H5         -1.3990   -2.5510   -0.6400 ha        1 0X2      0.197000
     24 H6         -1.1310    0.3550    0.6970 hn        1 0X2      0.236000
     25 H7          1.2930    1.5510    4.0860 ha        1 0X2      0.159000
     26 H8          3.6480    1.4470    3.9320 ha        1 0X2      0.150000
@<TRIPOS>BOND
     1    1    2 1   
     2    1   12 1   
     3    2    3 1   
     4    3   18 1   
     5    3   19 1   
     6    4    9 1   
     7    4   13 1   
     8    5   14 1   
     9    6    9 1   
    10    6   10 1   
    11    7    8 1   
    12    7   20 1   
    13    7   21 1   
    14    8   11 1   
    15    8   22 1   
    16    9   23 1   
    17   10   24 1   
    18   12   15 1   
    19   12   16 1   
    20   16   25 1   
    21   18   26 1   
@<TRIPOS>SUBSTRUCTURE
     1 0X2         1 TEMP              0 ****  ****    0 ROOT
