@<TRIPOS>MOLECULE
0X2
   27    27     1     0     0
SMALL
bcc


@<TRIPOS>ATOM
      1 C4         -0.3540   -0.3220    0.0420 ce        1 0X2     -0.286400
      2 C5          1.0720   -0.9120   -0.1180 c3        1 0X2      0.206000
      3 C6          1.4320   -1.1690    1.2460 c1        1 0X2     -0.139100
      4 C11        -2.8820   -2.1610   -3.4420 c         1 0X2      0.685300
      5 C7         -0.9170    0.2590   -1.1840 c         1 0X2      0.582300
      6 C8         -1.3840   -0.1330   -3.6280 c2        1 0X2      0.050800
      7 C9         -0.9980    1.1360   -4.3150 c3        1 0X2     -0.096900
      8 C10        -4.9810   -3.3030   -4.3840 c1        1 0X2      0.657800
      9 C12        -2.4200   -0.8830   -4.0560 ce        1 0X2     -0.176200
     10 N1         -0.5590   -0.4940   -2.4670 ny        1 0X2     -0.588600
     11 N2         -4.0090   -2.7450   -3.9700 n1        1 0X2     -0.752800
     12 C3         -1.0460   -0.2560    1.2290 c2        1 0X2      0.139200
     13 O1         -1.5850    1.2700   -1.3230 o         1 0X2     -0.395100
     14 Cl2        -2.6380    0.2810    1.3170 cl        1 0X2      0.014600
     15 C2         -0.5040   -0.6600    2.6210 c3        1 0X2      0.042900
     16 Cl1         2.1220    0.2110   -0.9730 cl        1 0X2     -0.134400
     17 C1          0.8290   -1.0950    2.2980 c1        1 0X2     -0.062100
     18 H1          1.0540   -1.8560   -0.7280 h1        1 0X2      0.100700
     19 H2          0.0780    1.1210   -4.6240 hc        1 0X2      0.094367
     20 H3         -1.1700    2.0120   -3.6350 hc        1 0X2      0.094367
     21 H4         -1.6210    1.2800   -5.2350 hc        1 0X2      0.094367
     22 H5         -2.9810   -0.5360   -4.9480 ha        1 0X2      0.204000
     23 H6         -0.6440   -1.5090   -2.2740 hn        1 0X2      0.482800
     24 H7         -1.1440   -1.4700    3.0670 hc        1 0X2      0.131200
     25 H8         -0.5270    0.2340    3.3040 hc        1 0X2      0.131200
     26 H12         0.4280   -0.2780   -2.6880 hn        1 0X2      0.482800
     27 O2         -2.2730   -2.6850   -2.4920 o         1 0X2     -0.561100
@<TRIPOS>BOND
     1    1    2 1   
     2    1    5 1   
     3    1   12 2   
     4    2    3 1   
     5    2   16 1   
     6    2   18 1   
     7    3   17 3   
     8    4    9 1   
     9    4   11 1   
    10    4   27 2   
    11    5   10 1   
    12    5   13 2   
    13    6    7 1   
    14    6    9 2   
    15    6   10 1   
    16    7   19 1   
    17    7   20 1   
    18    7   21 1   
    19    8   11 3   
    20    9   22 1   
    21   10   23 1   
    22   10   26 1   
    23   12   14 1   
    24   12   15 1   
    25   15   17 1   
    26   15   24 1   
    27   15   25 1   
@<TRIPOS>SUBSTRUCTURE
     1 0X2         1 TEMP              0 ****  ****    0 ROOT
