@<TRIPOS>MOLECULE
0X2
   27    27     1     0     0
SMALL
bcc


@<TRIPOS>ATOM
      1 C4         -0.3290   -0.3240    0.0320 ce        1 0X2     -0.286400
      2 C5          1.0660   -0.9830   -0.1280 c3        1 0X2      0.206000
      3 C6          1.4250   -1.2350    1.2370 c1        1 0X2     -0.139100
      4 C11        -2.9720   -2.1000   -3.3980 c         1 0X2      0.685300
      5 C7         -0.8740    0.2620   -1.1990 c         1 0X2      0.582300
      6 C8         -1.3810   -0.1480   -3.6320 c2        1 0X2      0.050800
      7 C9         -0.9420    1.0880   -4.3450 c3        1 0X2     -0.096900
      8 C10        -5.1320   -3.1560   -4.3020 c1        1 0X2      0.657800
      9 C12        -2.4560   -0.8560   -4.0380 ce        1 0X2     -0.176200
     10 N1         -0.5640   -0.5290   -2.4710 n4        1 0X2     -0.588600
     11 N2         -4.1300   -2.6380   -3.9060 n1        1 0X2     -0.752800
     12 C3         -1.0070   -0.2060    1.2230 c2        1 0X2      0.139200
     13 O1         -1.4950    1.3010   -1.3510 o         1 0X2     -0.395100
     14 CL2        -2.5700    0.4080    1.3150 cl        1 0X2      0.014600
     15 C2         -0.4720   -0.6120    2.6180 c3        1 0X2      0.042900
     16 CL1         2.1600    0.0730   -1.0110 cl        1 0X2     -0.134400
     17 C1          0.8350   -1.1150    2.2920 c1        1 0X2     -0.062100
     18 H1          0.9990   -1.9360   -0.7220 h1        1 0X2      0.100700
     19 H2          0.1300    1.0160   -4.6620 hc        1 0X2      0.094367
     20 H3         -1.0650    1.9830   -3.6790 hc        1 0X2      0.094367
     21 H4         -1.5650    1.2460   -5.2610 hc        1 0X2      0.094367
     22 H5         -3.0070   -0.4980   -4.9310 ha        1 0X2      0.204000
     23 H6         -0.6950   -1.5360   -2.2600 hn        1 0X2      0.482800
     24 H7         -1.1460   -1.3830    3.0820 hc        1 0X2      0.131200
     25 H8         -0.4470    0.2940    3.2860 hc        1 0X2      0.131200
     26 H12         0.4300   -0.3640   -2.7040 hn        1 0X2      0.482800
     27 O2         -2.3800   -2.6350   -2.4430 o         1 0X2     -0.561100
@<TRIPOS>BOND
     1    1    2 1   
     2    1    5 1   
     3    1   12 2   
     4    2    3 1   
     5    2   16 1   
     6    2   18 1   
     7    3   17 3   
     8    4    9 1   
     9    4   11 1   
    10    4   27 2   
    11    5   10 1   
    12    5   13 2   
    13    6    7 1   
    14    6    9 2   
    15    6   10 1   
    16    7   19 1   
    17    7   20 1   
    18    7   21 1   
    19    8   11 3   
    20    9   22 1   
    21   10   23 1   
    22   10   26 1   
    23   12   14 1   
    24   12   15 1   
    25   15   17 1   
    26   15   24 1   
    27   15   25 1   
@<TRIPOS>SUBSTRUCTURE
     1 0X2         1 TEMP              0 ****  ****    0 ROOT
