@<TRIPOS>MOLECULE
0X2
   26    27     1     0     0
SMALL
bcc


@<TRIPOS>ATOM
      1 C4          1.7830   -0.0370    0.1260 ca        1 0X2     -0.146600
      2 C5          2.4810    1.1480   -0.1450 ca        1 0X2      0.052400
      3 C6          3.8100    1.1030   -0.5790 ca        1 0X2     -0.126000
      4 C11        -4.3270    0.0630   -0.9290 c         1 0X2      0.692700
      5 C7          0.3820    0.0140    0.6510 c         1 0X2      0.691700
      6 C8         -1.9890    0.0400   -0.0970 c2        1 0X2      0.104400
      7 C9         -2.4950    0.1030    1.3160 c3        1 0X2     -0.169500
      8 C10        -3.9890    0.1390    1.3870 c2        1 0X2      0.480200
      9 C12        -2.8670    0.0220   -1.1380 ce        1 0X2     -0.349200
     10 N1         -0.6100    0.0010   -0.3250 n         1 0X2     -0.475100
     11 N2         -4.8280    0.1230    0.4150 ne        1 0X2     -0.624100
     12 C3          2.4260   -1.2690   -0.0570 ca        1 0X2      0.052400
     13 O1          0.1350    0.0630    1.8660 o         1 0X2     -0.555100
     14 CL2         1.6000   -2.7200    0.2430 cl        1 0X2     -0.059400
     15 C2          3.7560   -1.3160   -0.4900 ca        1 0X2     -0.126000
     16 CL1         1.7210    2.6520    0.0460 cl        1 0X2     -0.059400
     17 C1          4.4400   -0.1290   -0.7460 ca        1 0X2     -0.092000
     18 H1          4.3560    2.0370   -0.7840 ha        1 0X2      0.160000
     19 H2         -2.1200   -0.7880    1.8960 hc        1 0X2      0.111700
     20 H3         -2.0790    1.0150    1.8310 hc        1 0X2      0.111700
     21 H4         -4.4060    0.1860    2.4150 h4        1 0X2      0.031800
     22 H5         -2.5520   -0.0230   -2.1920 ha        1 0X2      0.159000
     23 H6         -0.3200   -0.0410   -1.2790 hn        1 0X2      0.332500
     24 H7          4.2590   -2.2860   -0.6260 ha        1 0X2      0.160000
     25 H8          5.4880   -0.1650   -1.0840 ha        1 0X2      0.151000
     26 O2         -5.1170    0.0460   -1.8830 o         1 0X2     -0.507100
@<TRIPOS>BOND
     1    1    2 ar  
     2    1    5 1   
     3    1   12 ar  
     4    2    3 ar  
     5    2   16 1   
     6    3   17 ar  
     7    3   18 1   
     8    4    9 1   
     9    4   11 1   
    10    4   26 2   
    11    5   10 1   
    12    5   13 2   
    13    6    7 1   
    14    6    9 2   
    15    6   10 1   
    16    7    8 1   
    17    7   19 1   
    18    7   20 1   
    19    8   11 2   
    20    8   21 1   
    21    9   22 1   
    22   10   23 1   
    23   12   14 1   
    24   12   15 ar  
    25   15   17 ar  
    26   15   24 1   
    27   17   25 1   
@<TRIPOS>SUBSTRUCTURE
     1 0X2         1 TEMP              0 ****  ****    0 ROOT
