@<TRIPOS>MOLECULE
0X3
   27    29     1     0     0
SMALL
bcc


@<TRIPOS>ATOM
      1 CL1        -3.9660    2.2260   -1.2030 cl        1 0X3     -0.064400
      2 CAH        -3.4230    0.7930   -0.4740 ca        1 0X3      0.058400
      3 CAG        -2.0670    0.4660   -0.5450 ca        1 0X3     -0.170000
      4 CAI        -4.3400   -0.0330    0.1750 ca        1 0X3     -0.170000
      5 CAQ        -3.8740   -1.2200    0.7690 ca        1 0X3      0.162900
      6 FAR        -4.7480   -2.0390    1.3990 f         1 0X3     -0.124900
      7 CAP        -2.5140   -1.5690    0.7230 ca        1 0X3     -0.190000
      8 CAO        -1.6030   -0.7180    0.0650 ca        1 0X3      0.163600
      9 NAN        -0.2510   -1.1110   -0.0220 nh        1 0X3     -0.635000
     10 CAM         0.8250   -0.2770    0.1630 ca        1 0X3      0.305600
     11 CAL         2.1290   -0.6450   -0.2200 ca        1 0X3     -0.270200
     12 NAT         2.4550   -1.9290   -0.8710 no        1 0X3      0.334200
     13 OAS         1.7720   -2.8990   -0.6370 o         1 0X3     -0.209500
     14 OAU         3.3830   -1.9900   -1.6260 o         1 0X3     -0.209500
     15 CAF         0.6080    1.0340    0.7800 ca        1 0X3     -0.174000
     16 CAE         1.5950    1.9310    1.0140 ca        1 0X3     -0.010000
     17 CAD         2.9330    1.5920    0.6490 ca        1 0X3     -0.145000
     18 CAK         3.2050    0.2680    0.0260 ca        1 0X3     -0.053000
     19 NAC         4.1290    2.2130    0.7540 nc        1 0X3     -0.061500
     20 OAB         5.0320    1.3820    0.2630 os        1 0X3      0.204000
     21 NAJ         4.5420    0.2220   -0.1780 nc        1 0X3     -0.073500
     22 HAG        -1.3710    1.1260   -1.0870 ha        1 0X3      0.164000
     23 HAI        -5.4090    0.2230    0.2260 ha        1 0X3      0.173000
     24 HAP        -2.1830   -2.5050    1.1990 ha        1 0X3      0.168000
     25 HNAN       -0.0930   -2.0860   -0.1980 hn        1 0X3      0.490800
     26 HAF        -0.4220    1.2820    1.0920 ha        1 0X3      0.166000
     27 HAE         1.3960    2.9060    1.4880 ha        1 0X3      0.171000
@<TRIPOS>BOND
     1    1    2 1   
     2    2    3 ar  
     3    2    4 ar  
     4    3    8 ar  
     5    3   22 1   
     6    4    5 ar  
     7    4   23 1   
     8    5    6 1   
     9    5    7 ar  
    10    7    8 ar  
    11    7   24 1   
    12    8    9 1   
    13    9   10 1   
    14    9   25 1   
    15   10   11 ar  
    16   10   15 ar  
    17   11   12 1   
    18   11   18 ar  
    19   12   13 1   
    20   12   14 1   
    21   15   16 ar  
    22   15   26 1   
    23   16   17 ar  
    24   16   27 1   
    25   17   18 ar  
    26   17   19 2   
    27   18   21 2   
    28   19   20 1   
    29   20   21 1   
@<TRIPOS>SUBSTRUCTURE
     1 0X3         1 TEMP              0 ****  ****    0 ROOT
