@<TRIPOS>MOLECULE
0X3
   27    29     1     0     0
SMALL
bcc


@<TRIPOS>ATOM
      1 CL1         0.0420    0.2870   -0.1660 cl        1 0X3     -0.064400
      2 CAH         1.7320    0.1390   -0.1400 ca        1 0X3      0.058400
      3 CAG         2.3880    0.0520    1.0910 ca        1 0X3     -0.170000
      4 CAI         2.4350    0.1130   -1.3440 ca        1 0X3     -0.170000
      5 CAQ         3.8360   -0.0040   -1.3030 ca        1 0X3      0.162900
      6 FAR         4.5370   -0.0260   -2.4600 f         1 0X3     -0.124900
      7 CAP         4.5200   -0.1050   -0.0810 ca        1 0X3     -0.190000
      8 CAO         3.7910   -0.0810    1.1250 ca        1 0X3      0.163600
      9 NAN         4.4980   -0.1250    2.3440 nh        1 0X3     -0.635000
     10 CAM         4.1340   -0.8690    3.4390 ca        1 0X3      0.305600
     11 CAL         4.6990   -0.6520    4.7110 ca        1 0X3     -0.270200
     12 NAT         5.6980    0.3970    4.9910 no        1 0X3      0.334200
     13 OAS         6.4470    0.7470    4.1080 o         1 0X3     -0.209500
     14 OAU         5.7480    0.8900    6.0810 o         1 0X3     -0.209500
     15 CAF         3.1290   -1.9230    3.2780 ca        1 0X3     -0.174000
     16 CAE         2.7000   -2.7190    4.2860 ca        1 0X3     -0.010000
     17 CAD         3.2560   -2.5380    5.5890 ca        1 0X3     -0.145000
     18 CAK         4.2850   -1.4840    5.8020 ca        1 0X3     -0.053000
     19 NAC         3.0860   -3.1470    6.7830 nc        1 0X3     -0.061500
     20 OAB         3.9070   -2.5530    7.6320 os        1 0X3      0.204000
     21 NAJ         4.6380   -1.5690    7.1050 nc        1 0X3     -0.073500
     22 HAG         1.8070    0.1010    2.0260 ha        1 0X3      0.164000
     23 HAI         1.9170    0.1870   -2.3120 ha        1 0X3      0.173000
     24 HAP         5.6180   -0.1970   -0.0860 ha        1 0X3      0.168000
     25 HNAN        5.3460    0.4110    2.3740 hn        1 0X3      0.490800
     26 HAF         2.7240   -2.0840    2.2630 ha        1 0X3      0.166000
     27 HAE         1.9470   -3.5080    4.1260 ha        1 0X3      0.171000
@<TRIPOS>BOND
     1    1    2 1   
     2    2    3 ar  
     3    2    4 ar  
     4    3    8 ar  
     5    3   22 1   
     6    4    5 ar  
     7    4   23 1   
     8    5    6 1   
     9    5    7 ar  
    10    7    8 ar  
    11    7   24 1   
    12    8    9 1   
    13    9   10 1   
    14    9   25 1   
    15   10   11 ar  
    16   10   15 ar  
    17   11   12 1   
    18   11   18 ar  
    19   12   13 1   
    20   12   14 1   
    21   15   16 ar  
    22   15   26 1   
    23   16   17 ar  
    24   16   27 1   
    25   17   18 ar  
    26   17   19 2   
    27   18   21 2   
    28   19   20 1   
    29   20   21 1   
@<TRIPOS>SUBSTRUCTURE
     1 0X3         1 TEMP              0 ****  ****    0 ROOT
