@<TRIPOS>MOLECULE
0X3
   27    22     1     0     0
SMALL
bcc


@<TRIPOS>ATOM
      1 CL1        -3.3390    1.5340   -4.1260 cl        1 0X3      0.008000
      2 CAH        -1.8100    1.2230   -3.3480 c2        1 0X3     -0.011000
      3 CAG        -1.7200    1.2430   -1.9650 c2        1 0X3     -0.164000
      4 CAI        -0.6950    0.9130   -4.1100 c1        1 0X3     -0.176000
      5 CAQ         0.5100    0.6230   -3.4900 c1        1 0X3      0.142000
      6 FAR         1.5850    0.3150   -4.2260 f         1 0X3     -0.089000
      7 CAP         0.6010    0.6440   -2.1070 c1        1 0X3     -0.211000
      8 CAO        -0.5140    0.9540   -1.3440 c1        1 0X3      0.094000
      9 NAN        -0.4100    1.0210    0.0690 n3        1 0X3     -0.279000
     10 CAM        -0.1960   -0.1630    0.8220 c1        1 0X3      0.194000
     11 CAL         1.0290   -0.2650    1.4700 c1        1 0X3     -0.178000
     12 NAT         2.3620    0.2180    1.5090 no        1 0X3      0.584000
     13 OAS         3.3610   -0.4820    0.8960 o         1 0X3     -0.336000
     14 OAU         2.6180    1.2570    2.1000 o         1 0X3     -0.336000
     15 CAF        -1.3120   -0.8240    1.3320 c1        1 0X3     -0.164000
     16 CAE        -1.2000   -1.5860    2.4890 c1        1 0X3     -0.021000
     17 CAD         0.0370   -1.6900    3.1440 c1        1 0X3     -0.135000
     18 CAK         1.1430   -1.0340    2.6380 c1        1 0X3     -0.066000
     19 NAC         0.4200   -2.3520    4.2740 n1        1 0X3      0.031000
     20 OAB         1.7580   -2.1120    4.4740 os        1 0X3      0.011000
     21 NAJ         2.2000   -1.2970    3.4590 n1        1 0X3      0.031000
     22 HAG        -2.5050    1.4620   -1.4270 ha        1 0X3      0.159000
     23 HAI        -0.7520    0.9230   -5.0850 ha        1 0X3      0.171000
     24 HAP         1.4490    0.4400   -1.6700 ha        1 0X3      0.165000
     25 HNAN       -0.4660    1.8260    0.4930 hn        1 0X3      0.249000
     26 HAF        -2.1750   -0.7420    0.8830 ha        1 0X3      0.155000
     27 HAE        -1.9820   -2.0490    2.8460 ha        1 0X3      0.170000
@<TRIPOS>BOND
     1    1    2 1   
     2    2    3 1   
     3    2    4 1   
     4    3    8 1   
     5    3   22 1   
     6    4   23 1   
     7    5    6 1   
     8    5    7 1   
     9    7   24 1   
    10    8    9 1   
    11    9   10 1   
    12    9   25 1   
    13   10   15 1   
    14   11   12 1   
    15   11   18 1   
    16   12   13 1   
    17   12   14 1   
    18   15   26 1   
    19   16   17 1   
    20   16   27 1   
    21   19   20 1   
    22   20   21 1   
@<TRIPOS>SUBSTRUCTURE
     1 0X3         1 TEMP              0 ****  ****    0 ROOT
