@<TRIPOS>MOLECULE
0X3
   27    29     1     0     0
SMALL
bcc


@<TRIPOS>ATOM
      1 CL1         0.0340    0.2750   -0.1600 cl        1 0X3     -0.064400
      2 CAH         1.7240    0.1300   -0.1370 ca        1 0X3      0.058400
      3 CAG         2.3820    0.0470    1.0920 ca        1 0X3     -0.170000
      4 CAI         2.4240    0.1030   -1.3430 ca        1 0X3     -0.170000
      5 CAQ         3.8250   -0.0120   -1.3050 ca        1 0X3      0.162900
      6 FAR         4.5240   -0.0350   -2.4640 f         1 0X3     -0.124900
      7 CAP         4.5130   -0.1090   -0.0840 ca        1 0X3     -0.190000
      8 CAO         3.7860   -0.0830    1.1230 ca        1 0X3      0.163600
      9 NAN         4.4960   -0.1230    2.3410 nh        1 0X3     -0.635000
     10 CAM         4.1360   -0.8670    3.4390 ca        1 0X3      0.305600
     11 CAL         4.7030   -0.6460    4.7090 ca        1 0X3     -0.270200
     12 NAT         5.7010    0.4050    4.9840 no        1 0X3      0.334200
     13 OAS         6.4480    0.7550    4.0980 o         1 0X3     -0.209500
     14 OAU         5.7530    0.9000    6.0730 o         1 0X3     -0.209500
     15 CAF         3.1320   -1.9230    3.2820 ca        1 0X3     -0.174000
     16 CAE         2.7080   -2.7180    4.2920 ca        1 0X3     -0.010000
     17 CAD         3.2660   -2.5330    5.5930 ca        1 0X3     -0.145000
     18 CAK         4.2940   -1.4770    5.8020 ca        1 0X3     -0.053000
     19 NAC         3.1000   -3.1410    6.7890 nc        1 0X3     -0.061500
     20 OAB         3.9220   -2.5430    7.6350 os        1 0X3      0.204000
     21 NAJ         4.6500   -1.5590    7.1050 nc        1 0X3     -0.073500
     22 HAG         1.8040    0.0970    2.0290 ha        1 0X3      0.164000
     23 HAI         1.9040    0.1740   -2.3100 ha        1 0X3      0.173000
     24 HAP         5.6110   -0.1990   -0.0920 ha        1 0X3      0.168000
     25 HNAN        5.3430    0.4140    2.3680 hn        1 0X3      0.490800
     26 HAF         2.7250   -2.0870    2.2680 ha        1 0X3      0.166000
     27 HAE         1.9550   -3.5080    4.1350 ha        1 0X3      0.171000
@<TRIPOS>BOND
     1    1    2 1   
     2    2    3 ar  
     3    2    4 ar  
     4    3    8 ar  
     5    3   22 1   
     6    4    5 ar  
     7    4   23 1   
     8    5    6 1   
     9    5    7 ar  
    10    7    8 ar  
    11    7   24 1   
    12    8    9 1   
    13    9   10 1   
    14    9   25 1   
    15   10   11 ar  
    16   10   15 ar  
    17   11   12 1   
    18   11   18 ar  
    19   12   13 1   
    20   12   14 1   
    21   15   16 ar  
    22   15   26 1   
    23   16   17 ar  
    24   16   27 1   
    25   17   18 ar  
    26   17   19 2   
    27   18   21 2   
    28   19   20 1   
    29   20   21 1   
@<TRIPOS>SUBSTRUCTURE
     1 0X3         1 TEMP              0 ****  ****    0 ROOT
