@<TRIPOS>MOLECULE
0X5
   36    38     1     0     0
SMALL
bcc


@<TRIPOS>ATOM
      1 C4         -0.0810   -0.1040    0.0710 ca        1 0X5     -0.144600
      2 C5          1.2900   -0.3460   -0.0980 ca        1 0X5      0.051400
      3 C6          2.1620   -0.2720    0.9930 ca        1 0X5     -0.128000
      4 C11        -2.0360    1.0810   -2.9460 ca        1 0X5      0.132600
      5 C8         -1.0260   -0.2500   -1.0850 c         1 0X5      0.692700
      6 C12        -2.0330    2.3370   -3.6030 ca        1 0X5     -0.338300
      7 C13        -2.8510    2.4980   -4.7260 ca        1 0X5      0.448200
      8 C3         -0.5650    0.2290    1.3440 ca        1 0X5      0.051400
      9 C1          1.6640    0.0500    2.2540 ca        1 0X5     -0.095000
     10 C2          0.3060    0.3030    2.4360 ca        1 0X5     -0.128000
     11 CL1         1.9090   -0.7290   -1.6300 cl        1 0X5     -0.060400
     12 O9         -1.5730   -1.3340   -1.3390 o         1 0X5     -0.554100
     13 N10        -1.2170    0.9120   -1.8210 n         1 0X5     -0.462100
     14 N14        -3.6490    1.5520   -5.2440 nb        1 0X5     -0.686000
     15 C15        -3.6690    0.3420   -4.6070 ca        1 0X5      0.564200
     16 C16        -2.8690    0.0700   -3.4540 ca        1 0X5     -0.329300
     17 N17        -4.4710   -0.7070   -5.0920 n         1 0X5     -0.563400
     18 C18        -5.5600   -0.6130   -5.9610 c         1 0X5      0.698100
     19 O19        -6.0490    0.4580   -6.3450 o         1 0X5     -0.532100
     20 C20        -6.1500   -1.9340   -6.3640 cx        1 0X5     -0.220700
     21 C21        -6.1450   -2.3190   -7.8190 cx        1 0X5     -0.114400
     22 C22        -5.2820   -3.0650   -6.8470 cx        1 0X5     -0.114400
     23 CL2        -2.2150    0.5480    1.5760 cl        1 0X5     -0.060400
     24 H1          3.2360   -0.4690    0.8560 ha        1 0X5      0.158000
     25 H2         -1.4110    3.1710   -3.2540 ha        1 0X5      0.142000
     26 H3         -2.8710    3.4630   -5.2670 h4        1 0X5      0.026100
     27 H4          2.3490    0.1050    3.1150 ha        1 0X5      0.149000
     28 H5         -0.0820    0.5590    3.4350 ha        1 0X5      0.158000
     29 H6         -0.7100    1.7210   -1.5340 hn        1 0X5      0.327500
     30 H7         -2.9120   -0.9200   -2.9730 ha        1 0X5      0.177000
     31 H8         -4.2430   -1.6110   -4.7420 hn        1 0X5      0.326500
     32 H9         -7.0460   -2.1650   -5.7530 hc        1 0X5      0.107700
     33 H10        -7.0420   -2.8090   -8.2360 hc        1 0X5      0.080700
     34 H11        -5.6720   -1.6350   -8.5470 hc        1 0X5      0.080700
     35 H12        -4.1860   -2.9280   -6.8900 hc        1 0X5      0.080700
     36 H13        -5.5550   -4.0970   -6.5620 hc        1 0X5      0.080700
@<TRIPOS>BOND
     1    1    2 ar  
     2    1    5 1   
     3    1    8 ar  
     4    2    3 ar  
     5    2   11 1   
     6    3    9 ar  
     7    3   24 1   
     8    4    6 ar  
     9    4   13 1   
    10    4   16 ar  
    11    5   12 2   
    12    5   13 1   
    13    6    7 ar  
    14    6   25 1   
    15    7   14 ar  
    16    7   26 1   
    17    8   10 ar  
    18    8   23 1   
    19    9   10 ar  
    20    9   27 1   
    21   10   28 1   
    22   13   29 1   
    23   14   15 ar  
    24   15   16 ar  
    25   15   17 1   
    26   16   30 1   
    27   17   18 1   
    28   17   31 1   
    29   18   19 2   
    30   18   20 1   
    31   20   21 1   
    32   20   22 1   
    33   20   32 1   
    34   21   22 1   
    35   21   33 1   
    36   21   34 1   
    37   22   35 1   
    38   22   36 1   
@<TRIPOS>SUBSTRUCTURE
     1 0X5         1 TEMP              0 ****  ****    0 ROOT
