@<TRIPOS>MOLECULE
0X5
   38    40     1     0     0
SMALL
bcc


@<TRIPOS>ATOM
      1 C4         -0.2010    0.1890    0.3700 ca        1 0X5     -0.234600
      2 C5          1.1060   -0.3350    0.3170 ca        1 0X5      0.066900
      3 C6          2.0320    0.0000    1.3120 ca        1 0X5     -0.103500
      4 C11        -1.9370    0.5870   -2.8680 ca        1 0X5      0.028600
      5 C8         -1.2040   -0.2560   -0.5990 c         1 0X5      0.617700
      6 C12        -1.1850    1.2650   -3.8350 ca        1 0X5     -0.172300
      7 C13        -1.3840    0.9190   -5.1950 ca        1 0X5      0.469200
      8 C3         -0.5540    1.0660    1.4170 ca        1 0X5      0.066900
      9 C1          1.6620    0.8510    2.3510 ca        1 0X5     -0.028000
     10 C2          0.3720    1.3890    2.4070 ca        1 0X5     -0.103500
     11 CL1         1.5740   -1.3540   -0.9470 cl        1 0X5     -0.039900
     12 O9         -1.6750   -1.3490   -0.8360 o         1 0X5     -0.385100
     13 N10        -1.7830    0.9100   -1.4520 n4        1 0X5     -0.579200
     14 N14        -2.2440   -0.0170   -5.6060 nb        1 0X5     -0.602000
     15 C15        -2.9640   -0.6750   -4.6480 ca        1 0X5      0.506200
     16 C16        -2.8570   -0.4120   -3.2670 ca        1 0X5     -0.178300
     17 N17        -3.9160   -1.6940   -5.1320 n4        1 0X5     -0.682500
     18 C18        -5.1620   -1.0620   -5.8150 c         1 0X5      0.615100
     19 O19        -5.4380    0.0580   -5.4280 o         1 0X5     -0.405100
     20 C20        -5.8020   -1.9310   -6.8050 cx        1 0X5     -0.300700
     21 C21        -7.2930   -1.7270   -7.0590 cx        1 0X5     -0.051900
     22 C22        -6.3170   -1.2800   -8.0870 cx        1 0X5     -0.051900
     23 CL2        -2.1230    1.7130    1.4960 cl        1 0X5     -0.039900
     24 H1          3.0550   -0.4180    1.2740 ha        1 0X5      0.197000
     25 H2         -0.4530    2.0540   -3.5870 ha        1 0X5      0.200000
     26 H3         -0.8130    1.4340   -6.0010 h4        1 0X5      0.099100
     27 H4          2.3930    1.1030    3.1430 ha        1 0X5      0.193000
     28 H5          0.0880    2.0620    3.2370 ha        1 0X5      0.197000
     29 H6         -1.1620    1.7260   -1.3480 hn        1 0X5      0.477800
     30 H7         -3.4500   -0.9670   -2.5190 ha        1 0X5      0.193000
     31 H8         -3.4450   -2.3040   -5.8170 hn        1 0X5      0.477300
     32 H9         -5.4060   -2.9650   -6.8780 hc        1 0X5      0.126700
     33 H10        -7.8330   -0.9670   -6.4610 hc        1 0X5      0.117950
     34 H11        -7.9030   -2.6360   -7.2300 hc        1 0X5      0.117950
     35 H12        -6.1950   -1.8560   -9.0260 hc        1 0X5      0.117950
     36 H13        -6.1480   -0.1960   -8.2370 hc        1 0X5      0.117950
     37 H102       -2.7060    1.1580   -1.0620 hn        1 0X5      0.477800
     38 H172       -4.2270   -2.2680   -4.3400 hn        1 0X5      0.477300
@<TRIPOS>BOND
     1    1    2 ar  
     2    1    5 1   
     3    1    8 ar  
     4    2    3 ar  
     5    2   11 1   
     6    3    9 ar  
     7    3   24 1   
     8    4    6 ar  
     9    4   13 1   
    10    4   16 ar  
    11    5   12 2   
    12    5   13 1   
    13    6    7 ar  
    14    6   25 1   
    15    7   14 ar  
    16    7   26 1   
    17    8   10 ar  
    18    8   23 1   
    19    9   10 ar  
    20    9   27 1   
    21   10   28 1   
    22   13   29 1   
    23   13   37 1   
    24   14   15 ar  
    25   15   16 ar  
    26   15   17 1   
    27   16   30 1   
    28   17   18 1   
    29   17   31 1   
    30   17   38 1   
    31   18   19 2   
    32   18   20 1   
    33   20   21 1   
    34   20   22 1   
    35   20   32 1   
    36   21   22 1   
    37   21   33 1   
    38   21   34 1   
    39   22   35 1   
    40   22   36 1   
@<TRIPOS>SUBSTRUCTURE
     1 0X5         1 TEMP              0 ****  ****    0 ROOT
