@<TRIPOS>MOLECULE
0X5
   36    38     1     0     0
SMALL
bcc


@<TRIPOS>ATOM
      1 C4         -0.0810   -0.0990    0.0710 ca        1 0X5     -0.144600
      2 C5          1.2900   -0.3380   -0.0980 ca        1 0X5      0.051400
      3 C6          2.1620   -0.2620    0.9930 ca        1 0X5     -0.128000
      4 C11        -2.0370    1.0810   -2.9470 ca        1 0X5      0.132600
      5 C8         -1.0250   -0.2470   -1.0860 c         1 0X5      0.692700
      6 C12        -2.0350    2.3370   -3.6060 ca        1 0X5     -0.338300
      7 C13        -2.8530    2.4950   -4.7290 ca        1 0X5      0.448200
      8 C3         -0.5660    0.2340    1.3430 ca        1 0X5      0.051400
      9 C1          1.6630    0.0600    2.2540 ca        1 0X5     -0.095000
     10 C2          0.3050    0.3100    2.4360 ca        1 0X5     -0.128000
     11 Cl1         1.9100   -0.7210   -1.6300 cl        1 0X5     -0.060400
     12 O9         -1.5720   -1.3320   -1.3380 o         1 0X5     -0.554100
     13 N10        -1.2180    0.9140   -1.8220 ns        1 0X5     -0.462100
     14 N14        -3.6510    1.5490   -5.2460 nb        1 0X5     -0.686000
     15 C15        -3.6690    0.3390   -4.6080 ca        1 0X5      0.564200
     16 C16        -2.8690    0.0690   -3.4550 ca        1 0X5     -0.329300
     17 N17        -4.4710   -0.7110   -5.0910 ns        1 0X5     -0.563400
     18 C18        -5.5600   -0.6190   -5.9610 c         1 0X5      0.698100
     19 O19        -6.0480    0.4510   -6.3470 o         1 0X5     -0.532100
     20 C20        -6.1490   -1.9420   -6.3620 cx        1 0X5     -0.220700
     21 C21        -6.1430   -2.3280   -7.8160 cx        1 0X5     -0.114400
     22 C22        -5.2790   -3.0720   -6.8430 cx        1 0X5     -0.114400
     23 Cl2        -2.2160    0.5510    1.5750 cl        1 0X5     -0.060400
     24 H1          3.2370   -0.4570    0.8560 ha        1 0X5      0.158000
     25 H2         -1.4140    3.1720   -3.2580 ha        1 0X5      0.142000
     26 H3         -2.8750    3.4610   -5.2710 h4        1 0X5      0.026100
     27 H4          2.3490    0.1160    3.1140 ha        1 0X5      0.149000
     28 H5         -0.0830    0.5660    3.4340 ha        1 0X5      0.158000
     29 H6         -0.7120    1.7240   -1.5360 hn        1 0X5      0.327500
     30 H7         -2.9110   -0.9200   -2.9730 ha        1 0X5      0.177000
     31 H8         -4.2420   -1.6140   -4.7400 hn        1 0X5      0.326500
     32 H9         -7.0440   -2.1720   -5.7500 hc        1 0X5      0.107700
     33 H10        -5.6720   -1.6440   -8.5460 hc        1 0X5      0.080700
     34 H11        -7.0400   -2.8200   -8.2320 hc        1 0X5      0.080700
     35 H12        -4.1840   -2.9340   -6.8880 hc        1 0X5      0.080700
     36 H13        -5.5520   -4.1040   -6.5580 hc        1 0X5      0.080700
@<TRIPOS>BOND
     1    1    2 ar  
     2    1    5 1   
     3    1    8 ar  
     4    2    3 ar  
     5    2   11 1   
     6    3    9 ar  
     7    3   24 1   
     8    4    6 ar  
     9    4   13 1   
    10    4   16 ar  
    11    5   12 2   
    12    5   13 1   
    13    6    7 ar  
    14    6   25 1   
    15    7   14 ar  
    16    7   26 1   
    17    8   10 ar  
    18    8   23 1   
    19    9   10 ar  
    20    9   27 1   
    21   10   28 1   
    22   13   29 1   
    23   14   15 ar  
    24   15   16 ar  
    25   15   17 1   
    26   16   30 1   
    27   17   18 1   
    28   17   31 1   
    29   18   19 2   
    30   18   20 1   
    31   20   21 1   
    32   20   22 1   
    33   20   32 1   
    34   21   22 1   
    35   21   33 1   
    36   21   34 1   
    37   22   35 1   
    38   22   36 1   
@<TRIPOS>SUBSTRUCTURE
     1 0X5         1 TEMP              0 ****  ****    0 ROOT
