@<TRIPOS>MOLECULE
0X5
   36    38     1     0     0
SMALL
bcc


@<TRIPOS>ATOM
      1 C4          3.0300   -0.3170   -0.2660 ca        1 0X5     -0.144600
      2 C5          3.7430    0.6400   -1.0010 ca        1 0X5      0.051400
      3 C6          5.1400    0.5840   -1.0690 ca        1 0X5     -0.128000
      4 C11        -0.3840    0.6720    1.0380 ca        1 0X5      0.132600
      5 C8          1.5300   -0.2960   -0.2490 c         1 0X5      0.692700
      6 C12        -0.7430    1.5570    2.0860 ca        1 0X5     -0.338300
      7 C13        -2.1020    1.7570    2.3450 ca        1 0X5      0.448200
      8 C3          3.7330   -1.3200    0.4150 ca        1 0X5      0.051400
      9 C1          5.8240   -0.4250   -0.3960 ca        1 0X5     -0.095000
     10 C2          5.1290   -1.3770    0.3480 ca        1 0X5     -0.128000
     11 CL1         2.9220    1.8790   -1.8180 cl        1 0X5     -0.060400
     12 O9          0.8660   -0.9200   -1.0910 o         1 0X5     -0.554100
     13 N10         0.9770    0.4670    0.7710 n         1 0X5     -0.462100
     14 N14        -3.1120    1.1780    1.6790 nb        1 0X5     -0.686000
     15 C15        -2.7730    0.3110    0.6750 ca        1 0X5      0.564200
     16 C16        -1.4150    0.0380    0.3240 ca        1 0X5     -0.329300
     17 N17        -3.7720   -0.3310   -0.0800 n         1 0X5     -0.563400
     18 C18        -5.1170   -0.4990    0.2560 c         1 0X5      0.698100
     19 O19        -5.6000   -0.1900    1.3530 o         1 0X5     -0.532100
     20 C20        -5.9480   -1.1500   -0.8130 cx        1 0X5     -0.220700
     21 C21        -7.1010   -0.3850   -1.4030 cx        1 0X5     -0.114400
     22 C22        -5.8940   -0.6800   -2.2410 cx        1 0X5     -0.114400
     23 CL2         2.8990   -2.4780    1.3330 cl        1 0X5     -0.060400
     24 H1          5.6940    1.3340   -1.6550 ha        1 0X5      0.158000
     25 H2          0.0130    2.0790    2.6870 ha        1 0X5      0.142000
     26 H3         -2.4200    2.4440    3.1530 h4        1 0X5      0.027100
     27 H4          6.9220   -0.4720   -0.4520 ha        1 0X5      0.149000
     28 H5          5.6750   -2.1720    0.8800 ha        1 0X5      0.158000
     29 H6          1.6100    0.9390    1.3800 hn        1 0X5      0.327500
     30 H7         -1.1860   -0.6640   -0.4920 ha        1 0X5      0.177000
     31 H8         -3.4610   -0.7340   -0.9360 hn        1 0X5      0.326500
     32 H9         -6.0740   -2.2320   -0.6050 hc        1 0X5      0.107700
     33 H10        -8.0440   -0.9250   -1.6010 hc        1 0X5      0.080700
     34 H11        -7.2820    0.6510   -1.0620 hc        1 0X5      0.080700
     35 H12        -5.2170    0.1490   -2.5160 hc        1 0X5      0.080700
     36 H13        -5.9660   -1.4340   -3.0460 hc        1 0X5      0.080700
@<TRIPOS>BOND
     1    1    2 ar  
     2    1    5 1   
     3    1    8 ar  
     4    2    3 ar  
     5    2   11 1   
     6    3    9 ar  
     7    3   24 1   
     8    4    6 ar  
     9    4   13 1   
    10    4   16 ar  
    11    5   12 2   
    12    5   13 1   
    13    6    7 ar  
    14    6   25 1   
    15    7   14 ar  
    16    7   26 1   
    17    8   10 ar  
    18    8   23 1   
    19    9   10 ar  
    20    9   27 1   
    21   10   28 1   
    22   13   29 1   
    23   14   15 ar  
    24   15   16 ar  
    25   15   17 1   
    26   16   30 1   
    27   17   18 1   
    28   17   31 1   
    29   18   19 2   
    30   18   20 1   
    31   20   21 1   
    32   20   22 1   
    33   20   32 1   
    34   21   22 1   
    35   21   33 1   
    36   21   34 1   
    37   22   35 1   
    38   22   36 1   
@<TRIPOS>SUBSTRUCTURE
     1 0X5         1 TEMP              0 ****  ****    0 ROOT
