@<TRIPOS>MOLECULE
0X6
   37    39     1     0     0
SMALL
bcc


@<TRIPOS>ATOM
      1 C4          3.3590    0.2180    0.2030 ca        1 0X6      0.564200
      2 C14        -4.6050   -1.4540    0.1770 ca        1 0X6     -0.095500
      3 C5          2.0110   -0.0860   -0.1340 ca        1 0X6     -0.349300
      4 C6          0.9620    0.5220    0.5950 ca        1 0X6      0.127600
      5 C11        -3.4180    0.8950   -0.7800 ca        1 0X6      0.044900
      6 C8         -1.5160    0.6660    0.8560 c         1 0X6      0.688700
      7 C10        -2.7890    0.1620    0.2360 ca        1 0X6     -0.126600
      8 C12        -4.6370    0.4670   -1.3150 ca        1 0X6     -0.095500
      9 C13        -5.2270   -0.7080   -0.8320 ca        1 0X6      0.024000
     10 N3          3.6820    1.0730    1.2240 nb        1 0X6     -0.682000
     11 C1          1.3020    1.4120    1.6320 ca        1 0X6     -0.300300
     12 C2          2.6640    1.6380    1.8860 ca        1 0X6      0.445200
     13 N7         -0.3590    0.2090    0.2420 n         1 0X6     -0.462100
     14 O9         -1.5380    1.4240    1.8370 o         1 0X6     -0.541100
     15 C15        -3.3860   -1.0160    0.7040 ca        1 0X6      0.044900
     16 CL1        -2.6380   -1.9330    1.9180 cl        1 0X6     -0.045400
     17 C17        -6.4670   -1.1480   -1.3710 cg        1 0X6      0.220800
     18 N18        -7.4810   -1.5080   -1.8130 n1        1 0X6     -0.329800
     19 N20         4.3780   -0.4160   -0.5360 n         1 0X6     -0.569400
     20 C21         5.6820    0.0500   -0.7200 c         1 0X6      0.701100
     21 O22         6.0380    1.1990   -0.4260 o         1 0X6     -0.538100
     22 C23         6.6180   -0.9410   -1.3520 cx        1 0X6     -0.231700
     23 C24         8.0960   -0.6560   -1.2870 cx        1 0X6     -0.106400
     24 C25         7.5140   -1.7580   -0.4560 cx        1 0X6     -0.106400
     25 H1         -5.0740   -2.3780    0.5530 ha        1 0X6      0.170000
     26 H2          1.7930   -0.7800   -0.9580 ha        1 0X6      0.137000
     27 H3         -5.1310    1.0500   -2.1090 ha        1 0X6      0.170000
     28 H4          0.5400    1.9250    2.2370 ha        1 0X6      0.183000
     29 H5          2.9660    2.3290    2.6970 h4        1 0X6      0.031100
     30 H6         -0.4670   -0.4020   -0.5380 hn        1 0X6      0.324500
     31 H7          4.1410   -1.3060   -0.9090 hn        1 0X6      0.320500
     32 H8          6.2100   -1.4080   -2.2700 hc        1 0X6      0.093700
     33 H9          8.7190   -0.9070   -2.1630 hc        1 0X6      0.083700
     34 H10         8.4250    0.2760   -0.7900 hc        1 0X6      0.083700
     35 H11         7.4420   -1.6230    0.6390 hc        1 0X6      0.083700
     36 H12         7.7130   -2.8090   -0.7310 hc        1 0X6      0.083700
     37 CL2        -2.7090    2.3120   -1.3790 cl        1 0X6     -0.045400
@<TRIPOS>BOND
     1    1    3 ar  
     2    1   10 ar  
     3    1   19 1   
     4    2    9 ar  
     5    2   15 ar  
     6    2   25 1   
     7    3    4 ar  
     8    3   26 1   
     9    4   11 ar  
    10    4   13 1   
    11    5    7 ar  
    12    5    8 ar  
    13    5   37 1   
    14    6    7 1   
    15    6   13 1   
    16    6   14 2   
    17    7   15 ar  
    18    8    9 ar  
    19    8   27 1   
    20    9   17 1   
    21   10   12 ar  
    22   11   12 ar  
    23   11   28 1   
    24   12   29 1   
    25   13   30 1   
    26   15   16 1   
    27   17   18 3   
    28   19   20 1   
    29   19   31 1   
    30   20   21 2   
    31   20   22 1   
    32   22   23 1   
    33   22   24 1   
    34   22   32 1   
    35   23   24 1   
    36   23   33 1   
    37   23   34 1   
    38   24   35 1   
    39   24   36 1   
@<TRIPOS>SUBSTRUCTURE
     1 0X6         1 TEMP              0 ****  ****    0 ROOT
