@<TRIPOS>MOLECULE
0X6
   39    40     1     0     0
SMALL
bcc


@<TRIPOS>ATOM
      1 C4       -310.0790 -101.7030 -157.4240 ca        1 0X6      0.435200
      2 C14       501.6330  163.2570  253.1410 cc        1 0X6     -0.165000
      3 C5       -309.1950 -100.8910 -158.1600 ca        1 0X6     -0.133300
      4 C6       -308.5790 -101.4630 -159.2960 ca        1 0X6     -0.016600
      5 C11       504.1650  163.3520  254.3850 cd        1 0X6      0.157400
      6 C8        505.1960  163.7460  252.1850 c2        1 0X6      0.116000
      7 C10       504.0790  163.5320  252.9490 cd        1 0X6     -0.179000
      8 C12       503.0280  163.1360  255.1470 cc        1 0X6     -0.165000
      9 C13       501.7620  163.0880  254.5330 cc        1 0X6      0.176900
     10 N3       -310.3790 -102.9990 -157.7430 nb        1 0X6     -0.640000
     11 C1       -308.8740 -102.7880 -159.6320 ca        1 0X6     -0.153300
     12 C2       -309.7810 -103.5110 -158.8220 ca        1 0X6      0.429200
     13 N7       -307.6480 -100.5990 -160.0540 ne        1 0X6      0.063900
     14 O9       -307.1460 -101.0250 -160.9960 o         1 0X6     -0.062300
     15 C15       502.7560  163.4740  252.3580 cd        1 0X6      0.157400
     16 CL1       502.5610  163.6720  250.7050 cl        1 0X6      0.047600
     17 C17       500.6040  162.8660  255.3240 c1        1 0X6     -0.112900
     18 N18       499.6550  162.6840  255.9740 n1        1 0X6      0.138000
     19 N20      -310.7400 -101.1450 -156.2240 n4        1 0X6     -0.663500
     20 C21      -312.1200 -100.5750 -156.5650 c         1 0X6      0.601100
     21 O22      -312.1340  -99.3610 -156.6930 o         1 0X6     -0.421100
     22 C23      -313.2120 -101.5510 -156.6580 cx        1 0X6     -0.277700
     23 C24      -314.5480 -101.1730 -156.0340 cx        1 0X6     -0.066400
     24 C25      -314.4120 -101.1790 -157.5170 cx        1 0X6     -0.066400
     25 H1        500.6260  163.2150  252.6790 ha        1 0X6      0.209000
     26 H2       -308.9820  -99.8460 -157.8750 ha        1 0X6      0.187000
     27 H3        503.1040  163.0000  256.2440 ha        1 0X6      0.209000
     28 H4       -308.4120 -103.2710 -160.5110 ha        1 0X6      0.196000
     29 H5       -310.0390 -104.5650 -159.0550 h4        1 0X6      0.070100
     30 H6        506.2110  163.7920  252.6220 ha        1 0X6      0.182000
     31 H7       -310.8470 -101.8790 -155.5120 hn        1 0X6      0.471300
     32 H8       -312.9060 -102.6180 -156.6320 hc        1 0X6      0.136700
     33 H9       -315.1150 -101.9770 -155.5270 hc        1 0X6      0.109450
     34 H10      -314.6340 -100.2030 -155.5060 hc        1 0X6      0.109450
     35 H11      -314.3970 -100.2140 -158.0590 hc        1 0X6      0.109450
     36 H12      -314.8780 -101.9880 -158.1120 hc        1 0X6      0.109450
     37 H72       505.1450  163.8850  251.0880 ha        1 0X6      0.182000
     38 H202     -310.1430 -100.3950 -155.8510 hn        1 0X6      0.471300
     39 CL2       505.6540  163.4040  255.1530 cl        1 0X6      0.047600
@<TRIPOS>BOND
     1    1    3 ar  
     2    1   10 ar  
     3    1   19 1   
     4    2    9 1   
     5    2   15 2   
     6    2   25 1   
     7    3    4 ar  
     8    3   26 1   
     9    4   11 ar  
    10    4   13 1   
    11    5    7 1   
    12    5    8 2   
    13    5   39 1   
    14    6    7 2   
    15    6   30 1   
    16    6   37 1   
    17    7   15 1   
    18    8    9 1   
    19    8   27 1   
    20    9   17 2   
    21   10   12 ar  
    22   11   12 ar  
    23   11   28 1   
    24   12   29 1   
    25   13   14 2   
    26   15   16 1   
    27   17   18 2   
    28   19   20 1   
    29   19   31 1   
    30   19   38 1   
    31   20   21 2   
    32   20   22 1   
    33   22   23 1   
    34   22   24 1   
    35   22   32 1   
    36   23   24 1   
    37   23   33 1   
    38   23   34 1   
    39   24   35 1   
    40   24   36 1   
@<TRIPOS>SUBSTRUCTURE
     1 0X6         1 TEMP              0 ****  ****    0 ROOT
