@<TRIPOS>MOLECULE
0X9
   30    29     1     0     0
SMALL
bcc


@<TRIPOS>ATOM
      1 O15        -3.0710    1.9370   -0.6070 o         1 0X9     -0.830800
      2 C14        -1.9850    1.9900    0.0410 c         1 0X9      0.897600
      3 O16        -1.5700    3.0020    0.6600 o         1 0X9     -0.830800
      4 C13        -1.0870    0.7010    0.1220 c3        1 0X9      0.088500
      5 N17        -1.5850   -0.4150   -0.6500 n3        1 0X9     -0.879100
      6 S18        -2.7070   -1.4430   -0.1020 s6        1 0X9      1.576800
      7 O20        -2.2050   -2.2340    0.9820 o         1 0X9     -0.696300
      8 N19        -3.9200   -0.5670    0.4760 n3        1 0X9     -1.031700
      9 O21        -3.1280   -2.2380   -1.2140 o         1 0X9     -0.696300
     10 C12         0.3430    1.0990   -0.2550 c3        1 0X9     -0.067400
     11 C11         1.3450    0.0190    0.0880 c3        1 0X9     -0.090400
     12 C30         2.7660    0.5190   -0.1790 c3        1 0X9      0.181800
     13 N13         3.7620   -0.5000    0.1000 nh        1 0X9     -0.798200
     14 C31         5.1420   -0.1200    0.0650 c2        1 0X9      0.741100
     15 N16         5.5130    1.0480   -0.4030 n2        1 0X9     -0.869100
     16 N15         6.0620   -1.1150    0.5660 nh        1 0X9     -0.933800
     17 H2         -1.0840    0.3800    1.2080 h1        1 0X9      0.046700
     18 H3         -1.4830   -0.2700   -1.6270 hn        1 0X9      0.440800
     19 H4         -4.1950    0.3090    0.0770 hn        1 0X9      0.456800
     20 H5         -4.2970   -0.7120    1.3760 hn        1 0X9      0.456800
     21 H6          0.4000    1.3390   -1.3480 hc        1 0X9      0.059200
     22 H7          0.5760    2.0420    0.3100 hc        1 0X9      0.059200
     23 H8          1.2330   -0.2640    1.1680 hc        1 0X9      0.044200
     24 H9          1.1410   -0.9000   -0.5210 hc        1 0X9      0.044200
     25 H10         2.8660    0.8020   -1.2640 h1        1 0X9      0.052700
     26 H11         2.9410    1.4530    0.4310 h1        1 0X9      0.052700
     27 H12         3.5330   -1.0280    0.9210 hn        1 0X9      0.390800
     28 H13         6.4980    1.1790   -0.4800 hn        1 0X9      0.377400
     29 H15         5.6680   -2.0240    0.6860 hn        1 0X9      0.377800
     30 H16         6.9040   -1.1590    0.0330 hn        1 0X9      0.377800
@<TRIPOS>BOND
     1    1    2 1   
     2    2    3 1   
     3    2    4 1   
     4    4    5 1   
     5    4   10 1   
     6    4   17 1   
     7    5    6 1   
     8    5   18 1   
     9    6    7 2   
    10    6    8 1   
    11    6    9 2   
    12    8   19 1   
    13    8   20 1   
    14   10   11 1   
    15   10   21 1   
    16   10   22 1   
    17   11   12 1   
    18   11   23 1   
    19   11   24 1   
    20   12   13 1   
    21   12   25 1   
    22   12   26 1   
    23   13   14 1   
    24   13   27 1   
    25   14   15 2   
    26   14   16 1   
    27   15   28 1   
    28   16   29 1   
    29   16   30 1   
@<TRIPOS>SUBSTRUCTURE
     1 0X9         1 TEMP              0 ****  ****    0 ROOT
