@<TRIPOS>MOLECULE
0X9
   30    26     1     0     0
SMALL
bcc


@<TRIPOS>ATOM
      1 O15        -1.5970    0.7400   -2.9910 o         1 0X9     -0.548000
      2 C14        -0.5370    1.1630   -2.4430 c1        1 0X9      0.344000
      3 O16         0.4710    1.4120   -3.1400 os        1 0X9     -0.579000
      4 C13        -0.5020    1.4050   -0.9510 c3        1 0X9     -0.052000
      5 N17        -1.5550    2.3090   -0.5870 n3        1 0X9     -0.888000
      6 S18        -1.4690    3.9030   -1.0280 s4        1 0X9      2.022800
      7 O20        -1.7080    4.0690   -2.4390 o         1 0X9     -0.564400
      8 N19        -2.5210    4.7980   -0.1360 n2        1 0X9     -0.954000
      9 O21        -0.1230    4.4060   -0.9090 o         1 0X9     -0.564400
     10 C12        -0.6900    0.0820   -0.2150 c3        1 0X9     -0.156000
     11 C11         0.6930   -0.5160    0.1360 c3        1 0X9     -0.182000
     12 C30         0.5010   -1.8370    0.9190 c3        1 0X9     -0.088000
     13 N13         1.7800   -2.4890    1.0840 n3        1 0X9     -0.317000
     14 C31         1.8500   -3.8000    1.6740 c2        1 0X9      0.146000
     15 N16         1.1390   -4.0780    2.7530 n1        1 0X9     -0.344000
     16 N15         2.6880   -4.8040    1.0920 n3        1 0X9     -0.350000
     17 H2          0.3580    1.7940   -0.7050 h1        1 0X9      0.102000
     18 H3         -2.2740    2.0040   -0.1220 hn        1 0X9      0.273000
     19 H4         -3.3930    4.8660   -0.3940 hn        1 0X9      0.225000
     20 H5         -2.2170    5.2830    0.5730 hn        1 0X9      0.225000
     21 H6         -1.1980    0.2350    0.6090 hc        1 0X9      0.063500
     22 H7         -1.1790   -0.5430   -0.7880 hc        1 0X9      0.063500
     23 H8          1.1890   -0.6940   -0.6860 hc        1 0X9      0.085500
     24 H9          1.1920    0.1190    0.6860 hc        1 0X9      0.085500
     25 H10        -0.1060   -2.4270    0.4210 h1        1 0X9      0.107000
     26 H11         0.1150   -1.6410    1.8040 h1        1 0X9      0.107000
     27 H12         2.5380   -2.0770    0.8050 hn        1 0X9      0.162000
     28 H13         0.6060   -3.4400    3.1230 DU        1 0X9      0.139000
     29 H15         2.7120   -5.6520    1.4550 hn        1 0X9      0.217000
     30 H16         3.2400   -4.5900    0.3990 hn        1 0X9      0.217000
@<TRIPOS>BOND
     1    1    2 1   
     2    2    4 1   
     3    4    5 1   
     4    4   10 1   
     5    4   17 1   
     6    5    6 1   
     7    5   18 1   
     8    6    7 1   
     9    6    9 1   
    10    8   19 1   
    11    8   20 1   
    12   10   11 1   
    13   10   21 1   
    14   10   22 1   
    15   11   12 1   
    16   11   23 1   
    17   11   24 1   
    18   12   13 1   
    19   12   25 1   
    20   12   26 1   
    21   13   14 1   
    22   13   27 1   
    23   14   15 1   
    24   14   16 1   
    25   16   29 1   
    26   16   30 1   
@<TRIPOS>SUBSTRUCTURE
     1 0X9         1 TEMP              0 ****  ****    0 ROOT
