@<TRIPOS>MOLECULE
0XA
   80    82     1     0     0
SMALL
bcc


@<TRIPOS>ATOM
      1 O21         0.2840   -0.6400   -0.2440 o         1 0XA     -0.474100
      2 C18         1.4840   -0.5550   -0.0130 c         1 0XA      0.599700
      3 C3          2.1860   -0.2050    1.2140 ca        1 0XA     -0.228600
      4 C2          1.4720    0.4970    2.2050 ca        1 0XA     -0.025000
      5 N19         2.4010   -0.8140   -1.2020 n4        1 0XA     -0.684800
      6 C20         1.7700   -1.1620   -2.5170 c3        1 0XA      0.087500
      7 C22         0.9260   -2.4680   -2.4470 c3        1 0XA      0.134100
      8 O28         1.3910   -3.4580   -3.3360 oh        1 0XA     -0.601800
      9 C23        -0.5220   -2.1520   -2.8990 c3        1 0XA      0.101800
     10 N24        -1.3610   -3.3730   -2.9800 n4        1 0XA     -0.761000
     11 C25        -2.7630   -3.1260   -3.5560 c3        1 0XA      0.174900
     12 C27        -2.6790   -2.6750   -5.0160 c3        1 0XA     -0.130600
     13 C29        -3.4970   -4.4380   -3.4850 cc        1 0XA      0.351700
     14 O33        -4.7550   -4.4840   -4.1020 os        1 0XA     -0.343800
     15 C32        -5.2160   -5.7890   -3.8810 cc        1 0XA      0.250700
     16 C34        -6.5510   -6.1520   -4.4260 c3        1 0XA     -0.090300
     17 C37        -7.6140   -5.2470   -3.8100 c3        1 0XA     -0.094767
     18 C36        -6.5460   -5.9800   -5.9410 c3        1 0XA     -0.094767
     19 C35        -6.8510   -7.6050   -4.0760 c3        1 0XA     -0.094767
     20 C31        -4.2290   -6.4630   -3.1530 cd        1 0XA      0.231900
     21 N30        -3.1630   -5.6000   -2.9140 nd        1 0XA     -0.659000
     22 C26        -3.5180   -2.0880   -2.7240 c3        1 0XA     -0.130600
     23 C16         2.8950   -1.2770   -3.5820 c3        1 0XA      0.102400
     24 O15         3.8680   -2.1570   -3.0330 os        1 0XA     -0.486600
     25 C14         5.2060   -1.9690   -3.5240 c3        1 0XA      0.167600
     26 C13         5.7630   -0.6260   -3.2150 c2        1 0XA     -0.265200
     27 C12         6.3370   -0.2570   -2.0650 c2        1 0XA     -0.112200
     28 C11         6.4600   -1.0860   -0.8420 c3        1 0XA     -0.071200
     29 C10         6.4970   -0.2250    0.4090 c3        1 0XA     -0.080400
     30 C9          6.4060   -1.0560    1.6750 c3        1 0XA     -0.181400
     31 C8          5.6490   -0.3580    2.7740 c         1 0XA      0.564700
     32 O17         6.1970   -0.0180    3.8240 o         1 0XA     -0.461100
     33 C5          4.1960   -0.0930    2.5670 ca        1 0XA     -0.151600
     34 C4          3.5380   -0.5280    1.4210 ca        1 0XA     -0.077000
     35 C6          3.4830    0.6210    3.5450 ca        1 0XA      0.001000
     36 C1          2.1200    0.9040    3.3740 ca        1 0XA     -0.062300
     37 C7          1.3810    1.6330    4.4320 c3        1 0XA     -0.077800
     38 H1          0.4040    0.7290    2.0520 ha        1 0XA      0.170000
     39 H2          3.0490   -1.5830   -0.9630 hn        1 0XA      0.473800
     40 H3          1.0980   -0.2970   -2.7990 hx        1 0XA      0.120700
     41 H4          0.9110   -2.8770   -1.3950 h1        1 0XA      0.067700
     42 H5          2.2960   -3.7120   -3.0880 ho        1 0XA      0.469000
     43 H6         -0.9830   -1.4360   -2.1570 hx        1 0XA      0.122700
     44 H7         -0.4970   -1.6780   -3.9220 hx        1 0XA      0.122700
     45 H8         -1.4660   -3.7790   -2.0410 hn        1 0XA      0.473300
     46 H10        -3.7180   -2.6980   -5.4410 hc        1 0XA      0.086033
     47 H11        -2.2940   -1.6310   -5.0950 hc        1 0XA      0.086033
     48 H12        -2.0450   -3.3610   -5.6290 hc        1 0XA      0.086033
     49 H13        -8.6150   -5.5080   -4.2320 hc        1 0XA      0.054367
     50 H14        -7.6490   -5.3800   -2.7030 hc        1 0XA      0.054367
     51 H15        -7.3940   -4.1780   -4.0420 hc        1 0XA      0.054367
     52 H16        -5.7920   -6.6550   -6.4110 hc        1 0XA      0.054367
     53 H17        -6.3070   -4.9230   -6.2100 hc        1 0XA      0.054367
     54 H18        -7.5550   -6.2350   -6.3480 hc        1 0XA      0.054367
     55 H19        -6.0850   -8.2840   -4.5220 hc        1 0XA      0.054367
     56 H20        -7.8540   -7.8830   -4.4830 hc        1 0XA      0.054367
     57 H21        -6.8630   -7.7500   -2.9690 hc        1 0XA      0.054367
     58 H22        -4.2230   -7.4960   -2.7940 h4        1 0XA      0.084100
     59 H23        -4.5810   -2.0720   -3.0850 hc        1 0XA      0.086033
     60 H24        -3.0840   -1.0690   -2.8630 hc        1 0XA      0.086033
     61 H25        -3.5290   -2.3510   -1.6390 hc        1 0XA      0.086033
     62 H26         3.3320   -0.2680   -3.8040 h1        1 0XA      0.093200
     63 H27         2.4720   -1.7240   -4.5210 h1        1 0XA      0.093200
     64 H28         5.2120   -2.1550   -4.6310 h1        1 0XA      0.086200
     65 H29         5.7680   -2.7920   -2.9980 h1        1 0XA      0.086200
     66 H30         5.7610    0.0770   -4.0670 ha        1 0XA      0.147000
     67 H31         6.7970    0.7480   -1.9890 ha        1 0XA      0.153000
     68 H32         7.4110   -1.6880   -0.9070 hc        1 0XA      0.058200
     69 H33         5.6140   -1.8240   -0.7850 hc        1 0XA      0.058200
     70 H34         7.4530    0.3660    0.4220 hc        1 0XA      0.057700
     71 H35         5.6610    0.5230    0.3720 hc        1 0XA      0.057700
     72 H36         5.9150   -2.0470    1.4790 hc        1 0XA      0.085200
     73 H37         7.4450   -1.2800    2.0500 hc        1 0XA      0.085200
     74 H38         4.1030   -1.1460    0.7060 ha        1 0XA      0.133000
     75 H39         4.0120    0.9560    4.4590 ha        1 0XA      0.199000
     76 H40         1.3140    1.0020    5.3560 hc        1 0XA      0.076367
     77 H41         1.9150    2.5810    4.6980 hc        1 0XA      0.076367
     78 H42         0.3430    1.8910    4.1060 hc        1 0XA      0.076367
     79 H192        2.9760    0.0290   -1.3420 hn        1 0XA      0.473800
     80 H242       -0.8860   -4.0680   -3.5770 hn        1 0XA      0.473300
@<TRIPOS>BOND
     1    1    2 2   
     2    2    3 1   
     3    2    5 1   
     4    3    4 ar  
     5    3   34 ar  
     6    4   36 ar  
     7    4   38 1   
     8    5    6 1   
     9    5   39 1   
    10    5   79 1   
    11    6    7 1   
    12    6   23 1   
    13    6   40 1   
    14    7    8 1   
    15    7    9 1   
    16    7   41 1   
    17    8   42 1   
    18    9   10 1   
    19    9   43 1   
    20    9   44 1   
    21   10   11 1   
    22   10   45 1   
    23   10   80 1   
    24   11   12 1   
    25   11   13 1   
    26   11   22 1   
    27   12   46 1   
    28   12   47 1   
    29   12   48 1   
    30   13   14 1   
    31   13   21 2   
    32   14   15 1   
    33   15   16 1   
    34   15   20 2   
    35   16   17 1   
    36   16   18 1   
    37   16   19 1   
    38   17   49 1   
    39   17   50 1   
    40   17   51 1   
    41   18   52 1   
    42   18   53 1   
    43   18   54 1   
    44   19   55 1   
    45   19   56 1   
    46   19   57 1   
    47   20   21 1   
    48   20   58 1   
    49   22   59 1   
    50   22   60 1   
    51   22   61 1   
    52   23   24 1   
    53   23   62 1   
    54   23   63 1   
    55   24   25 1   
    56   25   26 1   
    57   25   64 1   
    58   25   65 1   
    59   26   27 2   
    60   26   66 1   
    61   27   28 1   
    62   27   67 1   
    63   28   29 1   
    64   28   68 1   
    65   28   69 1   
    66   29   30 1   
    67   29   70 1   
    68   29   71 1   
    69   30   31 1   
    70   30   72 1   
    71   30   73 1   
    72   31   32 2   
    73   31   33 1   
    74   33   34 ar  
    75   33   35 ar  
    76   34   74 1   
    77   35   36 ar  
    78   35   75 1   
    79   36   37 1   
    80   37   76 1   
    81   37   77 1   
    82   37   78 1   
@<TRIPOS>SUBSTRUCTURE
     1 0XA         1 TEMP              0 ****  ****    0 ROOT
