@<TRIPOS>MOLECULE
0XA
   80    82     1     0     0
SMALL
bcc


@<TRIPOS>ATOM
      1 O21         0.5610   -1.3460    1.2690 o         1 0XA     -0.479100
      2 C18         1.7700   -1.2220    1.0990 c         1 0XA      0.596700
      3 C3          2.7550   -0.5930    1.9640 ca        1 0XA     -0.219600
      4 C2          2.2540    0.0730    3.1030 ca        1 0XA     -0.025000
      5 N19         2.2800   -1.8180   -0.2090 ny        1 0XA     -0.684800
      6 C20         1.3480   -1.6540   -1.3770 c3        1 0XA      0.123500
      7 C22         0.2040   -2.7020   -1.3380 c3        1 0XA      0.099100
      8 O28         0.7810   -3.9950   -1.2920 oh        1 0XA     -0.604800
      9 C23        -0.6460   -2.5990   -2.6230 c3        1 0XA      0.085800
     10 N24        -1.8000   -3.5300   -2.5980 ny        1 0XA     -0.768000
     11 C25        -2.6620   -3.4950   -3.8730 c3        1 0XA      0.177900
     12 C27        -1.8440   -3.9190   -5.0940 c3        1 0XA     -0.132600
     13 C29        -3.7780   -4.4800   -3.6600 cc        1 0XA      0.346700
     14 O33        -4.7180   -4.5930   -4.6940 os        1 0XA     -0.340800
     15 C32        -5.6260   -5.5630   -4.2500 cc        1 0XA      0.254700
     16 C34        -6.7610   -5.9090   -5.1470 c3        1 0XA     -0.091300
     17 C37        -7.6030   -4.6630   -5.4060 c3        1 0XA     -0.095433
     18 C36        -6.2190   -6.4460   -6.4680 c3        1 0XA     -0.095433
     19 C35        -7.6180   -6.9750   -4.4730 c3        1 0XA     -0.095433
     20 C31        -5.2020   -5.9860   -2.9850 cd        1 0XA      0.232900
     21 N30        -4.0430   -5.2970   -2.6350 nd        1 0XA     -0.664000
     22 C26        -3.2530   -2.1010   -4.0890 c3        1 0XA     -0.132600
     23 C16         2.1490   -1.7290   -2.7010 c3        1 0XA      0.108400
     24 O15         3.2430   -0.8400   -2.5470 os        1 0XA     -0.462600
     25 C14         4.2500   -0.9800   -3.5730 c3        1 0XA      0.178600
     26 C13         5.1080    0.2320   -3.5100 c2        1 0XA     -0.206200
     27 C12         6.0400    0.4870   -2.5880 c2        1 0XA     -0.105200
     28 C11         6.3900   -0.3710   -1.4310 c3        1 0XA     -0.056200
     29 C10         6.5160    0.4470   -0.1590 c3        1 0XA     -0.080400
     30 C9          6.9870   -0.4060    1.0030 c3        1 0XA     -0.180400
     31 C8          6.4790    0.0990    2.3250 c         1 0XA      0.565700
     32 O17         7.2420    0.5290    3.1920 o         1 0XA     -0.467100
     33 C5          5.0090    0.0610    2.5750 ca        1 0XA     -0.155600
     34 C4          4.1390   -0.6090    1.7180 ca        1 0XA     -0.061000
     35 C6          4.5010    0.7240    3.7050 ca        1 0XA      0.002000
     36 C1          3.1260    0.7270    3.9760 ca        1 0XA     -0.066300
     37 C7          2.6130    1.4190    5.1810 c3        1 0XA     -0.076800
     38 H1          1.1680    0.0760    3.3010 ha        1 0XA      0.172000
     39 H2          3.1660   -1.3480   -0.4720 hn        1 0XA      0.477300
     40 H3          0.8900   -0.6230   -1.2870 hx        1 0XA      0.130700
     41 H4         -0.4360   -2.4970   -0.4300 h1        1 0XA      0.105700
     42 H5          0.4290   -4.4660   -0.5230 ho        1 0XA      0.447000
     43 H6         -0.0110   -2.8700   -3.5170 hx        1 0XA      0.123700
     44 H7         -1.0270   -1.5440   -2.7370 hx        1 0XA      0.123700
     45 H8         -2.4120   -3.3090   -1.8020 hn        1 0XA      0.467300
     46 H10        -2.5600   -4.0620   -5.9480 hc        1 0XA      0.087200
     47 H11        -1.3150   -4.8890   -4.9270 hc        1 0XA      0.087200
     48 H12        -1.1090   -3.1300   -5.3830 hc        1 0XA      0.087200
     49 H13        -6.9810   -3.8680   -5.8810 hc        1 0XA      0.055033
     50 H14        -8.0300   -4.2720   -4.4520 hc        1 0XA      0.055033
     51 H15        -8.4450   -4.9200   -6.0940 hc        1 0XA      0.055033
     52 H16        -7.0720   -6.6900   -7.1470 hc        1 0XA      0.055033
     53 H17        -5.6220   -7.3740   -6.2990 hc        1 0XA      0.055033
     54 H18        -5.5740   -5.6810   -6.9610 hc        1 0XA      0.055033
     55 H19        -8.4720   -7.2390   -5.1430 hc        1 0XA      0.055033
     56 H20        -8.0270   -6.5980   -3.5050 hc        1 0XA      0.055033
     57 H21        -7.0190   -7.8970   -4.2790 hc        1 0XA      0.055033
     58 H22        -5.6510   -6.7300   -2.3210 h4        1 0XA      0.085100
     59 H23        -4.0070   -2.1780   -4.9180 hc        1 0XA      0.087200
     60 H24        -2.4670   -1.3710   -4.3970 hc        1 0XA      0.087200
     61 H25        -3.7840   -1.7270   -3.1800 hc        1 0XA      0.087200
     62 H26         2.4970   -2.7770   -2.8990 h1        1 0XA      0.069700
     63 H27         1.4960   -1.3710   -3.5410 h1        1 0XA      0.069700
     64 H28         3.7490   -1.0630   -4.5740 h1        1 0XA      0.052700
     65 H29         4.8260   -1.9220   -3.3630 h1        1 0XA      0.052700
     66 H30         4.9380    0.9480   -4.3330 ha        1 0XA      0.153000
     67 H31         6.6460    1.4090   -2.6730 ha        1 0XA      0.153000
     68 H32         5.6190   -1.1760   -1.2860 hc        1 0XA      0.046200
     69 H33         7.3700   -0.8810   -1.6460 hc        1 0XA      0.046200
     70 H34         7.2470    1.2850   -0.3210 hc        1 0XA      0.060200
     71 H35         5.5260    0.9200    0.0770 hc        1 0XA      0.060200
     72 H36         6.6660   -1.4750    0.8780 hc        1 0XA      0.080700
     73 H37         8.1130   -0.4090    1.0330 hc        1 0XA      0.080700
     74 H38         4.5770   -1.1480    0.8630 ha        1 0XA      0.132000
     75 H39         5.2050    1.2420    4.3860 ha        1 0XA      0.197000
     76 H40         2.9990    0.9170    6.1050 hc        1 0XA      0.074700
     77 H41         1.4960    1.4110    5.2160 hc        1 0XA      0.074700
     78 H42         2.9600    2.4840    5.1950 hc        1 0XA      0.074700
     79 H192        2.4690   -2.8180   -0.0740 hn        1 0XA      0.477300
     80 H242       -1.4490   -4.4920   -2.4810 hn        1 0XA      0.467300
@<TRIPOS>BOND
     1    1    2 2   
     2    2    3 1   
     3    2    5 1   
     4    3    4 ar  
     5    3   34 ar  
     6    4   36 ar  
     7    4   38 1   
     8    5    6 1   
     9    5   39 1   
    10    5   79 1   
    11    6    7 1   
    12    6   23 1   
    13    6   40 1   
    14    7    8 1   
    15    7    9 1   
    16    7   41 1   
    17    8   42 1   
    18    9   10 1   
    19    9   43 1   
    20    9   44 1   
    21   10   11 1   
    22   10   45 1   
    23   10   80 1   
    24   11   12 1   
    25   11   13 1   
    26   11   22 1   
    27   12   46 1   
    28   12   47 1   
    29   12   48 1   
    30   13   14 1   
    31   13   21 2   
    32   14   15 1   
    33   15   16 1   
    34   15   20 2   
    35   16   17 1   
    36   16   18 1   
    37   16   19 1   
    38   17   49 1   
    39   17   50 1   
    40   17   51 1   
    41   18   52 1   
    42   18   53 1   
    43   18   54 1   
    44   19   55 1   
    45   19   56 1   
    46   19   57 1   
    47   20   21 1   
    48   20   58 1   
    49   22   59 1   
    50   22   60 1   
    51   22   61 1   
    52   23   24 1   
    53   23   62 1   
    54   23   63 1   
    55   24   25 1   
    56   25   26 1   
    57   25   64 1   
    58   25   65 1   
    59   26   27 2   
    60   26   66 1   
    61   27   28 1   
    62   27   67 1   
    63   28   29 1   
    64   28   68 1   
    65   28   69 1   
    66   29   30 1   
    67   29   70 1   
    68   29   71 1   
    69   30   31 1   
    70   30   72 1   
    71   30   73 1   
    72   31   32 2   
    73   31   33 1   
    74   33   34 ar  
    75   33   35 ar  
    76   34   74 1   
    77   35   36 ar  
    78   35   75 1   
    79   36   37 1   
    80   37   76 1   
    81   37   77 1   
    82   37   78 1   
@<TRIPOS>SUBSTRUCTURE
     1 0XA         1 TEMP              0 ****  ****    0 ROOT
