@<TRIPOS>MOLECULE
0XA
   78    80     1     0     0
SMALL
bcc


@<TRIPOS>ATOM
      1 O21         2.2310    0.0650    3.4260 o         1 0XA     -0.616100
      2 C18         2.3610   -0.1390    2.1990 c         1 0XA      0.672700
      3 C3          3.2890   -1.1910    1.6900 ca        1 0XA     -0.150600
      4 C2          3.6360   -2.2190    2.5780 ca        1 0XA     -0.054000
      5 N19         1.6500    0.6110    1.2830 n         1 0XA     -0.561900
      6 C20         0.6310    1.5520    1.6850 c3        1 0XA      0.046700
      7 C22        -0.7100    1.2620    0.9630 c3        1 0XA      0.094100
      8 O28        -0.5650    1.2450   -0.4440 oh        1 0XA     -0.612800
      9 C23        -1.7940    2.2690    1.3970 c3        1 0XA      0.134800
     10 N24        -3.1170    2.0270    0.8770 n3        1 0XA     -0.812200
     11 C25        -4.0340    1.2530    1.7290 c3        1 0XA      0.180900
     12 C27        -4.4520    2.0570    2.9730 c3        1 0XA     -0.106600
     13 C29        -5.2820    0.9440    0.9240 cc        1 0XA      0.484700
     14 O33        -5.0800    0.2270   -0.2730 os        1 0XA     -0.386800
     15 C32        -6.3600    0.0560   -0.8170 cc        1 0XA      0.169700
     16 C34        -6.4680   -0.6740   -2.1040 c3        1 0XA     -0.075300
     17 C37        -5.6720    0.0630   -3.1770 c3        1 0XA     -0.088767
     18 C36        -5.9120   -2.0850   -1.9410 c3        1 0XA     -0.088767
     19 C35        -7.9330   -0.7500   -2.5190 c3        1 0XA     -0.088767
     20 C31        -7.2630    0.6580    0.0520 cd        1 0XA      0.225900
     21 N30        -6.5690    1.2130    1.1370 nd        1 0XA     -0.658000
     22 C26        -3.4850   -0.1050    2.2070 c3        1 0XA     -0.106600
     23 C16         1.0850    3.0170    1.5120 c3        1 0XA      0.115400
     24 O15         1.0640    3.4410    0.1570 os        1 0XA     -0.436600
     25 C14         2.3270    3.4900   -0.5020 c3        1 0XA      0.161600
     26 C13         2.5160    2.3190   -1.4020 c2        1 0XA     -0.206200
     27 C12         3.6820    2.0600   -1.9990 c2        1 0XA     -0.169200
     28 C11         3.8920    0.9460   -2.9570 c3        1 0XA     -0.052200
     29 C10         4.9890    0.0030   -2.4840 c3        1 0XA     -0.072400
     30 C9          4.5240   -1.4410   -2.4430 c3        1 0XA     -0.178400
     31 C8          5.2560   -2.2190   -1.3800 c         1 0XA      0.577700
     32 O17         6.2680   -2.8770   -1.6490 o         1 0XA     -0.527100
     33 C5          4.6900   -2.1920   -0.0120 ca        1 0XA     -0.180600
     34 C4          3.8210   -1.1740    0.4000 ca        1 0XA     -0.071000
     35 C6          5.0350   -3.2150    0.8810 ca        1 0XA     -0.057000
     36 C1          4.5100   -3.2340    2.1770 ca        1 0XA     -0.097300
     37 C7          4.8910   -4.3090    3.1220 c3        1 0XA     -0.055800
     38 H1          3.2200   -2.2100    3.5990 ha        1 0XA      0.163000
     39 H2          1.6800    0.3880    0.3160 hn        1 0XA      0.324500
     40 H3          0.4460    1.4160    2.7970 h1        1 0XA      0.094700
     41 H4         -1.0370    0.2090    1.2100 h1        1 0XA      0.078700
     42 H5         -0.3850    2.1520   -0.7320 ho        1 0XA      0.425000
     43 H6         -1.8080    2.3180    2.5200 h1        1 0XA      0.064200
     44 H7         -1.4980    3.2870    1.0030 h1        1 0XA      0.064200
     45 H8         -3.0580    1.6040   -0.0340 hn        1 0XA      0.385800
     46 H10        -4.8940    3.0380    2.6790 hc        1 0XA      0.050033
     47 H11        -5.2120    1.4770    3.5490 hc        1 0XA      0.050033
     48 H12        -3.5700    2.2380    3.6310 hc        1 0XA      0.050033
     49 H13        -4.6030    0.1490   -2.8680 hc        1 0XA      0.043144
     50 H14        -5.7280   -0.4960   -4.1410 hc        1 0XA      0.043144
     51 H15        -6.0840    1.0880   -3.3310 hc        1 0XA      0.043144
     52 H16        -6.5020   -2.6500   -1.1800 hc        1 0XA      0.043144
     53 H17        -5.9650   -2.6280   -2.9140 hc        1 0XA      0.043144
     54 H18        -4.8470   -2.0390   -1.6080 hc        1 0XA      0.043144
     55 H19        -8.3550    0.2760   -2.6470 hc        1 0XA      0.043144
     56 H20        -8.0190   -1.2970   -3.4880 hc        1 0XA      0.043144
     57 H21        -8.5300   -1.2900   -1.7460 hc        1 0XA      0.043144
     58 H22        -8.3470    0.7370   -0.0220 h4        1 0XA      0.051100
     59 H23        -2.5950    0.0500    2.8620 hc        1 0XA      0.050033
     60 H24        -4.2700   -0.6390    2.7940 hc        1 0XA      0.050033
     61 H25        -3.1970   -0.7420    1.3360 hc        1 0XA      0.050033
     62 H26         0.3380    3.6850    2.0240 h1        1 0XA      0.060700
     63 H27         2.0920    3.1690    1.9810 h1        1 0XA      0.060700
     64 H28         2.2710    4.4340   -1.1180 h1        1 0XA      0.058200
     65 H29         3.1710    3.5830    0.2320 h1        1 0XA      0.058200
     66 H30         1.6170    1.7020   -1.5730 ha        1 0XA      0.142000
     67 H31         4.5710    2.6860   -1.8110 ha        1 0XA      0.124000
     68 H32         2.9320    0.3860   -3.1200 hc        1 0XA      0.052700
     69 H33         4.1800    1.3840   -3.9520 hc        1 0XA      0.052700
     70 H34         5.8740    0.0820   -3.1680 hc        1 0XA      0.053200
     71 H35         5.3470    0.3150   -1.4660 hc        1 0XA      0.053200
     72 H36         3.4220   -1.5050   -2.2420 hc        1 0XA      0.068200
     73 H37         4.7110   -1.9240   -3.4390 hc        1 0XA      0.068200
     74 H38         3.5830   -0.3550   -0.3000 ha        1 0XA      0.146000
     75 H39         5.7310   -4.0040    0.5500 ha        1 0XA      0.158000
     76 H40         5.8270   -4.0230    3.6660 hc        1 0XA      0.050367
     77 H41         4.0860   -4.4840    3.8770 hc        1 0XA      0.050367
     78 H42         5.0820   -5.2680    2.5790 hc        1 0XA      0.050367
@<TRIPOS>BOND
     1    1    2 2   
     2    2    3 1   
     3    2    5 1   
     4    3    4 ar  
     5    3   34 ar  
     6    4   36 ar  
     7    4   38 1   
     8    5    6 1   
     9    5   39 1   
    10    6    7 1   
    11    6   23 1   
    12    6   40 1   
    13    7    8 1   
    14    7    9 1   
    15    7   41 1   
    16    8   42 1   
    17    9   10 1   
    18    9   43 1   
    19    9   44 1   
    20   10   11 1   
    21   10   45 1   
    22   11   12 1   
    23   11   13 1   
    24   11   22 1   
    25   12   46 1   
    26   12   47 1   
    27   12   48 1   
    28   13   14 1   
    29   13   21 2   
    30   14   15 1   
    31   15   16 1   
    32   15   20 2   
    33   16   17 1   
    34   16   18 1   
    35   16   19 1   
    36   17   49 1   
    37   17   50 1   
    38   17   51 1   
    39   18   52 1   
    40   18   53 1   
    41   18   54 1   
    42   19   55 1   
    43   19   56 1   
    44   19   57 1   
    45   20   21 1   
    46   20   58 1   
    47   22   59 1   
    48   22   60 1   
    49   22   61 1   
    50   23   24 1   
    51   23   62 1   
    52   23   63 1   
    53   24   25 1   
    54   25   26 1   
    55   25   64 1   
    56   25   65 1   
    57   26   27 2   
    58   26   66 1   
    59   27   28 1   
    60   27   67 1   
    61   28   29 1   
    62   28   68 1   
    63   28   69 1   
    64   29   30 1   
    65   29   70 1   
    66   29   71 1   
    67   30   31 1   
    68   30   72 1   
    69   30   73 1   
    70   31   32 2   
    71   31   33 1   
    72   33   34 ar  
    73   33   35 ar  
    74   34   74 1   
    75   35   36 ar  
    76   35   75 1   
    77   36   37 1   
    78   37   76 1   
    79   37   77 1   
    80   37   78 1   
@<TRIPOS>SUBSTRUCTURE
     1 0XA         1 TEMP              0 ****  ****    0 ROOT
