@<TRIPOS>MOLECULE
0XA
   78    71     1     0     0
SMALL
bcc


@<TRIPOS>ATOM
      1 O21         0.1210    1.8910   -0.7630 o         1 0XA     -0.366000
      2 C18         1.2740    1.9560   -0.8130 c1        1 0XA      0.349000
      3 C3          2.1300    2.0340    0.5260 c1        1 0XA     -0.118000
      4 C2          1.5270    2.4690    1.7280 c1        1 0XA     -0.069000
      5 N19         1.9840    1.2390   -1.8110 n3        1 0XA     -0.379000
      6 C20         1.0880    0.5210   -2.6260 c3        1 0XA      0.007000
      7 C22         0.5210   -0.6350   -1.8560 c3        1 0XA      0.020000
      8 O28         1.2240   -1.8200   -2.1860 oh        1 0XA     -0.335000
      9 C23        -0.9480   -0.8070   -2.2100 c3        1 0XA     -0.119000
     10 N24        -1.6910   -1.2830   -1.0200 n3        1 0XA     -0.295000
     11 C25        -3.0550   -1.3550   -1.3170 c3        1 0XA      0.122000
     12 C27        -3.3230   -2.5730   -2.1640 c3        1 0XA     -0.209000
     13 C29        -3.8790   -1.4610    0.0310 c2        1 0XA     -0.044000
     14 O33        -4.9900   -0.7120    0.3670 os        1 0XA     -0.111000
     15 C32        -5.3590   -1.0530    1.6170 c1        1 0XA     -0.060000
     16 C34        -6.6250   -0.5170    2.3890 c2        1 0XA      0.019000
     17 C37        -7.6270   -1.6240    2.5350 c3        1 0XA     -0.206667
     18 C36        -6.2220   -0.0400    3.7230 c3        1 0XA     -0.206667
     19 C35        -7.2570    0.6480    1.5980 c3        1 0XA     -0.206667
     20 C31        -4.4710   -2.0290    2.0760 c1        1 0XA     -0.173000
     21 N30        -3.5730   -2.2680    1.0980 n2        1 0XA     -0.154000
     22 C26        -3.4940   -0.0550   -2.1070 c3        1 0XA     -0.209000
     23 C16         1.8400    0.0050   -3.8520 c3        1 0XA     -0.034000
     24 O15         2.5540   -1.2040   -3.4990 os        1 0XA     -0.283000
     25 C14         3.8800   -0.8760   -3.0830 c3        1 0XA      0.001000
     26 C13         4.2810   -1.7740   -1.7450 c2        1 0XA     -0.175000
     27 C12         5.5080   -1.4020   -0.9230 c1        1 0XA     -0.167000
     28 C11         6.4860   -0.3020   -1.4420 c2        1 0XA     -0.138000
     29 C10         7.1730    0.4500   -0.1910 c3        1 0XA     -0.150000
     30 C9          6.3300    0.2120    1.1100 c3        1 0XA     -0.208000
     31 C8          5.8080    1.5430    1.6440 c1        1 0XA      0.268000
     32 O17         6.5920    2.4130    1.9850 o         1 0XA     -0.283000
     33 C5          4.2260    1.8280    1.6850 c1        1 0XA     -0.118000
     34 C4          3.4610    1.7180    0.5080 c1        1 0XA     -0.069000
     35 C6          3.6270    2.2590    2.8710 c1        1 0XA     -0.069000
     36 C1          2.2880    2.5770    2.8930 c1        1 0XA     -0.118000
     37 C7          1.6820    3.2210    4.1450 c2        1 0XA     -0.183000
     38 H1          0.6190    2.6850    1.7430 ha        1 0XA      0.150000
     39 H2          2.7290    1.5770   -2.1590 hn        1 0XA      0.235000
     40 H3          0.3840    1.0920   -2.9030 h1        1 0XA      0.140000
     41 H4          0.6100   -0.4520   -0.8620 h1        1 0XA      0.089000
     42 H5          0.7280   -2.4860   -2.0470 ho        1 0XA      0.219000
     43 H6         -1.0360   -1.4830   -2.9520 h1        1 0XA      0.097500
     44 H7         -1.3120    0.0470   -2.5050 h1        1 0XA      0.097500
     45 H8         -1.5520   -0.6630   -0.2740 hn        1 0XA      0.170000
     46 H10        -3.1420   -2.3610   -3.1190 hc        1 0XA      0.090833
     47 H11        -2.7450   -3.3000   -1.8780 hc        1 0XA      0.090833
     48 H12        -4.2640   -2.8420   -2.0610 hc        1 0XA      0.090833
     49 H13        -8.4540   -1.2680    2.9270 hc        1 0XA      0.082444
     50 H14        -7.2630   -2.3190    3.1180 hc        1 0XA      0.082444
     51 H15        -7.8220   -2.0060    1.6530 hc        1 0XA      0.082444
     52 H16        -5.6260    0.7460    3.6270 hc        1 0XA      0.082444
     53 H17        -7.0250    0.2160    4.2390 hc        1 0XA      0.082444
     54 H18        -5.7650   -0.7260    4.1750 hc        1 0XA      0.082444
     55 H19        -6.6090    1.4150    1.5570 hc        1 0XA      0.082444
     56 H20        -8.0750    0.9370    2.0430 hc        1 0XA      0.082444
     57 H21        -7.4640    0.3560    0.7120 hc        1 0XA      0.082444
     58 H22        -4.4970   -2.4630    2.9560 DU        1 0XA      0.187000
     59 H23        -3.1370   -0.0860   -3.0030 hc        1 0XA      0.090833
     60 H24        -3.1530    0.7260   -1.6540 hc        1 0XA      0.090833
     61 H25        -4.5320   -0.0060   -2.1480 hc        1 0XA      0.090833
     62 H26         2.4680    0.6760   -4.1510 h1        1 0XA      0.108000
     63 H27         1.1800   -0.1940   -4.5930 h1        1 0XA      0.108000
     64 H28         4.5120   -1.0740   -3.8140 h1        1 0XA      0.079000
     65 H29         3.9280    0.1110   -2.8550 h1        1 0XA      0.079000
     66 H30         3.6780   -2.4530   -1.4270 ha        1 0XA      0.144000
     67 H31         5.7470   -1.9340   -0.1270 ha        1 0XA      0.126000
     68 H32         6.0150    0.3150   -1.9540 ha        1 0XA      0.090500
     69 H33         7.2160   -0.7390   -2.0210 ha        1 0XA      0.090500
     70 H34         8.0940    0.0900   -0.0560 hc        1 0XA      0.096500
     71 H35         7.2220    1.4230   -0.3770 hc        1 0XA      0.096500
     72 H36         5.5980   -0.3570    0.9110 hc        1 0XA      0.109500
     73 H37         6.9050   -0.2170    1.8000 hc        1 0XA      0.109500
     74 H38         3.9020    1.4160   -0.3600 ha        1 0XA      0.150000
     75 H39         4.1510    2.3330    3.6750 ha        1 0XA      0.150000
     76 H40         2.2750    3.9510    4.4600 ha        1 0XA      0.089000
     77 H41         1.5920    2.5460    4.8480 ha        1 0XA      0.089000
     78 H42         0.8220    3.5790    3.9350 ha        1 0XA      0.089000
@<TRIPOS>BOND
     1    1    2 1   
     2    2    5 1   
     3    3    4 1   
     4    4   38 1   
     5    5    6 1   
     6    5   39 1   
     7    6    7 1   
     8    6   23 1   
     9    6   40 1   
    10    7    8 1   
    11    7    9 1   
    12    7   41 1   
    13    8   42 1   
    14    9   10 1   
    15    9   43 1   
    16    9   44 1   
    17   10   11 1   
    18   10   45 1   
    19   11   12 1   
    20   11   13 1   
    21   11   22 1   
    22   12   46 1   
    23   12   47 1   
    24   12   48 1   
    25   13   14 1   
    26   13   21 1   
    27   14   15 1   
    28   15   20 1   
    29   16   17 1   
    30   16   18 1   
    31   16   19 1   
    32   17   49 1   
    33   17   50 1   
    34   17   51 1   
    35   18   52 1   
    36   18   53 1   
    37   18   54 1   
    38   19   55 1   
    39   19   56 1   
    40   19   57 1   
    41   20   21 1   
    42   22   59 1   
    43   22   60 1   
    44   22   61 1   
    45   23   24 1   
    46   23   62 1   
    47   23   63 1   
    48   24   25 1   
    49   25   26 1   
    50   25   64 1   
    51   25   65 1   
    52   26   27 1   
    53   26   66 1   
    54   27   67 1   
    55   28   29 1   
    56   28   68 1   
    57   28   69 1   
    58   29   30 1   
    59   29   70 1   
    60   29   71 1   
    61   30   31 1   
    62   30   72 1   
    63   30   73 1   
    64   31   32 1   
    65   33   34 1   
    66   34   74 1   
    67   35   36 1   
    68   35   75 1   
    69   37   76 1   
    70   37   77 1   
    71   37   78 1   
@<TRIPOS>SUBSTRUCTURE
     1 0XA         1 TEMP              0 ****  ****    0 ROOT
