@<TRIPOS>MOLECULE
0XA
   80    82     1     0     0
SMALL
bcc


@<TRIPOS>ATOM
      1 O21         0.5740   -1.3750    1.2760 o         1 0XA     -0.479100
      2 C18         1.7800   -1.2360    1.0970 c         1 0XA      0.596700
      3 C3          2.7640   -0.6010    1.9600 ca        1 0XA     -0.219600
      4 C2          2.2640    0.0470    3.1090 ca        1 0XA     -0.025000
      5 N19         2.2870   -1.8130   -0.2200 n4        1 0XA     -0.684800
      6 C20         1.3430   -1.6510   -1.3790 c3        1 0XA      0.123500
      7 C22         0.2130   -2.7120   -1.3410 c3        1 0XA      0.099100
      8 O28         0.8050   -3.9980   -1.3110 oh        1 0XA     -0.604800
      9 C23        -0.6480   -2.6080   -2.6190 c3        1 0XA      0.085800
     10 N24        -1.7910   -3.5530   -2.5930 n4        1 0XA     -0.768000
     11 C25        -2.6620   -3.5180   -3.8620 c3        1 0XA      0.177900
     12 C27        -1.8480   -3.9270   -5.0910 c3        1 0XA     -0.132600
     13 C29        -3.7670   -4.5160   -3.6490 cc        1 0XA      0.346700
     14 O33        -4.7160   -4.6270   -4.6740 os        1 0XA     -0.340800
     15 C32        -5.6110   -5.6100   -4.2310 cc        1 0XA      0.254700
     16 C34        -6.7510   -5.9580   -5.1200 c3        1 0XA     -0.091300
     17 C37        -7.6060   -4.7170   -5.3590 c3        1 0XA     -0.095433
     18 C36        -6.2180   -6.4770   -6.4510 c3        1 0XA     -0.095433
     19 C35        -7.5920   -7.0380   -4.4480 c3        1 0XA     -0.095433
     20 C31        -5.1690   -6.0420   -2.9750 cd        1 0XA      0.232900
     21 N30        -4.0140   -5.3460   -2.6290 nd        1 0XA     -0.664000
     22 C26        -3.2680   -2.1290   -4.0650 c3        1 0XA     -0.132600
     23 C16         2.1350   -1.7030   -2.7100 c3        1 0XA      0.108400
     24 O15         3.2190   -0.8030   -2.5570 os        1 0XA     -0.462600
     25 C14         4.2200   -0.9210   -3.5920 c3        1 0XA      0.178600
     26 C13         5.0620    0.3020   -3.5250 c2        1 0XA     -0.206200
     27 C12         5.9990    0.5600   -2.6080 c2        1 0XA     -0.105200
     28 C11         6.3690   -0.3040   -1.4620 c3        1 0XA     -0.056200
     29 C10         6.4950    0.5050   -0.1830 c3        1 0XA     -0.080400
     30 C9          6.9860   -0.3530    0.9670 c3        1 0XA     -0.180400
     31 C8          6.4820    0.1340    2.2980 c         1 0XA      0.565700
     32 O17         7.2460    0.5670    3.1620 o         1 0XA     -0.467100
     33 C5          5.0140    0.0750    2.5590 ca        1 0XA     -0.155600
     34 C4          4.1460   -0.5970    1.7020 ca        1 0XA     -0.061000
     35 C6          4.5080    0.7200    3.6990 ca        1 0XA      0.002000
     36 C1          3.1350    0.7030    3.9820 ca        1 0XA     -0.066300
     37 C7          2.6230    1.3770    5.1970 c3        1 0XA     -0.076800
     38 H1          1.1790    0.0340    3.3160 ha        1 0XA      0.172000
     39 H2          3.1650   -1.3300   -0.4850 hn        1 0XA      0.477300
     40 H3          0.8740   -0.6250   -1.2760 hx        1 0XA      0.130700
     41 H4         -0.4240   -2.5230   -0.4260 h1        1 0XA      0.105700
     42 H5          0.4640   -4.4800   -0.5430 ho        1 0XA      0.447000
     43 H6         -0.0170   -2.8650   -3.5200 hx        1 0XA      0.123700
     44 H7         -1.0420   -1.5570   -2.7210 hx        1 0XA      0.123700
     45 H8         -2.4000   -3.3450   -1.7910 hn        1 0XA      0.467300
     46 H10        -2.5680   -4.0710   -5.9410 hc        1 0XA      0.087200
     47 H11        -1.3090   -4.8920   -4.9340 hc        1 0XA      0.087200
     48 H12        -1.1230   -3.1290   -5.3800 hc        1 0XA      0.087200
     49 H13        -6.9960   -3.9110   -5.8320 hc        1 0XA      0.055033
     50 H14        -8.0270   -4.3390   -4.3970 hc        1 0XA      0.055033
     51 H15        -8.4520   -4.9750   -6.0420 hc        1 0XA      0.055033
     52 H16        -7.0740   -6.7220   -7.1250 hc        1 0XA      0.055033
     53 H17        -5.5830   -5.7020   -6.9440 hc        1 0XA      0.055033
     54 H18        -5.6110   -7.4010   -6.2980 hc        1 0XA      0.055033
     55 H19        -6.9830   -7.9560   -4.2690 hc        1 0XA      0.055033
     56 H20        -8.4500   -7.3030   -5.1120 hc        1 0XA      0.055033
     57 H21        -7.9950   -6.6730   -3.4730 hc        1 0XA      0.055033
     58 H22        -5.6050   -6.7970   -2.3150 h4        1 0XA      0.085100
     59 H23        -4.0270   -2.2070   -4.8890 hc        1 0XA      0.087200
     60 H24        -3.7970   -1.7660   -3.1510 hc        1 0XA      0.087200
     61 H25        -2.4910   -1.3900   -4.3740 hc        1 0XA      0.087200
     62 H26         2.4940   -2.7460   -2.9200 h1        1 0XA      0.069700
     63 H27         1.4700   -1.3460   -3.5410 h1        1 0XA      0.069700
     64 H28         3.7110   -1.0010   -4.5900 h1        1 0XA      0.052700
     65 H29         4.8090   -1.8570   -3.3960 h1        1 0XA      0.052700
     66 H30         4.8770    1.0220   -4.3410 ha        1 0XA      0.153000
     67 H31         6.5920    1.4910   -2.6900 ha        1 0XA      0.153000
     68 H32         5.6090   -1.1190   -1.3170 hc        1 0XA      0.046200
     69 H33         7.3530   -0.8000   -1.6900 hc        1 0XA      0.046200
     70 H34         7.2140    1.3530   -0.3440 hc        1 0XA      0.060200
     71 H35         5.5010    0.9630    0.0640 hc        1 0XA      0.060200
     72 H36         8.1110   -0.3420    0.9880 hc        1 0XA      0.080700
     73 H37         6.6760   -1.4240    0.8350 hc        1 0XA      0.080700
     74 H38         4.5830   -1.1230    0.8390 ha        1 0XA      0.132000
     75 H39         5.2110    1.2410    4.3790 ha        1 0XA      0.197000
     76 H40         3.0260    0.8730    6.1140 hc        1 0XA      0.074700
     77 H41         1.5070    1.3520    5.2430 hc        1 0XA      0.074700
     78 H42         2.9550    2.4470    5.2180 hc        1 0XA      0.074700
     79 H192        2.4880   -2.8120   -0.0950 hn        1 0XA      0.477300
     80 H242       -1.4280   -4.5120   -2.4860 hn        1 0XA      0.467300
@<TRIPOS>BOND
     1    1    2 2   
     2    2    3 1   
     3    2    5 1   
     4    3    4 ar  
     5    3   34 ar  
     6    4   36 ar  
     7    4   38 1   
     8    5    6 1   
     9    5   39 1   
    10    5   79 1   
    11    6    7 1   
    12    6   23 1   
    13    6   40 1   
    14    7    8 1   
    15    7    9 1   
    16    7   41 1   
    17    8   42 1   
    18    9   10 1   
    19    9   43 1   
    20    9   44 1   
    21   10   11 1   
    22   10   45 1   
    23   10   80 1   
    24   11   12 1   
    25   11   13 1   
    26   11   22 1   
    27   12   46 1   
    28   12   47 1   
    29   12   48 1   
    30   13   14 1   
    31   13   21 2   
    32   14   15 1   
    33   15   16 1   
    34   15   20 2   
    35   16   17 1   
    36   16   18 1   
    37   16   19 1   
    38   17   49 1   
    39   17   50 1   
    40   17   51 1   
    41   18   52 1   
    42   18   53 1   
    43   18   54 1   
    44   19   55 1   
    45   19   56 1   
    46   19   57 1   
    47   20   21 1   
    48   20   58 1   
    49   22   59 1   
    50   22   60 1   
    51   22   61 1   
    52   23   24 1   
    53   23   62 1   
    54   23   63 1   
    55   24   25 1   
    56   25   26 1   
    57   25   64 1   
    58   25   65 1   
    59   26   27 2   
    60   26   66 1   
    61   27   28 1   
    62   27   67 1   
    63   28   29 1   
    64   28   68 1   
    65   28   69 1   
    66   29   30 1   
    67   29   70 1   
    68   29   71 1   
    69   30   31 1   
    70   30   72 1   
    71   30   73 1   
    72   31   32 2   
    73   31   33 1   
    74   33   34 ar  
    75   33   35 ar  
    76   34   74 1   
    77   35   36 ar  
    78   35   75 1   
    79   36   37 1   
    80   37   76 1   
    81   37   77 1   
    82   37   78 1   
@<TRIPOS>SUBSTRUCTURE
     1 0XA         1 TEMP              0 ****  ****    0 ROOT
