@<TRIPOS>MOLECULE
0XB
   27    29     1     0     0
SMALL
bcc


@<TRIPOS>ATOM
      1 CAH         3.6370    1.4510   -1.2390 ca        1 0XB     -0.087000
      2 CAG         2.3580    0.9160   -1.1110 ca        1 0XB     -0.166000
      3 CAI         4.6900    0.9930   -0.4560 ca        1 0XB     -0.167000
      4 CAQ         4.4500   -0.0290    0.4810 ca        1 0XB      0.149900
      5 FAR         5.4650   -0.4890    1.2500 f         1 0XB     -0.129900
      6 CAP         3.1670   -0.5790    0.6340 ca        1 0XB     -0.185000
      7 CAO         2.1100   -0.1020   -0.1660 ca        1 0XB      0.146600
      8 NAN         0.8390   -0.7060   -0.0450 nh        1 0XB     -0.631000
      9 CAM        -0.3480   -0.0260    0.0380 ca        1 0XB      0.308600
     10 CAL        -1.5940   -0.6720   -0.0990 ca        1 0XB     -0.278200
     11 NAT        -1.7360   -2.1160   -0.3610 no        1 0XB      0.335200
     12 OAS        -0.8800   -2.8750    0.0310 o         1 0XB     -0.211500
     13 OAU        -2.6910   -2.5170   -0.9640 o         1 0XB     -0.211500
     14 CAF        -0.3210    1.4210    0.2720 ca        1 0XB     -0.173000
     15 CAE        -1.4290    2.1920    0.3720 ca        1 0XB     -0.012000
     16 CAD        -2.7100    1.5730    0.2490 ca        1 0XB     -0.146000
     17 CAK        -2.7910    0.1050    0.0160 ca        1 0XB     -0.050000
     18 NAC        -3.9850    2.0160    0.3170 nc        1 0XB     -0.063500
     19 OAB        -4.7630    0.9600    0.1510 os        1 0XB      0.202000
     20 NAJ        -4.1110   -0.1900   -0.0270 nc        1 0XB     -0.075500
     21 HAH         3.8180    2.2450   -1.9810 ha        1 0XB      0.148000
     22 HAG         1.5460    1.2840   -1.7580 ha        1 0XB      0.150000
     23 HAI         5.7010    1.4120   -0.5600 ha        1 0XB      0.159000
     24 HAP         3.0100   -1.3800    1.3740 ha        1 0XB      0.164000
     25 HNAN        0.8410   -1.7060    0.0360 hn        1 0XB      0.489800
     26 HAF         0.6700    1.8930    0.3970 ha        1 0XB      0.166000
     27 HAE        -1.3700    3.2770    0.5570 ha        1 0XB      0.169000
@<TRIPOS>BOND
     1    1    2 ar  
     2    1    3 ar  
     3    1   21 1   
     4    2    7 ar  
     5    2   22 1   
     6    3    4 ar  
     7    3   23 1   
     8    4    5 1   
     9    4    6 ar  
    10    6    7 ar  
    11    6   24 1   
    12    7    8 1   
    13    8    9 1   
    14    8   25 1   
    15    9   10 ar  
    16    9   14 ar  
    17   10   11 1   
    18   10   17 ar  
    19   11   12 1   
    20   11   13 1   
    21   14   15 ar  
    22   14   26 1   
    23   15   16 ar  
    24   15   27 1   
    25   16   17 ar  
    26   16   18 2   
    27   17   20 2   
    28   18   19 1   
    29   19   20 1   
@<TRIPOS>SUBSTRUCTURE
     1 0XB         1 TEMP              0 ****  ****    0 ROOT
