@<TRIPOS>MOLECULE
0XB
   27    29     1     0     0
SMALL
bcc


@<TRIPOS>ATOM
      1 CAH        -0.1300    0.1660    0.0580 ca        1 0XB     -0.087000
      2 CAG         1.2600    0.0870    0.0110 ca        1 0XB     -0.166000
      3 CAI        -0.8130    0.1110    1.2670 ca        1 0XB     -0.167000
      4 CAQ        -0.0800   -0.0260    2.4610 ca        1 0XB      0.149900
      5 FAR        -0.7300   -0.0770    3.6470 f         1 0XB     -0.129900
      6 CAP         1.3210   -0.1150    2.4390 ca        1 0XB     -0.185000
      7 CAO         1.9980   -0.0610    1.2040 ca        1 0XB      0.146600
      8 NAN         3.4100   -0.0890    1.2020 nh        1 0XB     -0.631000
      9 CAM         4.1780   -0.8550    0.3630 ca        1 0XB      0.308600
     10 CAL         5.5670   -0.6580    0.2290 ca        1 0XB     -0.278200
     11 NAT         6.3140    0.3890    0.9510 no        1 0XB      0.335200
     12 OAS         5.9110    0.7660    2.0270 o         1 0XB     -0.211500
     13 OAU         7.3010    0.8570    0.4600 o         1 0XB     -0.211500
     14 CAF         3.5320   -1.9110   -0.4230 ca        1 0XB     -0.173000
     15 CAE         4.1900   -2.7260   -1.2800 ca        1 0XB     -0.012000
     16 CAD         5.6000   -2.5640   -1.4370 ca        1 0XB     -0.146000
     17 CAK         6.3040   -1.5100   -0.6570 ca        1 0XB     -0.050000
     18 NAC         6.5490   -3.1950   -2.1630 nc        1 0XB     -0.063500
     19 OAB         7.6990   -2.6120   -1.8710 os        1 0XB      0.202000
     20 NAJ         7.6110   -1.6160   -0.9880 nc        1 0XB     -0.075500
     21 HAH        -0.6950    0.2820   -0.8810 ha        1 0XB      0.148000
     22 HAG         1.7760    0.1530   -0.9590 ha        1 0XB      0.150000
     23 HAI        -1.9100    0.1780    1.3040 ha        1 0XB      0.159000
     24 HAP         1.8680   -0.2200    3.3890 ha        1 0XB      0.164000
     25 HNAN        3.8560    0.4630    1.9110 hn        1 0XB      0.489800
     26 HAF         2.4450   -2.0540   -0.2780 ha        1 0XB      0.166000
     27 HAE         3.6710   -3.5150   -1.8480 ha        1 0XB      0.169000
@<TRIPOS>BOND
     1    1    2 ar  
     2    1    3 ar  
     3    1   21 1   
     4    2    7 ar  
     5    2   22 1   
     6    3    4 ar  
     7    3   23 1   
     8    4    5 1   
     9    4    6 ar  
    10    6    7 ar  
    11    6   24 1   
    12    7    8 1   
    13    8    9 1   
    14    8   25 1   
    15    9   10 ar  
    16    9   14 ar  
    17   10   11 1   
    18   10   17 ar  
    19   11   12 1   
    20   11   13 1   
    21   14   15 ar  
    22   14   26 1   
    23   15   16 ar  
    24   15   27 1   
    25   16   17 ar  
    26   16   18 2   
    27   17   20 2   
    28   18   19 1   
    29   19   20 1   
@<TRIPOS>SUBSTRUCTURE
     1 0XB         1 TEMP              0 ****  ****    0 ROOT
