@<TRIPOS>MOLECULE
0XB
   27    20     1     0     0
SMALL
bcc


@<TRIPOS>ATOM
      1 CAH        -2.5180    2.0320   -1.8380 c1        1 0XB     -0.109250
      2 CAG        -1.3720    1.6560   -1.1420 c1        1 0XB     -0.159000
      3 CAI        -3.7660    1.6240   -1.3890 c1        1 0XB     -0.109250
      4 CAQ        -3.8710    0.8410   -0.2460 c1        1 0XB      0.113000
      5 FAR        -5.0890    0.4010    0.1650 f         1 0XB     -0.096000
      6 CAP        -2.7280    0.4650    0.4480 c1        1 0XB     -0.194000
      7 CAO        -1.4810    0.8700    0.0040 c1        1 0XB      0.066000
      8 NAN        -0.3170    0.6270    0.8220 n3        1 0XB     -0.264000
      9 CAM         0.5960   -0.3880    0.4660 c1        1 0XB      0.227000
     10 CAL         1.9380   -0.0720    0.6970 c1        1 0XB     -0.233000
     11 NAT         2.7690    1.0130    1.2510 no        1 0XB      0.590000
     12 OAS         4.0860    0.7720    1.5860 o         1 0XB     -0.362000
     13 OAU         2.2700    2.1310    1.4630 o         1 0XB     -0.362000
     14 CAF         0.2420   -1.6690    0.0160 c1        1 0XB     -0.109250
     15 CAE         1.2240   -2.6260   -0.2020 c1        1 0XB     -0.109250
     16 CAD         2.5780   -2.3110    0.0300 c1        1 0XB     -0.098000
     17 CAK         2.9310   -1.0370    0.4780 c1        1 0XB     -0.098000
     18 NAC         3.6950   -3.0880    0.0510 n1        1 0XB      0.028500
     19 OAB         4.7430   -2.3150    0.5070 os        1 0XB      0.005000
     20 NAJ         4.2560   -1.0460    0.7690 n1        1 0XB      0.028500
     21 HAH        -2.4430    2.5830   -2.6410 ha        1 0XB      0.161000
     22 HAG        -0.4880    1.9440   -1.4590 ha        1 0XB      0.153000
     23 HAI        -4.5720    1.8870   -1.8770 ha        1 0XB      0.161000
     24 HAP        -2.8040   -0.0820    1.2460 ha        1 0XB      0.162000
     25 HNAN       -0.1470    1.1630    1.5530 hn        1 0XB      0.285000
     26 HAF        -0.7070   -1.8610   -0.2430 ha        1 0XB      0.161000
     27 HAE         0.9760   -3.5160   -0.5150 ha        1 0XB      0.161000
@<TRIPOS>BOND
     1    1    3 1   
     2    1   21 1   
     3    2    7 1   
     4    2   22 1   
     5    3   23 1   
     6    4    6 1   
     7    6   24 1   
     8    7    8 1   
     9    8    9 1   
    10    8   25 1   
    11    9   10 1   
    12   10   11 1   
    13   11   12 1   
    14   11   13 1   
    15   14   15 1   
    16   14   26 1   
    17   15   27 1   
    18   16   17 1   
    19   18   19 1   
    20   19   20 1   
@<TRIPOS>SUBSTRUCTURE
     1 0XB         1 TEMP              0 ****  ****    0 ROOT
