@<TRIPOS>MOLECULE
0XB
   27    29     1     0     0
SMALL
bcc


@<TRIPOS>ATOM
      1 CAH        -0.1290    0.1720    0.0690 ca        1 0XB     -0.087000
      2 CAG         1.2600    0.0920    0.0190 ca        1 0XB     -0.166000
      3 CAI        -0.8100    0.1130    1.2800 ca        1 0XB     -0.167000
      4 CAQ        -0.0750   -0.0300    2.4710 ca        1 0XB      0.149900
      5 FAR        -0.7220   -0.0860    3.6590 f         1 0XB     -0.129900
      6 CAP         1.3270   -0.1220    2.4460 ca        1 0XB     -0.185000
      7 CAO         2.0010   -0.0620    1.2100 ca        1 0XB      0.146600
      8 NAN         3.4130   -0.0930    1.2040 nh        1 0XB     -0.631000
      9 CAM         4.1780   -0.8560    0.3600 ca        1 0XB      0.308600
     10 CAL         5.5670   -0.6610    0.2240 ca        1 0XB     -0.278200
     11 NAT         6.3160    0.3820    0.9490 no        1 0XB      0.335200
     12 OAS         5.9170    0.7540    2.0280 o         1 0XB     -0.211500
     13 OAU         7.3030    0.8510    0.4580 o         1 0XB     -0.211500
     14 CAF         3.5280   -1.9070   -0.4280 ca        1 0XB     -0.173000
     15 CAE         4.1830   -2.7200   -1.2910 ca        1 0XB     -0.012000
     16 CAD         5.5930   -2.5600   -1.4500 ca        1 0XB     -0.146000
     17 CAK         6.3000   -1.5100   -0.6670 ca        1 0XB     -0.050000
     18 NAC         6.5400   -3.1890   -2.1810 nc        1 0XB     -0.063500
     19 OAB         7.6910   -2.6090   -1.8890 os        1 0XB      0.202000
     20 NAJ         7.6070   -1.6160   -1.0010 nc        1 0XB     -0.075500
     21 HAH        -0.6970    0.2930   -0.8670 ha        1 0XB      0.148000
     22 HAG         1.7740    0.1610   -0.9520 ha        1 0XB      0.150000
     23 HAI        -1.9070    0.1810    1.3200 ha        1 0XB      0.159000
     24 HAP         1.8760   -0.2320    3.3940 ha        1 0XB      0.164000
     25 HNAN        3.8610    0.4550    1.9150 hn        1 0XB      0.489800
     26 HAF         2.4420   -2.0500   -0.2820 ha        1 0XB      0.166000
     27 HAE         3.6620   -3.5060   -1.8620 ha        1 0XB      0.169000
@<TRIPOS>BOND
     1    1    2 ar  
     2    1    3 ar  
     3    1   21 1   
     4    2    7 ar  
     5    2   22 1   
     6    3    4 ar  
     7    3   23 1   
     8    4    5 1   
     9    4    6 ar  
    10    6    7 ar  
    11    6   24 1   
    12    7    8 1   
    13    8    9 1   
    14    8   25 1   
    15    9   10 ar  
    16    9   14 ar  
    17   10   11 1   
    18   10   17 ar  
    19   11   12 1   
    20   11   13 1   
    21   14   15 ar  
    22   14   26 1   
    23   15   16 ar  
    24   15   27 1   
    25   16   17 ar  
    26   16   18 2   
    27   17   20 2   
    28   18   19 1   
    29   19   20 1   
@<TRIPOS>SUBSTRUCTURE
     1 0XB         1 TEMP              0 ****  ****    0 ROOT
