@<TRIPOS>MOLECULE
0XC
   21    19     1     0     0
SMALL
bcc


@<TRIPOS>ATOM
      1 OXT        -3.5480   -1.5800    2.3890 o         1 0XC     -0.827800
      2 C          -2.2890   -1.5800    2.3890 c         1 0XC      0.868800
      3 O          -1.6600   -1.5800    3.4800 o         1 0XC     -0.827800
      4 CA         -1.5330   -1.5810    1.0790 ce        1 0XC     -0.103400
      5 N          -1.1150   -2.7080    0.5660 n1        1 0XC     -0.291000
      6 CB         -1.2600   -0.2760    0.3630 c3        1 0XC     -0.040200
      7 CG          0.1970   -0.2170   -0.0390 c3        1 0XC     -0.068400
      8 CD          0.4670    1.0810   -0.7680 c3        1 0XC     -0.119400
      9 CE          1.9220    1.1360   -1.1790 c3        1 0XC      0.140800
     10 NZ          2.1700    2.3490   -1.8870 n3        1 0XC     -0.906800
     11 H3         -1.2790   -3.4940    0.9980 DU        1 0XC      0.141000
     12 H6         -1.4650    0.4700    0.9570 hc        1 0XC      0.058700
     13 H7         -1.8200   -0.2200   -0.4350 hc        1 0XC      0.058700
     14 H8          0.4040   -0.9690   -0.6250 hc        1 0XC      0.041700
     15 H9          0.7570   -0.2630    0.7600 hc        1 0XC      0.041700
     16 H10        -0.0980    1.1310   -1.5630 hc        1 0XC      0.032700
     17 H11         0.2660    1.8330   -0.1790 hc        1 0XC      0.032700
     18 H12         2.1260    0.3750   -1.7560 h1        1 0XC      0.048700
     19 H13         2.4860    1.1020   -0.3830 h1        1 0XC      0.048700
     20 H14         2.4720    2.1550   -2.7250 hn        1 0XC      0.334800
     21 H15         2.8000    2.8360   -1.4420 hn        1 0XC      0.334800
@<TRIPOS>BOND
     1    1    2 1   
     2    2    3 1   
     3    2    4 1   
     4    4    5 2   
     5    4    6 1   
     6    6    7 1   
     7    6   12 1   
     8    6   13 1   
     9    7    8 1   
    10    7   14 1   
    11    7   15 1   
    12    8    9 1   
    13    8   16 1   
    14    8   17 1   
    15    9   10 1   
    16    9   18 1   
    17    9   19 1   
    18   10   20 1   
    19   10   21 1   
@<TRIPOS>SUBSTRUCTURE
     1 0XC         1 TEMP              0 ****  ****    0 ROOT
