@<TRIPOS>MOLECULE
0XC
   22    21     1     0     0
SMALL
bcc


@<TRIPOS>ATOM
      1 OXT        -0.1240   -0.0030   -0.3480 o         1 0XC     -0.809300
      2 C           1.1020    0.0010   -0.0570 c         1 0XC      0.790300
      3 O           1.5960    0.0040    1.0990 o         1 0XC     -0.809300
      4 CA          2.1050    0.0030   -1.2410 ce        1 0XC      0.343300
      5 N           3.3860    0.0050   -1.1420 n2        1 0XC     -0.830100
      6 CB          1.3870    0.0000   -2.5600 c3        1 0XC     -0.124700
      7 CG          2.2910    0.0000   -3.7720 c3        1 0XC     -0.071400
      8 CD          1.4440   -0.0020   -5.0340 c3        1 0XC     -0.116400
      9 CE          2.3650   -0.0020   -6.2440 c3        1 0XC      0.099800
     10 NZ          1.6010   -0.0040   -7.5310 n4        1 0XC     -0.842600
     11 H3          3.7020    0.0070   -0.1900 hn        1 0XC      0.403400
     12 H6          0.7190   -0.9040   -2.5680 hc        1 0XC      0.069700
     13 H7          0.7170    0.9020   -2.5700 hc        1 0XC      0.069700
     14 H8          2.9530   -0.9040   -3.7560 hc        1 0XC      0.057700
     15 H9          2.9510    0.9060   -3.7570 hc        1 0XC      0.057700
     16 H10         0.7840    0.9050   -5.0380 hc        1 0XC      0.065700
     17 H11         0.7860   -0.9110   -5.0360 hc        1 0XC      0.065700
     18 H12         3.0210   -0.9200   -6.2330 hx        1 0XC      0.109700
     19 H13         3.0200    0.9160   -6.2340 hx        1 0XC      0.109700
     20 H14         2.2400   -0.0040   -8.3280 hn        1 0XC      0.452800
     21 H15         1.0030   -0.8350   -7.5760 hn        1 0XC      0.452800
     22 HZ3         1.0020    0.8270   -7.5770 hn        1 0XC      0.452800
@<TRIPOS>BOND
     1    1    2 1   
     2    2    3 1   
     3    2    4 1   
     4    4    5 2   
     5    4    6 1   
     6    5   11 1   
     7    6    7 1   
     8    6   12 1   
     9    6   13 1   
    10    7    8 1   
    11    7   14 1   
    12    7   15 1   
    13    8    9 1   
    14    8   16 1   
    15    8   17 1   
    16    9   10 1   
    17    9   18 1   
    18    9   19 1   
    19   10   20 1   
    20   10   21 1   
    21   10   22 1   
@<TRIPOS>SUBSTRUCTURE
     1 0XC         1 TEMP              0 ****  ****    0 ROOT
