@<TRIPOS>MOLECULE
0XC
   21    20     1     0     0
SMALL
bcc


@<TRIPOS>ATOM
      1 OXT        -2.9940    0.8400    1.2320 o         1 0XC     -0.819300
      2 C          -2.5910    0.4680    0.1000 c         1 0XC      0.838300
      3 O          -3.0350    0.8550   -1.0130 o         1 0XC     -0.819300
      4 CA         -1.3750   -0.4950    0.0710 ce        1 0XC      0.375300
      5 N          -1.5090   -1.7680    0.0650 n2        1 0XC     -0.794100
      6 CB         -0.0980    0.3070    0.0530 c3        1 0XC     -0.183700
      7 CG          1.1770   -0.5060    0.0250 c3        1 0XC     -0.078400
      8 CD          2.3930    0.3940    0.0090 c3        1 0XC     -0.116400
      9 CE          3.6800   -0.4290   -0.0200 c3        1 0XC      0.141800
     10 NZ          4.9160    0.3160   -0.0370 n3        1 0XC     -0.906800
     11 H3         -0.6480   -2.2810    0.0460 hn        1 0XC      0.323400
     12 H6         -0.1410    0.9780   -0.8470 hc        1 0XC      0.063200
     13 H7         -0.1080    0.9660    0.9630 hc        1 0XC      0.063200
     14 H8          1.2230   -1.1770    0.9240 hc        1 0XC      0.034700
     15 H9          1.1900   -1.1650   -0.8840 hc        1 0XC      0.034700
     16 H10         2.3480    1.0650   -0.8890 hc        1 0XC      0.036700
     17 H11         2.3810    1.0540    0.9160 hc        1 0XC      0.036700
     18 H12         3.6990   -1.1020    0.8840 h1        1 0XC      0.048700
     19 H13         3.6660   -1.0900   -0.9320 h1        1 0XC      0.048700
     20 H14         4.9550    0.9080   -0.8450 hn        1 0XC      0.336800
     21 H15         4.9840    0.8980    0.7760 hn        1 0XC      0.336800
@<TRIPOS>BOND
     1    1    2 1   
     2    2    3 1   
     3    2    4 1   
     4    4    5 2   
     5    4    6 1   
     6    5   11 1   
     7    6    7 1   
     8    6   12 1   
     9    6   13 1   
    10    7    8 1   
    11    7   14 1   
    12    7   15 1   
    13    8    9 1   
    14    8   16 1   
    15    8   17 1   
    16    9   10 1   
    17    9   18 1   
    18    9   19 1   
    19   10   20 1   
    20   10   21 1   
@<TRIPOS>SUBSTRUCTURE
     1 0XC         1 TEMP              0 ****  ****    0 ROOT
