@<TRIPOS>MOLECULE
0XC
   22    21     1     0     0
SMALL
bcc


@<TRIPOS>ATOM
      1 OXT        -0.1330   -0.0020   -0.3530 o         1 0XC     -0.845800
      2 C           1.0920   -0.0020   -0.0590 c         1 0XC      0.773300
      3 O           1.5840   -0.0020    1.0980 o         1 0XC     -0.845800
      4 CA          2.0980   -0.0010   -1.2400 ce        1 0XC      0.398300
      5 N           3.3790   -0.0010   -1.1380 n2        1 0XC     -0.766100
      6 CB          1.3840    0.0010   -2.5610 c3        1 0XC     -0.117700
      7 CG          2.2900   -0.0000   -3.7710 c3        1 0XC     -0.090400
      8 CD          1.4470    0.0000   -5.0350 c3        1 0XC     -0.112400
      9 CE          2.3710   -0.0010   -6.2420 c3        1 0XC      0.123800
     10 NZ          1.6100   -0.0010   -7.5320 n4        1 0XC     -0.884600
     11 H3          3.6930   -0.0020   -0.1850 hn        1 0XC      0.392400
     12 H6          0.7160    0.9040   -2.5720 hc        1 0XC      0.063200
     13 H7          0.7140   -0.9010   -2.5720 hc        1 0XC      0.063200
     14 H8          2.9520    0.9040   -3.7540 hc        1 0XC      0.054700
     15 H9          2.9510   -0.9060   -3.7530 hc        1 0XC      0.054700
     16 H10         0.7870   -0.9070   -5.0400 hc        1 0XC      0.084700
     17 H11         0.7890    0.9090   -5.0400 hc        1 0XC      0.084700
     18 H12         3.0270    0.9160   -6.2310 hx        1 0XC      0.073200
     19 H13         3.0260   -0.9190   -6.2300 hx        1 0XC      0.073200
     20 H14         1.0130    0.8310   -7.5790 hn        1 0XC      0.474133
     21 H15         1.0110   -0.8310   -7.5780 hn        1 0XC      0.474133
     22 HZ3         2.2510   -0.0020   -8.3270 hn        1 0XC      0.474133
@<TRIPOS>BOND
     1    1    2 1   
     2    2    3 1   
     3    2    4 1   
     4    4    5 2   
     5    4    6 1   
     6    5   11 1   
     7    6    7 1   
     8    6   12 1   
     9    6   13 1   
    10    7    8 1   
    11    7   14 1   
    12    7   15 1   
    13    8    9 1   
    14    8   16 1   
    15    8   17 1   
    16    9   10 1   
    17    9   18 1   
    18    9   19 1   
    19   10   20 1   
    20   10   21 1   
    21   10   22 1   
@<TRIPOS>SUBSTRUCTURE
     1 0XC         1 TEMP              0 ****  ****    0 ROOT
