@<TRIPOS>MOLECULE
0XD
   17    13     1     0     0
SMALL
bcc


@<TRIPOS>ATOM
      1 CE         -2.7740    0.0100   -1.8890 c3        1 0XD     -0.321000
      2 SD         -1.0010    0.0100   -1.8890 ss        1 0XD     -0.019000
      3 CG         -0.4100    0.0100   -0.2180 c3        1 0XD     -0.254000
      4 CB          1.0900    0.2060   -0.2130 c3        1 0XD     -0.172000
      5 CA          1.5940    0.2090    1.2130 c1        1 0XD     -0.062000
      6 C           1.9900   -1.0910    1.8780 c1        1 0XD      0.377000
      7 O           1.2140   -1.6360    2.7070 o         1 0XD     -0.565000
      8 OXT         3.0940   -1.6290    1.6020 os        1 0XD     -0.542000
      9 N           1.6880    1.3340    1.8710 n1        1 0XD     -0.252000
     10 H1         -3.0990    0.8160   -1.4460 h1        1 0XD      0.099000
     11 H2         -3.0990   -0.7780   -1.4130 h1        1 0XD      0.099000
     12 H3         -3.0990   -0.0090   -2.8100 h1        1 0XD      0.099000
     13 H4         -0.6280   -0.8430    0.2040 h1        1 0XD      0.134500
     14 H5         -0.8350    0.7360    0.2770 h1        1 0XD      0.134500
     15 H6          1.5150   -0.5210   -0.7070 hc        1 0XD      0.081500
     16 H7          1.3080    1.0580   -0.6370 hc        1 0XD      0.081500
     17 H10         1.4500    2.1180    1.4700 DU        1 0XD      0.083000
@<TRIPOS>BOND
     1    1    2 1   
     2    1   10 1   
     3    1   11 1   
     4    1   12 1   
     5    2    3 1   
     6    3    4 1   
     7    3   13 1   
     8    3   14 1   
     9    4    5 1   
    10    4   15 1   
    11    4   16 1   
    12    5    9 1   
    13    6    7 1   
@<TRIPOS>SUBSTRUCTURE
     1 0XD         1 TEMP              0 ****  ****    0 ROOT
