@<TRIPOS>MOLECULE
0XD
   17    16     1     0     0
SMALL
bcc


@<TRIPOS>ATOM
      1 CE          0.1370    0.3080   -0.0340 c3        1 0XD     -0.043000
      2 SD          1.8710    0.4920    0.1250 ss        1 0XD     -0.312200
      3 CG          2.1340    0.0020    1.8100 c3        1 0XD     -0.000300
      4 CB          3.6070    0.1070    2.0990 c3        1 0XD     -0.178700
      5 CA          4.0010   -0.2800    3.5050 ce        1 0XD      0.377300
      6 C           5.5390   -0.1320    3.6750 c         1 0XD      0.840300
      7 O           5.9600    0.9940    4.0400 o         1 0XD     -0.814800
      8 OXT         6.2380   -1.1330    3.3730 o         1 0XD     -0.814800
      9 N           3.2440   -0.6760    4.4580 n2        1 0XD     -0.793100
     10 H1         -0.4160    0.9660    0.6740 h1        1 0XD      0.051033
     11 H2         -0.1860   -0.7430    0.1410 h1        1 0XD      0.051033
     12 H3         -0.1220    0.5990   -1.0770 h1        1 0XD      0.051033
     13 H4          1.7730   -1.0450    1.9550 h1        1 0XD      0.051700
     14 H5          1.5460    0.6670    2.4890 h1        1 0XD      0.051700
     15 H6          4.1870   -0.5560    1.4000 hc        1 0XD      0.079700
     16 H7          3.9590    1.1620    1.9360 hc        1 0XD      0.079700
     17 H10         2.2700   -0.7310    4.2290 hn        1 0XD      0.322400
@<TRIPOS>BOND
     1    1    2 1   
     2    1   10 1   
     3    1   11 1   
     4    1   12 1   
     5    2    3 1   
     6    3    4 1   
     7    3   13 1   
     8    3   14 1   
     9    4    5 1   
    10    4   15 1   
    11    4   16 1   
    12    5    6 1   
    13    5    9 2   
    14    6    7 1   
    15    6    8 1   
    16    9   17 1   
@<TRIPOS>SUBSTRUCTURE
     1 0XD         1 TEMP              0 ****  ****    0 ROOT
