@<TRIPOS>MOLECULE
0XD
   17    16     1     0     0
SMALL
bcc


@<TRIPOS>ATOM
      1 CE          0.1380    0.3090   -0.0350 c3        1 0XD     -0.043000
      2 SD          1.8670    0.5240    0.1350 ss        1 0XD     -0.312200
      3 CG          2.1350   -0.0050    1.8080 c3        1 0XD     -0.000300
      4 CB          3.6050    0.1240    2.1060 c3        1 0XD     -0.178700
      5 CA          4.0020   -0.2910    3.5020 ce        1 0XD      0.377300
      6 C           5.5350   -0.1130    3.6830 c         1 0XD      0.840300
      7 O           5.9290    1.0130    4.0790 o         1 0XD     -0.814800
      8 OXT         6.2580   -1.0890    3.3590 o         1 0XD     -0.814800
      9 N           3.2500   -0.7290    4.4410 n2        1 0XD     -0.793100
     10 H1         -0.4310    0.9360    0.6870 h1        1 0XD      0.051033
     11 H2         -0.1230    0.6220   -1.0720 h1        1 0XD      0.051033
     12 H3         -0.1630   -0.7530    0.1110 h1        1 0XD      0.051033
     13 H4          1.7970   -1.0630    1.9230 h1        1 0XD      0.051700
     14 H5          1.5310    0.6290    2.5010 h1        1 0XD      0.051700
     15 H6          3.9340    1.1910    1.9720 hc        1 0XD      0.079700
     16 H7          4.2010   -0.5070    1.3920 hc        1 0XD      0.079700
     17 H10         2.2780   -0.8000    4.2060 hn        1 0XD      0.322400
@<TRIPOS>BOND
     1    1    2 1   
     2    1   10 1   
     3    1   11 1   
     4    1   12 1   
     5    2    3 1   
     6    3    4 1   
     7    3   13 1   
     8    3   14 1   
     9    4    5 1   
    10    4   15 1   
    11    4   16 1   
    12    5    6 1   
    13    5    9 2   
    14    6    7 1   
    15    6    8 1   
    16    9   17 1   
@<TRIPOS>SUBSTRUCTURE
     1 0XD         1 TEMP              0 ****  ****    0 ROOT
