@<TRIPOS>MOLECULE
0XD
   17    16     1     0     0
SMALL
bcc


@<TRIPOS>ATOM
      1 CE          0.1440    0.1070   -0.0630 c3        1 0XD     -0.043000
      2 SD          1.8850    0.2360    0.0710 ss        1 0XD     -0.312200
      3 CG          2.1340   -0.0110    1.8110 c3        1 0XD     -0.000300
      4 CB          3.6110    0.0730    2.0850 c3        1 0XD     -0.178700
      5 CA          3.9930   -0.1180    3.5340 ce        1 0XD      0.377300
      6 C           5.5360   -0.0090    3.6840 c         1 0XD      0.840300
      7 O           6.0040    1.1420    3.8790 o         1 0XD     -0.815300
      8 OXT         6.1940   -1.0700    3.5370 o         1 0XD     -0.815300
      9 N           3.2240   -0.3380    4.5320 n2        1 0XD     -0.793100
     10 H1         -0.3760    0.8860    0.5390 h1        1 0XD      0.051033
     11 H2         -0.1060    0.2520   -1.1380 h1        1 0XD      0.051033
     12 H3         -0.2240   -0.8910    0.2640 h1        1 0XD      0.051033
     13 H4          1.7300   -1.0100    2.1070 h1        1 0XD      0.051700
     14 H5          1.5770    0.7700    2.3820 h1        1 0XD      0.051700
     15 H6          4.0060    1.0770    1.7690 hc        1 0XD      0.079700
     16 H7          4.1600   -0.7100    1.4930 hc        1 0XD      0.079700
     17 H10         2.2480   -0.3880    4.3110 hn        1 0XD      0.322400
@<TRIPOS>BOND
     1    1    2 1   
     2    1   10 1   
     3    1   11 1   
     4    1   12 1   
     5    2    3 1   
     6    3    4 1   
     7    3   13 1   
     8    3   14 1   
     9    4    5 1   
    10    4   15 1   
    11    4   16 1   
    12    5    6 1   
    13    5    9 2   
    14    6    7 1   
    15    6    8 1   
    16    9   17 1   
@<TRIPOS>SUBSTRUCTURE
     1 0XD         1 TEMP              0 ****  ****    0 ROOT
