@<TRIPOS>MOLECULE
0XD
   17    16     1     0     0
SMALL
bcc


@<TRIPOS>ATOM
      1 CE          4.0190    0.4360    0.1130 c3        1 0XD     -0.043000
      2 SD          2.6350   -0.6290    0.2380 ss        1 0XD     -0.312200
      3 CG          1.2870    0.4980   -0.0100 c3        1 0XD     -0.000300
      4 CB          0.0050   -0.2860    0.0710 c3        1 0XD     -0.178700
      5 CA         -1.2480    0.5350   -0.1210 ce        1 0XD      0.377300
      6 C          -2.4960   -0.3850   -0.0140 c         1 0XD      0.840300
      7 O          -2.9750   -0.5540    1.1360 o         1 0XD     -0.815300
      8 OXT        -2.8840   -0.9330   -1.0770 o         1 0XD     -0.815300
      9 N          -1.3430    1.7920   -0.3400 n2        1 0XD     -0.793100
     10 H1          4.0020    1.2300    0.8920 h1        1 0XD      0.051033
     11 H2          4.9240   -0.1970    0.2580 h1        1 0XD      0.051033
     12 H3          4.0750    0.9260   -0.8850 h1        1 0XD      0.051033
     13 H4          1.3170    1.2950    0.7720 h1        1 0XD      0.051700
     14 H5          1.3900    0.9900   -1.0080 h1        1 0XD      0.051700
     15 H6         -0.0060   -1.0930   -0.7120 hc        1 0XD      0.079700
     16 H7         -0.0790   -0.7870    1.0750 hc        1 0XD      0.079700
     17 H10        -0.4690    2.2810   -0.3880 hn        1 0XD      0.322400
@<TRIPOS>BOND
     1    1    2 1   
     2    1   10 1   
     3    1   11 1   
     4    1   12 1   
     5    2    3 1   
     6    3    4 1   
     7    3   13 1   
     8    3   14 1   
     9    4    5 1   
    10    4   15 1   
    11    4   16 1   
    12    5    6 1   
    13    5    9 2   
    14    6    7 1   
    15    6    8 1   
    16    9   17 1   
@<TRIPOS>SUBSTRUCTURE
     1 0XD         1 TEMP              0 ****  ****    0 ROOT
