@<TRIPOS>MOLECULE
0XE
   49    52     1     0     0
SMALL
bcc


@<TRIPOS>ATOM
      1 C1          0.1770   -0.0500    0.0410 ca        1 0XE     -0.144000
      2 C2          1.4800   -0.5380    0.1400 ca        1 0XE     -0.115000
      3 C3          2.0040   -0.8800    1.3850 ca        1 0XE     -0.144000
      4 C4          1.2290   -0.7410    2.5360 ca        1 0XE     -0.085500
      5 C5         -0.0860   -0.2570    2.4390 ca        1 0XE     -0.085800
      6 C6         -0.6060    0.0940    1.1850 ca        1 0XE     -0.085500
      7 C7         -0.9080   -0.1230    3.6440 cc        1 0XE      0.216900
      8 C8         -2.2590   -0.0140    3.6850 cd        1 0XE     -0.344200
      9 C9         -2.9860    0.1010    4.9440 c         1 0XE      0.610900
     10 O9         -4.2260    0.2470    4.9730 o         1 0XE     -0.618100
     11 O12        -0.1210   -0.1210    4.7780 os        1 0XE     -0.197200
     12 C11        -0.7610   -0.1060    6.0080 ca        1 0XE      0.161100
     13 C10        -2.1560    0.0210    6.1440 ca        1 0XE     -0.288600
     14 C17        -2.6700    0.0420    7.4590 ca        1 0XE      0.139100
     15 O17        -4.0030    0.1670    7.7680 oh        1 0XE     -0.532100
     16 C16        -1.8190   -0.0720    8.5730 ca        1 0XE      0.031100
     17 O16        -2.2880   -0.0300    9.8670 oh        1 0XE     -0.475100
     18 C14         0.1120   -0.2360    7.0950 ca        1 0XE     -0.202000
     19 C15        -0.4200   -0.2230    8.3860 ca        1 0XE      0.196100
     20 O18         0.3110   -0.4230    9.5350 os        1 0XE     -0.296900
     21 C18         1.6570    0.0610    9.5360 c3        1 0XE      0.334900
     22 O22         2.2950   -0.8000    8.6160 os        1 0XE     -0.405600
     23 C22         3.6980   -0.5590    8.5110 c3        1 0XE     -0.022900
     24 C23         4.2100   -1.3830    7.2920 c         1 0XE      0.939600
     25 O24         3.5180   -1.3630    6.2460 o         1 0XE     -0.818300
     26 O23         5.3240   -1.9630    7.4360 o         1 0XE     -0.818300
     27 C19         2.1990   -0.1450   10.9660 c3        1 0XE      0.123100
     28 O19         1.6670    0.8990   11.7660 oh        1 0XE     -0.598800
     29 C20         3.7370   -0.0630   10.9580 c3        1 0XE      0.099100
     30 O20         4.1640   -0.4780   12.2490 oh        1 0XE     -0.627800
     31 C21         4.3390   -0.9400    9.8480 c3        1 0XE      0.114100
     32 O21         5.7340   -0.7010    9.8700 oh        1 0XE     -0.651800
     33 H1         -0.2350    0.2250   -0.9400 ha        1 0XE      0.136500
     34 H2          2.0950   -0.6500   -0.7660 ha        1 0XE      0.126000
     35 H3          3.0340   -1.2600    1.4710 ha        1 0XE      0.136500
     36 H4          1.6520   -1.0050    3.5240 ha        1 0XE      0.162500
     37 H5         -1.6290    0.4890    1.1000 ha        1 0XE      0.162500
     38 H6         -2.8620   -0.0220    2.7680 ha        1 0XE      0.158000
     39 H8         -4.5220    0.2040    6.9470 ho        1 0XE      0.465000
     40 H9         -3.2520   -0.1270    9.8290 ho        1 0XE      0.423000
     41 H10         1.1960   -0.3920    6.9000 ha        1 0XE      0.238000
     42 H11         1.7040    1.1360    9.2160 h2        1 0XE      0.059700
     43 H12         3.8870    0.5280    8.2930 h1        1 0XE      0.037700
     44 H14         1.8650   -1.1430   11.3590 h1        1 0XE      0.073700
     45 H15         2.0520    0.7790   12.6440 ho        1 0XE      0.412000
     46 H16         4.0560    1.0070   10.8070 h1        1 0XE      0.051700
     47 H17         5.0990   -0.7070   12.1630 ho        1 0XE      0.425000
     48 H18         4.1440   -2.0270   10.0630 h1        1 0XE      0.059700
     49 H19         6.1010   -1.1460    9.0830 ho        1 0XE      0.465000
@<TRIPOS>BOND
     1    1    2 ar  
     2    1    6 ar  
     3    1   33 1   
     4    2    3 ar  
     5    2   34 1   
     6    3    4 ar  
     7    3   35 1   
     8    4    5 ar  
     9    4   36 1   
    10    5    6 ar  
    11    5    7 1   
    12    6   37 1   
    13    7    8 2   
    14    7   11 1   
    15    8    9 1   
    16    8   38 1   
    17    9   10 2   
    18    9   13 1   
    19   11   12 1   
    20   12   13 ar  
    21   12   18 ar  
    22   13   14 ar  
    23   14   15 1   
    24   14   16 ar  
    25   15   39 1   
    26   16   17 1   
    27   16   19 ar  
    28   17   40 1   
    29   18   19 ar  
    30   18   41 1   
    31   19   20 1   
    32   20   21 1   
    33   21   22 1   
    34   21   27 1   
    35   21   42 1   
    36   22   23 1   
    37   23   24 1   
    38   23   31 1   
    39   23   43 1   
    40   24   25 1   
    41   24   26 1   
    42   27   28 1   
    43   27   29 1   
    44   27   44 1   
    45   28   45 1   
    46   29   30 1   
    47   29   31 1   
    48   29   46 1   
    49   30   47 1   
    50   31   32 1   
    51   31   48 1   
    52   32   49 1   
@<TRIPOS>SUBSTRUCTURE
     1 0XE         1 TEMP              0 ****  ****    0 ROOT
