@<TRIPOS>MOLECULE
0XE
   49    52     1     0     0
SMALL
bcc


@<TRIPOS>ATOM
      1 C1          6.2650    2.8740   -0.2550 ca        1 0XE     -0.144000
      2 C2          5.4890    4.0210   -0.0810 ca        1 0XE     -0.114000
      3 C3          4.1140    3.9070    0.1130 ca        1 0XE     -0.144000
      4 C4          3.5090    2.6510    0.1390 ca        1 0XE     -0.085000
      5 C5          4.2880    1.4940   -0.0300 ca        1 0XE     -0.087800
      6 C6          5.6700    1.6150   -0.2330 ca        1 0XE     -0.085000
      7 C7          3.6550    0.1730    0.0030 cc        1 0XE      0.219900
      8 C8          4.2890   -1.0250    0.0480 cd        1 0XE     -0.347200
      9 C9          3.5610   -2.2870    0.0770 c         1 0XE      0.609900
     10 O9          4.1520   -3.3860    0.0930 o         1 0XE     -0.617100
     11 O12         2.2800    0.2880   -0.0180 os        1 0XE     -0.195200
     12 C11         1.5290   -0.8750    0.0600 ca        1 0XE      0.158100
     13 C10         2.1040   -2.1580    0.0920 ca        1 0XE     -0.284600
     14 C17         1.2180   -3.2560    0.1470 ca        1 0XE      0.139100
     15 O17         1.6120   -4.5720    0.1760 oh        1 0XE     -0.532100
     16 C16        -0.1750   -3.0590    0.1780 ca        1 0XE      0.028100
     17 O16        -1.0670   -4.1090    0.1950 oh        1 0XE     -0.486100
     18 C14         0.1470   -0.6430    0.1120 ca        1 0XE     -0.188000
     19 C15        -0.7080   -1.7450    0.1760 ca        1 0XE      0.187100
     20 O18        -2.0750   -1.6600    0.3250 os        1 0XE     -0.324900
     21 C18        -2.7470   -0.6570   -0.4430 c3        1 0XE      0.300900
     22 O22        -2.2870    0.5530    0.1110 os        1 0XE     -0.399600
     23 C22        -2.8720    1.6880   -0.5270 c3        1 0XE     -0.031900
     24 C23        -2.1100    2.9360    0.0170 c         1 0XE      0.939600
     25 O24        -0.8730    2.8220    0.2020 o         1 0XE     -0.819300
     26 O23        -2.7940    3.9850    0.1760 o         1 0XE     -0.819300
     27 C19        -4.2510   -0.8310   -0.1630 c3        1 0XE      0.080100
     28 O19        -4.7610   -1.9750   -0.8300 oh        1 0XE     -0.617800
     29 C20        -5.0300    0.3850   -0.7040 c3        1 0XE      0.143100
     30 O20        -6.3490    0.3500   -0.1820 oh        1 0XE     -0.585800
     31 C21        -4.3820    1.7100   -0.2520 c3        1 0XE      0.152100
     32 O21        -4.9990    2.7370   -1.0060 oh        1 0XE     -0.627800
     33 H1          7.3490    2.9620   -0.4130 ha        1 0XE      0.137500
     34 H2          5.9630    5.0130   -0.1000 ha        1 0XE      0.127000
     35 H3          3.4940    4.8070    0.2450 ha        1 0XE      0.137500
     36 H4          2.4140    2.5690    0.2860 ha        1 0XE      0.163000
     37 H5          6.2910    0.7190   -0.3790 ha        1 0XE      0.163000
     38 H6          5.3850   -1.0950    0.0710 ha        1 0XE      0.159000
     39 H8          2.5830   -4.6170    0.1890 ho        1 0XE      0.467000
     40 H9         -0.5680   -4.9100    0.4160 ho        1 0XE      0.426000
     41 H10        -0.2260    0.4060    0.1220 ha        1 0XE      0.249000
     42 H11        -2.4980   -0.7540   -1.5340 h2        1 0XE      0.053700
     43 H12        -2.6950    1.6370   -1.6360 h1        1 0XE      0.036700
     44 H14        -4.4160   -0.9280    0.9460 h1        1 0XE      0.073700
     45 H15        -4.2350   -2.7250   -0.5210 ho        1 0XE      0.417000
     46 H16        -5.0630    0.3420   -1.8280 h1        1 0XE      0.051700
     47 H17        -6.7450   -0.4640   -0.5170 ho        1 0XE      0.397000
     48 H18        -4.5720    1.8710    0.8440 h1        1 0XE      0.063700
     49 H19        -4.5610    3.5650   -0.7370 ho        1 0XE      0.453000
@<TRIPOS>BOND
     1    1    2 ar  
     2    1    6 ar  
     3    1   33 1   
     4    2    3 ar  
     5    2   34 1   
     6    3    4 ar  
     7    3   35 1   
     8    4    5 ar  
     9    4   36 1   
    10    5    6 ar  
    11    5    7 1   
    12    6   37 1   
    13    7    8 2   
    14    7   11 1   
    15    8    9 1   
    16    8   38 1   
    17    9   10 2   
    18    9   13 1   
    19   11   12 1   
    20   12   13 ar  
    21   12   18 ar  
    22   13   14 ar  
    23   14   15 1   
    24   14   16 ar  
    25   15   39 1   
    26   16   17 1   
    27   16   19 ar  
    28   17   40 1   
    29   18   19 ar  
    30   18   41 1   
    31   19   20 1   
    32   20   21 1   
    33   21   22 1   
    34   21   27 1   
    35   21   42 1   
    36   22   23 1   
    37   23   24 1   
    38   23   31 1   
    39   23   43 1   
    40   24   25 1   
    41   24   26 1   
    42   27   28 1   
    43   27   29 1   
    44   27   44 1   
    45   28   45 1   
    46   29   30 1   
    47   29   31 1   
    48   29   46 1   
    49   30   47 1   
    50   31   32 1   
    51   31   48 1   
    52   32   49 1   
@<TRIPOS>SUBSTRUCTURE
     1 0XE         1 TEMP              0 ****  ****    0 ROOT
