@<TRIPOS>MOLECULE
0XE
   49    52     1     0     0
SMALL
bcc


@<TRIPOS>ATOM
      1 C1          0.1660   -0.1050    0.0390 ca        1 0XE     -0.144000
      2 C2          1.4590   -0.6190    0.1410 ca        1 0XE     -0.115000
      3 C3          1.9780   -0.9540    1.3910 ca        1 0XE     -0.144000
      4 C4          1.2090   -0.7810    2.5410 ca        1 0XE     -0.085500
      5 C5         -0.0950   -0.2710    2.4400 ca        1 0XE     -0.085800
      6 C6         -0.6110    0.0720    1.1810 ca        1 0XE     -0.085500
      7 C7         -0.9110   -0.1010    3.6440 cc        1 0XE      0.216900
      8 C8         -2.2590    0.0370    3.6870 cd        1 0XE     -0.344200
      9 C9         -2.9810    0.1870    4.9450 c         1 0XE      0.610900
     10 O9         -4.2170    0.3600    4.9750 o         1 0XE     -0.618100
     11 O12        -0.1210   -0.0990    4.7770 os        1 0XE     -0.197200
     12 C11        -0.7580   -0.0530    6.0080 ca        1 0XE      0.161100
     13 C10        -2.1500    0.1070    6.1450 ca        1 0XE     -0.288600
     14 C17        -2.6600    0.1580    7.4610 ca        1 0XE      0.139100
     15 O17        -3.9890    0.3170    7.7700 oh        1 0XE     -0.532100
     16 C16        -1.8080    0.0420    8.5740 ca        1 0XE      0.031100
     17 O16        -2.2730    0.1130    9.8680 oh        1 0XE     -0.475100
     18 C14         0.1150   -0.1850    7.0950 ca        1 0XE     -0.202000
     19 C15        -0.4130   -0.1420    8.3860 ca        1 0XE      0.196100
     20 O18         0.3160   -0.3400    9.5370 os        1 0XE     -0.296900
     21 C18         1.6720    0.1160    9.5270 c3        1 0XE      0.334900
     22 O22         2.2890   -0.7710    8.6190 os        1 0XE     -0.405600
     23 C22         3.6960   -0.5610    8.5080 c3        1 0XE     -0.022900
     24 C23         4.1890   -1.4140    7.2990 c         1 0XE      0.939600
     25 O24         3.4940   -1.3940    6.2540 o         1 0XE     -0.818300
     26 O23         5.2910   -2.0140    7.4480 o         1 0XE     -0.818300
     27 C19         2.2130   -0.0810   10.9590 c3        1 0XE      0.123100
     28 O19         1.7050    0.9850   11.7450 oh        1 0XE     -0.598800
     29 C20         3.7520   -0.0310   10.9470 c3        1 0XE      0.099100
     30 O20         4.1740   -0.4360   12.2420 oh        1 0XE     -0.627800
     31 C21         4.3340   -0.9370    9.8480 c3        1 0XE      0.114100
     32 O21         5.7340   -0.7260    9.8630 oh        1 0XE     -0.651800
     33 H1         -0.2430    0.1640   -0.9460 ha        1 0XE      0.136500
     34 H2          2.0680   -0.7580   -0.7640 ha        1 0XE      0.126000
     35 H3          3.0000   -1.3530    1.4800 ha        1 0XE      0.136500
     36 H4          1.6290   -1.0390    3.5320 ha        1 0XE      0.162500
     37 H5         -1.6260    0.4880    1.0930 ha        1 0XE      0.162500
     38 H6         -2.8650    0.0290    2.7710 ha        1 0XE      0.158000
     39 H8         -4.5090    0.3520    6.9500 ho        1 0XE      0.465000
     40 H9         -3.2400    0.0370    9.8340 ho        1 0XE      0.423000
     41 H10         1.1940   -0.3670    6.8990 ha        1 0XE      0.238000
     42 H11         1.7400    1.1850    9.1920 h2        1 0XE      0.059700
     43 H12         3.9080    0.5180    8.2730 h1        1 0XE      0.037700
     44 H14         1.8590   -1.0670   11.3670 h1        1 0XE      0.073700
     45 H15         2.0890    0.8700   12.6240 ho        1 0XE      0.412000
     46 H16         4.0930    1.0300   10.7800 h1        1 0XE      0.051700
     47 H17         5.1040   -0.6860   12.1580 ho        1 0XE      0.425000
     48 H18         4.1160   -2.0160   10.0790 h1        1 0XE      0.059700
     49 H19         6.0890   -1.1900    9.0820 ho        1 0XE      0.465000
@<TRIPOS>BOND
     1    1    2 ar  
     2    1    6 ar  
     3    1   33 1   
     4    2    3 ar  
     5    2   34 1   
     6    3    4 ar  
     7    3   35 1   
     8    4    5 ar  
     9    4   36 1   
    10    5    6 ar  
    11    5    7 1   
    12    6   37 1   
    13    7    8 2   
    14    7   11 1   
    15    8    9 1   
    16    8   38 1   
    17    9   10 2   
    18    9   13 1   
    19   11   12 1   
    20   12   13 ar  
    21   12   18 ar  
    22   13   14 ar  
    23   14   15 1   
    24   14   16 ar  
    25   15   39 1   
    26   16   17 1   
    27   16   19 ar  
    28   17   40 1   
    29   18   19 ar  
    30   18   41 1   
    31   19   20 1   
    32   20   21 1   
    33   21   22 1   
    34   21   27 1   
    35   21   42 1   
    36   22   23 1   
    37   23   24 1   
    38   23   31 1   
    39   23   43 1   
    40   24   25 1   
    41   24   26 1   
    42   27   28 1   
    43   27   29 1   
    44   27   44 1   
    45   28   45 1   
    46   29   30 1   
    47   29   31 1   
    48   29   46 1   
    49   30   47 1   
    50   31   32 1   
    51   31   48 1   
    52   32   49 1   
@<TRIPOS>SUBSTRUCTURE
     1 0XE         1 TEMP              0 ****  ****    0 ROOT
