@<TRIPOS>MOLECULE
0XE
   49    45     1     0     0
SMALL
bcc


@<TRIPOS>ATOM
      1 C1          1.2110   -2.3350   -7.0220 c1        1 0XE     -0.127500
      2 C2          1.5250   -1.1200   -7.6200 c1        1 0XE     -0.127500
      3 C3          1.1940    0.0690   -6.9890 c1        1 0XE     -0.127500
      4 C4          0.5500    0.0450   -5.7600 c1        1 0XE     -0.074000
      5 C5          0.2370   -1.1650   -5.1650 c1        1 0XE     -0.066000
      6 C6          0.5690   -2.3570   -5.7980 c1        1 0XE     -0.127500
      7 C7         -0.5360   -1.1900   -3.8040 c2        1 0XE      0.144000
      8 C8         -2.0000   -1.0430   -3.7850 c1        1 0XE     -0.318000
      9 C9         -2.7130   -1.0720   -2.5160 c1        1 0XE      0.322000
     10 O9         -3.9240   -0.9410   -2.4930 o         1 0XE     -0.311000
     11 O12         0.1900   -1.3290   -2.5640 os        1 0XE     -0.114000
     12 C11        -0.5340   -1.2200   -1.2500 c2        1 0XE      0.102000
     13 C10        -1.9370   -1.1600   -1.2220 c2        1 0XE     -0.216000
     14 C17        -2.6130   -1.0590    0.0100 c1        1 0XE      0.136000
     15 O17        -4.0560   -1.0780    0.0440 o         1 0XE     -0.218000
     16 C16        -1.8900   -1.0190    1.1990 c2        1 0XE     -0.067000
     17 O16        -2.5700   -1.0880    2.4330 oh        1 0XE     -0.281000
     18 C14         0.1910   -1.1790   -0.0550 c1        1 0XE     -0.164000
     19 C15        -0.4800   -1.0790    1.1690 c1        1 0XE      0.085000
     20 O18         0.2550   -1.0650    2.3780 os        1 0XE     -0.223000
     21 C18         0.2800    0.2480    2.8950 c3        1 0XE      0.155000
     22 O22         1.5400    0.8950    2.4900 os        1 0XE     -0.256000
     23 C22         1.7450    2.2480    3.1060 c3        1 0XE     -0.085000
     24 C23         3.0680    2.8270    2.7240 c1        1 0XE      0.358000
     25 O24         4.0580    2.0610    2.5160 o         1 0XE     -0.524000
     26 O23         3.1650    4.0620    2.4810 os        1 0XE     -0.576000
     27 C19         0.1060    0.1860    4.3760 c3        1 0XE      0.007000
     28 O19        -1.2510   -0.3070    4.6730 oh        1 0XE     -0.337000
     29 C20         0.2860    1.4760    5.0260 c3        1 0XE     -0.012000
     30 O20         0.2770    1.2730    6.4890 oh        1 0XE     -0.356000
     31 C21         1.5600    2.1380    4.6410 c3        1 0XE      0.004000
     32 O21         1.5830    3.4540    5.2010 oh        1 0XE     -0.380000
     33 H1          1.4430   -3.1690   -7.4650 ha        1 0XE      0.132250
     34 H2          1.9770   -1.1050   -8.4820 ha        1 0XE      0.132250
     35 H3          1.3560    0.9220   -7.4390 ha        1 0XE      0.132250
     36 H4          0.3180    0.8790   -5.3170 ha        1 0XE      0.187000
     37 H5          0.3480   -3.2150   -5.3750 ha        1 0XE      0.132250
     38 H6         -2.4880   -0.8280   -4.6250 ha        1 0XE      0.155000
     39 H8         -4.3580   -0.3170    0.4210 ho        1 0XE      0.229000
     40 H9         -2.9160   -1.8970    2.5340 ho        1 0XE      0.250000
     41 H10         1.1670   -1.1950   -0.0760 ha        1 0XE      0.240000
     42 H11        -0.4570    0.7440    2.5160 h2        1 0XE      0.095000
     43 H12         1.1320    2.9100    2.7290 h1        1 0XE      0.078000
     44 H14         0.7600   -0.4470    4.7440 h1        1 0XE      0.113000
     45 H15        -1.2890   -0.5840    5.5230 ho        1 0XE      0.215000
     46 H16        -0.4680    2.0660    4.7810 h1        1 0XE      0.091000
     47 H17        -0.1460    1.9360    6.8720 ho        1 0XE      0.227000
     48 H18         2.3050    1.6250    5.0120 h1        1 0XE      0.098000
     49 H19         2.2300    3.5000    5.8390 ho        1 0XE      0.267000
@<TRIPOS>BOND
     1    1    6 1   
     2    1   33 1   
     3    2    3 1   
     4    2   34 1   
     5    3   35 1   
     6    4    5 1   
     7    4   36 1   
     8    5    7 1   
     9    6   37 1   
    10    7    8 1   
    11    7   11 1   
    12    8   38 1   
    13    9   10 1   
    14    9   13 1   
    15   11   12 1   
    16   12   13 1   
    17   12   18 1   
    18   13   14 1   
    19   14   16 1   
    20   15   39 1   
    21   16   17 1   
    22   16   19 1   
    23   17   40 1   
    24   18   41 1   
    25   19   20 1   
    26   20   21 1   
    27   21   22 1   
    28   21   27 1   
    29   21   42 1   
    30   22   23 1   
    31   23   24 1   
    32   23   31 1   
    33   23   43 1   
    34   24   25 1   
    35   27   28 1   
    36   27   29 1   
    37   27   44 1   
    38   28   45 1   
    39   29   30 1   
    40   29   31 1   
    41   29   46 1   
    42   30   47 1   
    43   31   32 1   
    44   31   48 1   
    45   32   49 1   
@<TRIPOS>SUBSTRUCTURE
     1 0XE         1 TEMP              0 ****  ****    0 ROOT
