@<TRIPOS>MOLECULE
0XE
   49    52     1     0     0
SMALL
bcc


@<TRIPOS>ATOM
      1 C1          0.0090   -0.6170    0.0040 ca        1 0XE     -0.144000
      2 C2          1.3860   -0.8210    0.0990 ca        1 0XE     -0.115000
      3 C3          2.0090   -0.8000    1.3460 ca        1 0XE     -0.144000
      4 C4          1.2620   -0.5710    2.5010 ca        1 0XE     -0.085500
      5 C5         -0.1230   -0.3580    2.4080 ca        1 0XE     -0.085800
      6 C6         -0.7470   -0.3890    1.1520 ca        1 0XE     -0.085500
      7 C7         -0.9090   -0.1060    3.6180 cc        1 0XE      0.217900
      8 C8         -2.1640    0.4040    3.6710 cd        1 0XE     -0.346200
      9 C9         -2.8590    0.6210    4.9340 c         1 0XE      0.608900
     10 O9         -4.0310    1.0480    4.9670 o         1 0XE     -0.612100
     11 O12        -0.1990   -0.4590    4.7480 os        1 0XE     -0.196200
     12 C11        -0.7740   -0.1990    5.9830 ca        1 0XE      0.146100
     13 C10        -2.0780    0.3120    6.1340 ca        1 0XE     -0.287600
     14 C17        -2.5550    0.5120    7.4490 ca        1 0XE      0.190100
     15 O17        -3.7960    0.9940    7.7590 oh        1 0XE     -0.488100
     16 C16        -1.7250    0.2190    8.5530 ca        1 0XE      0.029100
     17 O16        -2.2500    0.4190    9.8110 oh        1 0XE     -0.480100
     18 C14         0.0690   -0.5020    7.0600 ca        1 0XE     -0.159000
     19 C15        -0.4200   -0.2830    8.3480 ca        1 0XE      0.124100
     20 O18         0.2710   -0.6130    9.5020 os        1 0XE     -0.361900
     21 C18         1.5900   -0.0700    9.6300 c3        1 0XE      0.301900
     22 O22         2.2910   -0.6650    8.5660 os        1 0XE     -0.399600
     23 C22         3.6720   -0.3070    8.5440 c3        1 0XE     -0.023900
     24 C23         4.2630   -0.9140    7.2340 c         1 0XE      0.938600
     25 O24         3.5100   -1.0070    6.2360 o         1 0XE     -0.817300
     26 O23         5.4870   -1.2260    7.2740 o         1 0XE     -0.817300
     27 C19         2.1190   -0.5420   11.0030 c3        1 0XE      0.120100
     28 O19         1.5040    0.2270   12.0240 oh        1 0XE     -0.589800
     29 C20         3.6330   -0.2910   11.0760 c3        1 0XE      0.143100
     30 O20         4.1080   -0.9610   12.2360 oh        1 0XE     -0.606800
     31 C21         4.3360   -0.8380    9.8160 c3        1 0XE      0.108100
     32 O21         5.6870   -0.4230    9.9230 oh        1 0XE     -0.650800
     33 H1         -0.4850   -0.6390   -0.9780 ha        1 0XE      0.136500
     34 H2          1.9780   -1.0010   -0.8100 ha        1 0XE      0.126000
     35 H3          3.0940   -0.9670    1.4290 ha        1 0XE      0.136500
     36 H4          1.7600   -0.5650    3.4900 ha        1 0XE      0.162500
     37 H5         -1.8340   -0.2400    1.0690 ha        1 0XE      0.162500
     38 H6         -2.7080    0.6830    2.7590 ha        1 0XE      0.159000
     39 H8         -4.2930    1.1580    6.9400 ho        1 0XE      0.453000
     40 H9         -1.5290    0.2730   10.4450 ho        1 0XE      0.422000
     41 H10         1.0970   -0.8830    6.8660 ha        1 0XE      0.246000
     42 H11         1.5680    1.0510    9.5510 h2        1 0XE      0.052700
     43 H12         3.7790    0.8100    8.4930 h1        1 0XE      0.039700
     44 H14         1.9030   -1.6350   11.1430 h1        1 0XE      0.073700
     45 H15         0.5880   -0.0730   12.0660 ho        1 0XE      0.398000
     46 H16         3.8320    0.8110   11.1830 h1        1 0XE      0.054700
     47 H17         5.0710   -0.9770   12.1550 ho        1 0XE      0.417000
     48 H18         4.2910   -1.9630    9.8190 h1        1 0XE      0.058700
     49 H19         6.1140   -0.6540    9.0770 ho        1 0XE      0.465000
@<TRIPOS>BOND
     1    1    2 ar  
     2    1    6 ar  
     3    1   33 1   
     4    2    3 ar  
     5    2   34 1   
     6    3    4 ar  
     7    3   35 1   
     8    4    5 ar  
     9    4   36 1   
    10    5    6 ar  
    11    5    7 1   
    12    6   37 1   
    13    7    8 2   
    14    7   11 1   
    15    8    9 1   
    16    8   38 1   
    17    9   10 2   
    18    9   13 1   
    19   11   12 1   
    20   12   13 ar  
    21   12   18 ar  
    22   13   14 ar  
    23   14   15 1   
    24   14   16 ar  
    25   15   39 1   
    26   16   17 1   
    27   16   19 ar  
    28   17   40 1   
    29   18   19 ar  
    30   18   41 1   
    31   19   20 1   
    32   20   21 1   
    33   21   22 1   
    34   21   27 1   
    35   21   42 1   
    36   22   23 1   
    37   23   24 1   
    38   23   31 1   
    39   23   43 1   
    40   24   25 1   
    41   24   26 1   
    42   27   28 1   
    43   27   29 1   
    44   27   44 1   
    45   28   45 1   
    46   29   30 1   
    47   29   31 1   
    48   29   46 1   
    49   30   47 1   
    50   31   32 1   
    51   31   48 1   
    52   32   49 1   
@<TRIPOS>SUBSTRUCTURE
     1 0XE         1 TEMP              0 ****  ****    0 ROOT
