@<TRIPOS>MOLECULE
0XF
   51    53     1     0     0
SMALL
bcc


@<TRIPOS>ATOM
      1 N3          1.8880    2.8300   -0.1360 nb        1 0XF     -0.391000
      2 C5         -0.3870    3.2510   -0.0190 ca        1 0XF      0.151800
      3 C6         -0.7430    1.8570   -0.0350 ca        1 0XF      0.205300
      4 C8          0.3330    0.9380   -0.0840 ca        1 0XF     -0.383300
      5 C15        -2.0150   -0.7500   -1.1320 ca        1 0XF     -0.256300
      6 C20         4.8040   -2.2480    1.0280 c3        1 0XF     -0.078400
      7 C21         3.5590   -1.7580    1.7360 c3        1 0XF     -0.077400
      8 C22         2.3820   -1.6910    0.7900 c3        1 0XF     -0.087400
      9 C24         3.9420   -1.3510   -1.1510 c3        1 0XF      0.161500
     10 C26         5.1290   -1.3930   -0.1770 c3        1 0XF     -0.077400
     11 C1          1.6620    1.4310   -0.1320 ca        1 0XF      0.649200
     12 N2          2.7650    0.6000   -0.1050 nh        1 0XF     -0.831900
     13 N4          0.9300    3.6320   -0.0750 nb        1 0XF     -0.241000
     14 N7         -2.0700    1.4660   -0.0660 nh        1 0XF     -0.724300
     15 C9         -1.4230    4.3220    0.0960 c         1 0XF      0.597600
     16 O10        -2.4910    4.1440    0.7270 o         1 0XF     -0.647100
     17 N11        -1.2060    5.5200   -0.5350 n         1 0XF     -0.647000
     18 C12        -3.3330   -2.5310   -0.1690 ca        1 0XF     -0.209600
     19 C14        -2.4690   -2.0650   -1.1620 ca        1 0XF     -0.083000
     20 C16        -2.4470    0.0950   -0.0730 ca        1 0XF      0.620200
     21 N17        -3.2890   -0.3490    0.9090 nb        1 0XF     -0.689000
     22 C18        -3.7220   -1.6240    0.8540 ca        1 0XF      0.439600
     23 C19        -4.6520   -2.1100    1.9220 c3        1 0XF     -0.151400
     24 C23         2.6610   -0.8040   -0.4360 c3        1 0XF      0.227500
     25 H1          0.1370   -0.1430   -0.0510 ha        1 0XF      0.157000
     26 H2         -3.5290   -4.4520    0.7560 hc        1 0XF      0.046700
     27 H3         -4.9530   -3.9290   -0.2340 hc        1 0XF      0.046700
     28 H4         -3.4350   -4.4880   -1.0560 hc        1 0XF      0.046700
     29 H5         -1.3480   -0.3670   -1.9170 ha        1 0XF      0.153000
     30 H6          5.6720   -2.2290    1.7380 hc        1 0XF      0.042700
     31 H7          4.6580   -3.3130    0.7050 hc        1 0XF      0.042700
     32 H8          3.3150   -2.4500    2.5840 hc        1 0XF      0.050700
     33 H9          3.7500   -0.7440    2.1750 hc        1 0XF      0.050700
     34 H10         2.1390   -2.7200    0.4150 hc        1 0XF      0.050700
     35 H11         1.4830   -1.3070    1.3380 hc        1 0XF      0.050700
     36 H12         3.6880   -2.4290   -1.4080 h1        1 0XF      0.020700
     37 H13         5.3960   -0.3560    0.1540 hc        1 0XF      0.049700
     38 H14         6.0260   -1.8170   -0.7000 hc        1 0XF      0.049700
     39 H15         3.6580    1.0200   -0.2610 hn        1 0XF      0.454800
     40 H16        -2.7230    2.0980    0.3700 hn        1 0XF      0.484800
     41 H17        -0.3280    5.7400   -0.9320 hn        1 0XF      0.316500
     42 H18        -1.8530    6.2550   -0.3850 hn        1 0XF      0.316500
     43 H19        -2.1520   -2.7350   -1.9770 ha        1 0XF      0.138000
     44 H20        -5.6080   -2.4460    1.4500 hc        1 0XF      0.056700
     45 H21        -4.1860   -2.9820    2.4460 hc        1 0XF      0.056700
     46 H22        -4.8840   -1.3210    2.6780 hc        1 0XF      0.056700
     47 H23         1.7940   -0.9480   -1.1550 h1        1 0XF      0.044700
     48 N25         4.2450   -0.5820   -2.3440 n3        1 0XF     -0.924800
     49 C13        -3.8350   -3.9200   -0.1800 c3        1 0XF     -0.045800
     50 H24         5.1250   -0.8570   -2.7300 hn        1 0XF      0.358800
     51 H25         3.5240   -0.6910   -3.0270 hn        1 0XF      0.358800
@<TRIPOS>BOND
     1    1   11 ar  
     2    1   13 ar  
     3    2    3 ar  
     4    2   13 ar  
     5    2   15 1   
     6    3    4 ar  
     7    3   14 1   
     8    4   11 ar  
     9    4   25 1   
    10    5   19 ar  
    11    5   20 ar  
    12    5   29 1   
    13    6    7 1   
    14    6   10 1   
    15    6   30 1   
    16    6   31 1   
    17    7    8 1   
    18    7   32 1   
    19    7   33 1   
    20    8   24 1   
    21    8   34 1   
    22    8   35 1   
    23    9   10 1   
    24    9   24 1   
    25    9   36 1   
    26    9   48 1   
    27   10   37 1   
    28   10   38 1   
    29   11   12 1   
    30   12   24 1   
    31   12   39 1   
    32   14   20 1   
    33   14   40 1   
    34   15   16 2   
    35   15   17 1   
    36   17   41 1   
    37   17   42 1   
    38   18   19 ar  
    39   18   22 ar  
    40   18   49 1   
    41   19   43 1   
    42   20   21 ar  
    43   21   22 ar  
    44   22   23 1   
    45   23   44 1   
    46   23   45 1   
    47   23   46 1   
    48   24   47 1   
    49   26   49 1   
    50   27   49 1   
    51   28   49 1   
    52   48   50 1   
    53   48   51 1   
@<TRIPOS>SUBSTRUCTURE
     1 0XF         1 TEMP              0 ****  ****    0 ROOT
