@<TRIPOS>MOLECULE
0XF
   51    50     1     0     0
SMALL
bcc


@<TRIPOS>ATOM
      1 N3         -0.2080    0.4750   -0.1930 n2        1 0XF     -0.109000
      2 C5         -0.7410    0.4380    2.0600 c2        1 0XF     -0.243000
      3 C6          0.5920    0.1010    2.4660 c2        1 0XF      0.170000
      4 C8          1.5530   -0.0110    1.4400 c2        1 0XF     -0.291000
      5 C15         2.2910   -2.1480    3.4450 c3        1 0XF     -0.202000
      6 C20         5.7440    1.3090   -4.7510 c1        1 0XF     -0.222000
      7 C21         4.4200    1.6710    0.0790 c3        1 0XF     -0.271000
      8 C22         4.4800    0.3120   -0.3840 c1        1 0XF     -0.069000
      9 C24         3.7900   -1.1870   -2.1630 c3        1 0XF     -0.066000
     10 C26         4.5520    1.2390   -4.8140 c1        1 0XF     -0.222000
     11 C1          1.1460    0.1720    0.0870 c2        1 0XF      0.119000
     12 N2          2.0410    0.1380   -0.9610 nh        1 0XF     -0.293000
     13 N4         -1.0420    0.6040    0.7310 n2        1 0XF      0.022000
     14 N7          0.9110   -0.0590    3.8130 nh        1 0XF     -0.259000
     15 C9         -1.8310    0.6640    3.0620 c2        1 0XF      0.375000
     16 O10        -1.5920    1.1760    4.1800 o         1 0XF     -0.399000
     17 N11        -3.1030    0.2680    2.7480 n         1 0XF     -0.402000
     18 C12         3.0650   -3.1890    5.5440 c2        1 0XF     -0.255000
     19 C14         2.9180   -3.2550    4.1590 c1        1 0XF     -0.134000
     20 C16         1.7680   -1.0230    4.3220 c2        1 0XF      0.153000
     21 N17         2.0620   -0.9570    5.6300 n2        1 0XF     -0.267000
     22 C18         2.7400   -2.0010    6.2180 c2        1 0XF      0.129000
     23 C19         3.1240   -1.8380    7.6520 c3        1 0XF     -0.195000
     24 C23         3.3420   -0.5000   -0.8290 c3        1 0XF     -0.037000
     25 H1          2.6110   -0.1810    1.6800 ha        1 0XF      0.154000
     26 H2          3.8210   -5.1920    5.5720 hc        1 0XF      0.077333
     27 H3          4.6040   -4.0630    6.7600 hc        1 0XF      0.077333
     28 H4          2.9330   -4.6860    7.0750 hc        1 0XF      0.077333
     29 H5          3.0900   -1.7540    2.7520 hc        1 0XF      0.157500
     30 H6          1.2740    0.6580   -4.1010 ha        1 0XF      0.002000
     31 H7          1.6820    0.1170   -4.1010 ha        1 0XF      0.002000
     32 H8          6.8020    1.3690   -4.6940 ha        1 0XF      0.221500
     33 H9          4.9090    2.2950   -0.7240 hc        1 0XF      0.119667
     34 H10         3.4080    2.0990    0.2920 hc        1 0XF      0.119667
     35 H11         5.0570    1.7720    0.9990 hc        1 0XF      0.119667
     36 H12         4.8130   -1.6190   -1.9600 h1        1 0XF      0.097500
     37 H13         3.8990   -0.3950   -2.9600 h1        1 0XF      0.097500
     38 H14         3.4930    1.1840   -4.8780 ha        1 0XF      0.221500
     39 H15         1.6540    0.1520   -1.8850 hn        1 0XF      0.250000
     40 H16         0.3840    0.5110    4.4590 hn        1 0XF      0.294000
     41 H17        -3.3400   -0.0230    1.8330 hn        1 0XF      0.233500
     42 H18        -3.8350    0.4850    3.3800 hn        1 0XF      0.233500
     43 H19         1.4580   -2.5530    2.8040 hc        1 0XF      0.157500
     44 H20         2.6240   -2.6410    8.2510 hc        1 0XF      0.104333
     45 H21         4.2320   -1.9670    7.7460 hc        1 0XF      0.104333
     46 H22         2.8390   -0.8430    8.0730 hc        1 0XF      0.104333
     47 H23         3.2860   -1.3230   -0.0350 h1        1 0XF      0.138000
     48 N25         2.8330   -2.1600   -2.6230 n3        1 0XF     -0.368000
     49 C13         3.6350   -4.3420    6.2740 c3        1 0XF     -0.143000
     50 H24         3.0740   -2.4860   -3.5370 hn        1 0XF      0.157500
     51 H25         2.7640   -2.9350   -1.9950 hn        1 0XF      0.157500
@<TRIPOS>BOND
     1    1   11 1   
     2    1   13 1   
     3    2    3 1   
     4    2   13 1   
     5    2   15 1   
     6    3    4 1   
     7    3   14 1   
     8    4   11 1   
     9    4   25 1   
    10    5   19 1   
    11    5   20 1   
    12    5   29 1   
    13    5   43 1   
    14    6   10 1   
    15    6   32 1   
    16    7    8 1   
    17    7   33 1   
    18    7   34 1   
    19    7   35 1   
    20    8   24 1   
    21    9   24 1   
    22    9   36 1   
    23    9   37 1   
    24    9   48 1   
    25   10   38 1   
    26   11   12 1   
    27   12   24 1   
    28   12   39 1   
    29   14   20 1   
    30   14   40 1   
    31   15   16 1   
    32   15   17 1   
    33   17   41 1   
    34   17   42 1   
    35   18   19 1   
    36   18   22 1   
    37   18   49 1   
    38   20   21 1   
    39   21   22 1   
    40   22   23 1   
    41   23   44 1   
    42   23   45 1   
    43   23   46 1   
    44   24   47 1   
    45   26   49 1   
    46   27   49 1   
    47   28   49 1   
    48   30   31 1   
    49   48   50 1   
    50   48   51 1   
@<TRIPOS>SUBSTRUCTURE
     1 0XF         1 TEMP              0 ****  ****    0 ROOT
