@<TRIPOS>MOLECULE
0XF
   53    52     1     0     0
SMALL
bcc


@<TRIPOS>ATOM
      1 N3         -0.5460    1.6520    0.5490 n2        1 0XF     -0.045000
      2 C5         -1.1900    0.5070    2.4670 c2        1 0XF     -0.340000
      3 C6          0.0530   -0.2180    2.5760 c2        1 0XF      0.262000
      4 C8          1.0580    0.1340    1.6090 c2        1 0XF     -0.309000
      5 C15         1.7870   -2.8240    2.3110 c3        1 0XF     -0.220000
      6 C20         4.3440   -3.6760   -0.7210 c1        1 0XF     -0.253000
      7 C21         3.6500    2.6670   -2.3480 c3        1 0XF     -0.238000
      8 C22         3.7710    2.5090   -0.8570 c3        1 0XF     -0.181000
      9 C24         3.7120    0.0450   -0.9350 c2        1 0XF      0.129000
     10 C26         4.7390   -3.6890   -1.8530 c1        1 0XF     -0.253000
     11 C1          0.7480    1.0290    0.5790 c2        1 0XF      0.124000
     12 N2          1.6100    1.2970   -0.4840 nu        1 0XF     -0.295000
     13 N4         -1.3840    1.4060    1.4210 n2        1 0XF      0.035000
     14 N7          0.2490   -1.2090    3.4860 nu        1 0XF     -0.230000
     15 C9         -2.2660    0.3290    3.4280 c2        1 0XF      0.344000
     16 O10        -2.3120   -0.4150    4.4030 o         1 0XF     -0.215000
     17 N11        -3.5130    1.1640    3.2360 nz        1 0XF     -0.124000
     18 C12         3.9030   -3.3070    3.4780 c2        1 0XF     -0.200000
     19 C14         3.1610   -3.3080    2.2760 c1        1 0XF     -0.124000
     20 C16         1.4630   -1.9700    3.5180 c2        1 0XF      0.077000
     21 N17         2.2040   -1.9500    4.6050 n2        1 0XF     -0.158000
     22 C18         3.4010   -2.6840    4.6200 c2        1 0XF      0.105000
     23 C19         4.1510   -2.7210    5.9040 c3        1 0XF     -0.206000
     24 C23         3.0430    1.2620   -0.3040 c3        1 0XF     -0.014000
     25 H1          2.0640   -0.3030    1.7040 ha        1 0XF      0.169000
     26 H5          1.5080   -2.3280    1.3460 hc        1 0XF      0.170500
     27 H6          4.8530    2.4310   -0.5640 hc        1 0XF      0.132500
     28 H7          3.3560    3.4180   -0.3400 hc        1 0XF      0.132500
     29 H8          4.0220    1.7590   -2.8820 hc        1 0XF      0.101000
     30 H9          4.0040   -3.7130    0.3030 ha        1 0XF      0.255500
     31 H10         2.5980    2.8630   -2.6660 hc        1 0XF      0.101000
     32 H11         4.2690    3.5400   -2.6810 hc        1 0XF      0.101000
     33 H12         4.5650   -1.5960    1.4480 ha        1 0XF      0.003500
     34 H13         4.8180   -0.0070   -0.7620 h4        1 0XF      0.219000
     35 H14         5.1180   -3.7680   -2.8450 ha        1 0XF      0.255500
     36 H15         1.2940    1.9960   -1.1360 hn        1 0XF      0.267000
     37 H16        -0.3460   -1.2650    4.2960 hn        1 0XF      0.291000
     38 H17        -3.2790    2.1620    3.2700 hn        1 0XF      0.275000
     39 H18        -4.1890    0.9470    3.9810 hn        1 0XF      0.275000
     40 H19         1.1510   -3.7690    2.3680 hc        1 0XF      0.170500
     41 H20         4.3110   -3.7930    6.1960 hc        1 0XF      0.128667
     42 H21         5.1580   -2.2500    5.7550 hc        1 0XF      0.128667
     43 H22         3.6270   -2.1940    6.7390 hc        1 0XF      0.128667
     44 H23         3.3040    1.1840    0.8030 h1        1 0XF      0.160000
     45 C13         5.2210   -3.9800    3.5000 c3        1 0XF     -0.172000
     46 H113       -3.9370    0.9600    2.3230 hn        1 0XF      0.275000
     47 N25         3.1440   -0.8990   -1.6210 n8        1 0XF     -0.147000
     48 H24         3.6710   -1.7060   -1.9550 hn        1 0XF      0.296000
     49 H2          6.0200   -3.2770    3.8470 hc        1 0XF      0.104000
     50 H3          5.1980   -4.8510    4.2050 hc        1 0XF      0.104000
     51 H4          5.4880   -4.3570    2.4810 hc        1 0XF      0.104000
     52 H25         4.2060   -1.0640    1.2180 ha        1 0XF      0.003500
     53 H253        2.1590   -0.9030   -1.8310 hn        1 0XF      0.296000
@<TRIPOS>BOND
     1    1   11 1   
     2    1   13 1   
     3    2    3 1   
     4    2   13 1   
     5    2   15 1   
     6    3    4 1   
     7    3   14 1   
     8    4   11 1   
     9    4   25 1   
    10    5   19 1   
    11    5   20 1   
    12    5   26 1   
    13    5   40 1   
    14    6   10 1   
    15    6   30 1   
    16    7    8 1   
    17    7   29 1   
    18    7   31 1   
    19    7   32 1   
    20    8   24 1   
    21    8   27 1   
    22    8   28 1   
    23    9   24 1   
    24    9   34 1   
    25    9   47 1   
    26   10   35 1   
    27   11   12 1   
    28   12   24 1   
    29   12   36 1   
    30   14   20 1   
    31   14   37 1   
    32   15   16 1   
    33   15   17 1   
    34   17   38 1   
    35   17   39 1   
    36   17   46 1   
    37   18   19 1   
    38   18   22 1   
    39   18   45 1   
    40   20   21 1   
    41   21   22 1   
    42   22   23 1   
    43   23   41 1   
    44   23   42 1   
    45   23   43 1   
    46   24   44 1   
    47   33   52 1   
    48   45   49 1   
    49   45   50 1   
    50   45   51 1   
    51   47   48 1   
    52   47   53 1   
@<TRIPOS>SUBSTRUCTURE
     1 0XF         1 TEMP              0 ****  ****    0 ROOT
