@<TRIPOS>MOLECULE
0XF
   51    46     1     0     0
SMALL
bcc


@<TRIPOS>ATOM
      1 N3         -1.8120    0.7920   -1.2180 n1        1 0XF     -0.060000
      2 C5         -1.9250    0.6880    1.1270 c1        1 0XF     -0.265000
      3 C6         -0.5370    0.6590    1.1860 c1        1 0XF      0.193000
      4 C8          0.1890    0.6980    0.0410 c1        1 0XF     -0.265000
      5 C13         1.0390   -3.8140    5.7590 c3        1 0XF     -0.166000
      6 C15         1.5320   -0.5050    4.0050 c1        1 0XF     -0.219000
      7 C20         0.8570    0.9220   -5.9310 c3        1 0XF     -0.157000
      8 C21        -0.4810    0.6360   -5.2590 c3        1 0XF     -0.157000
      9 C22        -0.8730    1.7190   -4.2540 c3        1 0XF     -0.164000
     10 C24         1.5490    2.2850   -3.9500 c3        1 0XF     -0.043000
     11 C26         1.9420    1.2100   -4.9410 c3        1 0XF     -0.154000
     12 C1         -0.4420    0.7640   -1.1630 c1        1 0XF      0.120000
     13 N2          0.3460    0.8510   -2.4000 n2        1 0XF     -0.281000
     14 N4         -2.5460    0.7530   -0.0640 n1        1 0XF     -0.060000
     15 N7          0.1150    0.7550    2.4290 n3        1 0XF     -0.264000
     16 C9         -2.7280    0.6890    2.3910 c2        1 0XF      0.380000
     17 O10        -2.1690    0.5620    3.4660 o         1 0XF     -0.419000
     18 N11        -4.1730    0.7160    2.3290 n         1 0XF     -0.405000
     19 C12         0.8580   -2.6400    4.7930 c2        1 0XF     -0.159000
     20 C14         1.7450   -1.5990    4.8090 c2        1 0XF     -0.062000
     21 C16         0.4220   -0.4600    3.1820 c1        1 0XF      0.132000
     22 N17        -0.4660   -1.5090    3.1710 n1        1 0XF     -0.189000
     23 C18        -0.2550   -2.5900    3.9660 c1        1 0XF      0.025000
     24 C19        -1.2120   -3.7440    3.9310 c2        1 0XF     -0.174000
     25 C23         0.1970    1.9990   -3.2780 c3        1 0XF      0.038000
     26 N25         2.5480    2.3630   -2.9360 n3        1 0XF     -0.358000
     27 H1          1.1740    0.6770    0.0810 ha        1 0XF      0.169000
     28 H2          1.7920   -3.6540    6.3060 hc        1 0XF      0.082667
     29 H3          0.2540   -3.9020    6.3100 hc        1 0XF      0.082667
     30 H4          1.1760   -4.6560    5.2400 hc        1 0XF      0.082667
     31 H5          2.1750    0.2500    4.0140 ha        1 0XF      0.151000
     32 H6          0.7600    1.6560   -6.5000 hc        1 0XF      0.080500
     33 H7          1.1160    0.1370   -6.4640 hc        1 0XF      0.080500
     34 H8         -1.1530    0.5800   -5.9260 hc        1 0XF      0.086000
     35 H9         -0.4270   -0.2140   -4.8000 hc        1 0XF      0.086000
     36 H10        -1.0880    2.5670   -4.7540 hc        1 0XF      0.095500
     37 H11        -1.6770    1.4250   -3.7650 hc        1 0XF      0.095500
     38 H12         1.4960    3.1760   -4.4300 h1        1 0XF      0.063000
     39 H13         2.1420    0.4240   -4.4740 hc        1 0XF      0.085500
     40 H14         2.7550    1.5070   -5.4330 hc        1 0XF      0.085500
     41 H15         0.8290    0.1310   -2.6780 hn        1 0XF      0.242000
     42 H16         0.2840    1.5580    2.7840 hn        1 0XF      0.277000
     43 H17        -4.6770    0.4010    3.0510 hn        1 0XF      0.230500
     44 H18        -4.6040    1.0670    1.5750 hn        1 0XF      0.230500
     45 H19         2.5200   -1.6330    5.3830 ha        1 0XF      0.139000
     46 H20        -1.9070   -3.5740    3.2630 ha        1 0XF      0.093333
     47 H21        -0.7300   -4.5570    3.6980 ha        1 0XF      0.093333
     48 H22        -1.6280   -3.8500    4.8200 ha        1 0XF      0.093333
     49 H23        -0.0560    2.7640   -2.7550 h1        1 0XF      0.102000
     50 H24         2.3950    3.0920   -2.4190 hn        1 0XF      0.152500
     51 H25         3.3590    2.4290   -3.3170 hn        1 0XF      0.152500
@<TRIPOS>BOND
     1    1   14 1   
     2    2    3 1   
     3    2   16 1   
     4    3   15 1   
     5    4   12 1   
     6    4   27 1   
     7    5   19 1   
     8    5   28 1   
     9    5   29 1   
    10    5   30 1   
    11    6   20 1   
    12    6   31 1   
    13    7    8 1   
    14    7   11 1   
    15    7   32 1   
    16    7   33 1   
    17    8    9 1   
    18    8   34 1   
    19    8   35 1   
    20    9   25 1   
    21    9   36 1   
    22    9   37 1   
    23   10   11 1   
    24   10   25 1   
    25   10   26 1   
    26   10   38 1   
    27   11   39 1   
    28   11   40 1   
    29   13   25 1   
    30   13   41 1   
    31   15   21 1   
    32   15   42 1   
    33   16   17 1   
    34   16   18 1   
    35   18   43 1   
    36   18   44 1   
    37   19   20 1   
    38   19   23 1   
    39   20   45 1   
    40   21   22 1   
    41   24   46 1   
    42   24   47 1   
    43   24   48 1   
    44   25   49 1   
    45   26   50 1   
    46   26   51 1   
@<TRIPOS>SUBSTRUCTURE
     1 0XF         1 TEMP              0 ****  ****    0 ROOT
