@<TRIPOS>MOLECULE
0XF
   53    52     1     0     0
SMALL
bcc


@<TRIPOS>ATOM
      1 N3          0.2600    0.7480    0.6030 nb        1 0XF     -0.327000
      2 C5          0.1880   -0.8770    2.2430 ca        1 0XF      0.127800
      3 C6          1.4770   -1.4110    1.9370 ca        1 0XF      0.257300
      4 C8          2.1180   -0.8330    0.7860 ca        1 0XF     -0.340300
      5 C15         2.7150   -3.8740    4.4600 ca        1 0XF     -0.236300
      6 C20         4.2630   -1.6320   -6.2560 c1        1 0XF     -0.171000
      7 C21         3.3740    3.3060   -2.2360 c3        1 0XF     -0.119100
      8 C22         3.9350    2.3760   -1.1960 c3        1 0XF     -0.111400
      9 C24         3.8290    0.4070   -2.6710 c2        1 0XF      0.389200
     10 C26         4.0120   -0.5550   -6.7160 c1        1 0XF     -0.171000
     11 C1          1.4960    0.2310    0.1180 ca        1 0XF      0.624200
     12 N2          1.9780    0.7900   -1.0790 nh        1 0XF     -0.848900
     13 N4         -0.3180    0.2180    1.5660 nb        1 0XF     -0.225000
     14 N7          2.0940   -2.4280    2.6120 nh        1 0XF     -0.715300
     15 C9         -0.7130   -1.5220    3.2070 c         1 0XF      0.523600
     16 O10        -1.0430   -2.6910    3.2930 o         1 0XF     -0.393100
     17 N11        -1.3380   -0.5780    4.2090 n4        1 0XF     -0.745400
     18 C12         2.0810   -3.2780    6.7160 ca        1 0XF     -0.158600
     19 C14         2.7260   -4.1430    5.8250 ca        1 0XF     -0.050000
     20 C16         2.0280   -2.7140    4.0070 ca        1 0XF      0.608200
     21 N17         1.3600   -1.8770    4.8540 nb        1 0XF     -0.782000
     22 C18         1.4040   -2.1510    6.1790 ca        1 0XF      0.432600
     23 C19         0.7180   -1.2260    7.1330 c3        1 0XF     -0.158400
     24 C23         3.3990    0.9300   -1.3040 c3        1 0XF      0.103200
     25 H1          3.0820   -1.2430    0.4500 ha        1 0XF      0.158000
     26 H5          3.2240   -4.5520    3.7590 ha        1 0XF      0.165000
     27 H6          5.0560    2.3340   -1.2780 hc        1 0XF      0.090700
     28 H7          3.6950    2.7630   -0.1690 hc        1 0XF      0.090700
     29 H8          3.5490    2.9130   -3.2680 hc        1 0XF      0.060367
     30 H9          4.5030   -2.6100   -5.9110 ha        1 0XF      0.182000
     31 H10         3.8790    4.3030   -2.1570 hc        1 0XF      0.060367
     32 H11         2.2780    3.4760   -2.0990 hc        1 0XF      0.060367
     33 H12         6.3030    0.4550   -1.2260 ha        1 0XF      0.001000
     34 H13         4.9260    0.5210   -2.8760 h4        1 0XF      0.088800
     35 H14         3.8030    0.3810   -7.1790 ha        1 0XF      0.182000
     36 H15         1.4590    1.5980   -1.3850 hn        1 0XF      0.451800
     37 H16         2.8860   -2.8460    2.1620 hn        1 0XF      0.463800
     38 H17        -0.5910   -0.0710    4.7000 hn        1 0XF      0.474133
     39 H18        -1.8950   -1.1050    4.8910 hn        1 0XF      0.474133
     40 H19         3.2480   -5.0390    6.2020 ha        1 0XF      0.176000
     41 H20        -0.0980   -1.7760    7.6670 hc        1 0XF      0.062033
     42 H21         1.4600   -0.8750    7.8970 hc        1 0XF      0.062033
     43 H22         0.2850   -0.3250    6.6360 hc        1 0XF      0.062033
     44 H23         3.9850    0.3000   -0.5590 h1        1 0XF      0.121700
     45 C13         2.1030   -3.5300    8.1710 c3        1 0XF     -0.067800
     46 H113       -1.9410    0.0980    3.7270 hn        1 0XF      0.474133
     47 N25         3.0740   -0.1320   -3.5790 nh        1 0XF     -0.305100
     48 H24         3.4490   -0.4490   -4.4730 hn        1 0XF      0.345200
     49 H2          2.6230   -4.4920    8.4090 hc        1 0XF      0.069367
     50 H3          2.6380   -2.7010    8.7020 hc        1 0XF      0.069367
     51 H4          1.0600   -3.5860    8.5760 hc        1 0XF      0.069367
     52 H25         2.0810   -0.2600   -3.4540 hn        1 0XF      0.345200
     53 H253        6.9700    0.5150   -1.1140 ha        1 0XF      0.001000
@<TRIPOS>BOND
     1    1   11 ar  
     2    1   13 ar  
     3    2    3 ar  
     4    2   13 ar  
     5    2   15 1   
     6    3    4 ar  
     7    3   14 1   
     8    4   11 ar  
     9    4   25 1   
    10    5   19 ar  
    11    5   20 ar  
    12    5   26 1   
    13    6   10 3   
    14    6   30 1   
    15    7    8 1   
    16    7   29 1   
    17    7   31 1   
    18    7   32 1   
    19    8   24 1   
    20    8   27 1   
    21    8   28 1   
    22    9   24 1   
    23    9   34 1   
    24    9   47 2   
    25   10   35 1   
    26   11   12 1   
    27   12   24 1   
    28   12   36 1   
    29   14   20 1   
    30   14   37 1   
    31   15   16 2   
    32   15   17 1   
    33   17   38 1   
    34   17   39 1   
    35   17   46 1   
    36   18   19 ar  
    37   18   22 ar  
    38   18   45 1   
    39   19   40 1   
    40   20   21 ar  
    41   21   22 ar  
    42   22   23 1   
    43   23   41 1   
    44   23   42 1   
    45   23   43 1   
    46   24   44 1   
    47   33   53 1   
    48   45   49 1   
    49   45   50 1   
    50   45   51 1   
    51   47   48 1   
    52   47   52 1   
@<TRIPOS>SUBSTRUCTURE
     1 0XF         1 TEMP              0 ****  ****    0 ROOT
