@<TRIPOS>MOLECULE
0XG
   45    43     1     0     0
SMALL
bcc


@<TRIPOS>ATOM
      1 C1          3.8050    1.8040   -2.9610 c3        1 0XG     -0.057000
      2 C3          5.9010    1.2630    0.5710 c3        1 0XG     -0.134000
      3 O5          4.3250    0.5180   -2.6490 os        1 0XG     -0.236000
      4 C7          4.3250   -2.0070   -1.5280 c2        1 0XG     -0.103000
      5 C8          3.9740   -2.9220   -0.6150 c2        1 0XG     -0.114000
      6 C9          2.8770   -3.8000   -0.8130 c1        1 0XG     -0.070000
      7 C10         7.4510   -1.6040   -2.9870 c1        1 0XG     -0.251000
      8 C11         6.5490   -1.3610   -2.2400 c1        1 0XG     -0.110000
      9 C13         7.7770   -6.4310    7.7270 c2        1 0XG      0.002000
     10 C15         7.4970   -4.0620    7.6490 c1        1 0XG     -0.167000
     11 C16         8.3420   -4.0500    6.5040 c2        1 0XG     -0.170000
     12 N18         8.6060   -6.4710    6.6910 n2        1 0XG     -0.286000
     13 C20         9.8580   -7.9540    5.0110 c1        1 0XG     -0.034000
     14 C21         8.5020   -2.7250    5.8630 c3        1 0XG     -0.371000
     15 C22         7.7840   -2.5960    4.6370 c1        1 0XG     -0.227000
     16 C24         8.5200   -0.8060    7.7520 c1        1 0XG     -1.133000
     17 O28         5.6880   -3.3580    2.0030 o         1 0XG     -0.572500
     18 N2          5.2010    1.3750   -0.6660 n2        1 0XG     -0.282000
     19 C4          5.0250    0.3690   -1.4530 c2        1 0XG      0.117000
     20 C6          5.4820   -1.0820   -1.3130 c3        1 0XG      0.007000
     21 N14         7.2390   -5.2570    8.2350 n3        1 0XG     -0.161000
     22 C17         8.9170   -5.2590    6.0670 c2        1 0XG      0.199000
     23 O19         9.8110   -5.2690    5.0560 oh        1 0XG     -0.245000
     24 C23         7.1680   -2.5010    3.6120 c1        1 0XG     -0.120000
     25 S25         7.6990   -1.6040    7.0350 ss        1 0XG      1.371000
     26 C26         6.3950   -2.3770    2.3760 c2        1 0XG      0.424000
     27 O27         6.4530   -1.2900    1.7250 o         1 0XG     -0.572500
     28 H1          4.6270    2.5520   -3.0590 h1        1 0XG      0.073333
     29 H2          3.0710    2.1350   -2.1870 h1        1 0XG      0.073333
     30 H3          3.2950    1.6470   -3.9460 h1        1 0XG      0.073333
     31 H4          5.3200    0.6660    1.3290 h1        1 0XG      0.098000
     32 H5          6.0440    2.3070    0.9560 h1        1 0XG      0.098000
     33 H6          6.9040    0.7650    0.4760 h1        1 0XG      0.098000
     34 H7          5.8850   -1.2260   -0.2440 hc        1 0XG      0.227000
     35 H8          3.7880   -1.8740   -2.4810 ha        1 0XG      0.125000
     36 H9          4.5300   -3.0460    0.3520 ha        1 0XG      0.246000
     37 H10         8.2550   -1.8220   -3.6370 ha        1 0XG      0.209000
     38 H11         6.6300   -5.2930    9.0210 hn        1 0XG      0.252000
     39 H12        10.0520   -6.2190    4.8010 ho        1 0XG      0.291000
     40 H13        10.3430   -8.5610    5.7870 ha        1 0XG      0.034000
     41 H14         8.9400   -8.4130    4.6220 ha        1 0XG      0.034000
     42 H15         9.5880   -2.5040    5.6980 h1        1 0XG      0.127000
     43 H16         9.1640   -0.1820    8.3190 ha        1 0XG      0.187000
     44 H17         7.5080   -7.3920    8.2090 h5        1 0XG      0.168000
     45 N12         1.9800   -4.5310   -0.9530 n1        1 0XG     -0.116000
@<TRIPOS>BOND
     1    1    3 1   
     2    1   28 1   
     3    1   29 1   
     4    1   30 1   
     5    2   18 1   
     6    2   31 1   
     7    2   32 1   
     8    2   33 1   
     9    3   19 1   
    10    4    5 1   
    11    4   20 1   
    12    4   35 1   
    13    5    6 1   
    14    5   36 1   
    15    6   45 1   
    16    7    8 1   
    17    7   37 1   
    18    8   20 1   
    19    9   12 1   
    20    9   21 1   
    21    9   44 1   
    22   10   11 1   
    23   10   21 1   
    24   11   14 1   
    25   11   22 1   
    26   12   22 1   
    27   13   40 1   
    28   13   41 1   
    29   14   15 1   
    30   14   25 1   
    31   14   42 1   
    32   15   24 1   
    33   16   25 1   
    34   16   43 1   
    35   17   26 1   
    36   18   19 1   
    37   19   20 1   
    38   20   34 1   
    39   21   38 1   
    40   22   23 1   
    41   23   39 1   
    42   24   26 1   
    43   26   27 1   
@<TRIPOS>SUBSTRUCTURE
     1 0XG         1 TEMP              0 ****  ****    0 ROOT
