@<TRIPOS>MOLECULE
0XG
   45    38     1     0     0
SMALL
bcc


@<TRIPOS>ATOM
      1 C1         -5.0410    1.8930   -5.3980 c3        1 0XG     -0.075000
      2 C3         -4.8570   -0.3850   -4.3550 c3        1 0XG     -0.075000
      3 O5         -4.6050    2.6690   -2.6130 o         1 0XG     -0.377000
      4 C7         -2.6090    1.9380   -1.3330 c1        1 0XG     -0.128500
      5 C8         -1.3230    2.0840   -0.8250 c1        1 0XG     -0.128500
      6 C9         -0.2580    1.4290   -1.4340 c1        1 0XG      0.080000
      7 C10        -0.4850    0.6120   -2.5750 c1        1 0XG     -0.117000
      8 C11        -1.7570    0.4670   -3.0780 c1        1 0XG     -0.092000
      9 C13         1.5460    0.6760    0.1140 c1        1 0XG      0.135000
     10 C15         1.6310   -1.4780    1.0420 c1        1 0XG     -0.011000
     11 C16         2.5030   -1.0080    2.0460 c1        1 0XG     -0.076000
     12 N18         2.4020    1.1470    1.0980 n1        1 0XG     -0.287000
     13 C20         4.6000    1.7540    2.6310 c3        1 0XG     -0.064000
     14 C21         2.9480   -1.9380    3.1740 c2        1 0XG     -0.371000
     15 C22         2.2120   -2.1910    4.4160 c1        1 0XG     -0.092000
     16 C24         4.1510   -3.7560    4.4600 c1        1 0XG     -0.385000
     17 O28         1.6540   -4.8560    6.5270 o         1 0XG     -0.562500
     18 N2         -4.6400    1.0500   -4.2880 n         1 0XG     -0.339000
     19 C4         -4.0930    1.6580   -3.0720 c2        1 0XG      0.353000
     20 C6         -2.8290    1.1230   -2.4700 c1        1 0XG     -0.138000
     21 N12         1.0650    1.5770   -0.9170 n3        1 0XG     -0.223000
     22 N14         1.1710   -0.6370    0.1020 n1        1 0XG     -0.220000
     23 C17         2.8750    0.3000    2.0560 c1        1 0XG      0.165000
     24 O19         3.7300    0.7850    3.0660 os        1 0XG     -0.182000
     25 C23         2.9740   -3.3420    5.2300 c1        1 0XG     -0.127000
     26 S25         4.1910   -2.9030    3.1450 ss        1 0XG      0.447000
     27 C26         2.5090   -3.9520    6.5360 c1        1 0XG      0.375000
     28 O27         3.0270   -3.5680    7.6490 o         1 0XG     -0.562500
     29 H1         -5.3720    1.3140   -6.1660 h1        1 0XG      0.081667
     30 H2         -4.2620    2.4330   -5.7040 h1        1 0XG      0.081667
     31 H3         -5.7630    2.4950   -5.1050 h1        1 0XG      0.081667
     32 H4         -5.3540   -0.6710   -3.5850 h1        1 0XG      0.081667
     33 H5         -5.3410   -0.5930   -5.1340 h1        1 0XG      0.081667
     34 H6         -3.9960   -0.8420   -4.3770 h1        1 0XG      0.081667
     35 H7         -3.3810    2.4100   -0.8950 ha        1 0XG      0.138500
     36 H8         -1.1590    2.6790    0.0060 ha        1 0XG      0.138500
     37 H9          0.2830    0.1380   -3.0150 ha        1 0XG      0.166000
     38 H10        -1.9090   -0.0940   -3.8600 ha        1 0XG      0.139000
     39 H11         1.3490   -2.4520    1.0280 ha        1 0XG      0.185000
     40 H12         4.1890    2.6180    2.7170 h1        1 0XG      0.085000
     41 H13         4.8210    1.5980    1.7150 h1        1 0XG      0.085000
     42 H14         5.4420    1.7260    3.1890 h1        1 0XG      0.085000
     43 H15         1.3550   -1.7100    4.7150 DU        1 0XG      0.172500
     44 H16         4.8200   -4.4690    4.7330 DU        1 0XG      0.172500
     45 H17         1.5870    2.2720   -1.1930 hn        1 0XG      0.220000
@<TRIPOS>BOND
     1    1   18 1   
     2    1   29 1   
     3    1   30 1   
     4    1   31 1   
     5    2   18 1   
     6    2   32 1   
     7    2   33 1   
     8    2   34 1   
     9    3   19 1   
    10    4    5 1   
    11    4   35 1   
    12    5   36 1   
    13    6    7 1   
    14    6   21 1   
    15    7   37 1   
    16    8   20 1   
    17    8   38 1   
    18    9   12 1   
    19    9   21 1   
    20   10   22 1   
    21   10   39 1   
    22   11   14 1   
    23   11   23 1   
    24   13   24 1   
    25   13   40 1   
    26   13   41 1   
    27   13   42 1   
    28   14   15 1   
    29   14   26 1   
    30   15   25 1   
    31   16   25 1   
    32   16   26 1   
    33   17   27 1   
    34   18   19 1   
    35   19   20 1   
    36   21   45 1   
    37   23   24 1   
    38   27   28 1   
@<TRIPOS>SUBSTRUCTURE
     1 0XG         1 TEMP              0 ****  ****    0 ROOT
