@<TRIPOS>MOLECULE
0XG
   45    47     1     0     0
SMALL
bcc


@<TRIPOS>ATOM
      1 C1          8.0820   -1.9310    1.1050 c3        1 0XG      0.080300
      2 C3          5.6790   -1.9010    1.5150 c3        1 0XG      0.080300
      3 O5          7.7330    0.2400   -0.5360 o         1 0XG     -0.616100
      4 C7          4.3310   -0.5650   -0.8680 ca        1 0XG     -0.080000
      5 C8          3.0940   -0.0380   -1.2210 ca        1 0XG     -0.153500
      6 C9          2.8480    1.3470   -1.0900 ca        1 0XG      0.164600
      7 C10         3.8950    2.1790   -0.6280 ca        1 0XG     -0.153500
      8 C11         5.1320    1.6410   -0.2960 ca        1 0XG     -0.080000
      9 C13         0.3860    1.5030   -0.9500 ca        1 0XG      0.854900
     10 C15        -0.9390   -0.0870    0.0850 ca        1 0XG      0.453200
     11 C16        -2.0970    0.7140   -0.0310 ca        1 0XG     -0.205600
     12 N18        -0.6660    2.3920   -1.1100 nb        1 0XG     -0.812000
     13 C20        -2.8100    4.0350   -1.4870 c3        1 0XG      0.125700
     14 C21        -3.3530    0.2280    0.4550 cc        1 0XG     -0.101100
     15 C22        -3.7340   -1.1060    0.4390 cd        1 0XG     -0.092000
     16 C24        -5.5540   -0.1430    1.4980 cc        1 0XG     -0.116100
     17 O28        -4.9740   -3.6800    0.7380 o         1 0XG     -0.827800
     18 N2          6.8020   -1.3470    0.8200 n         1 0XG     -0.480800
     19 C4          6.6990   -0.2700   -0.0520 c         1 0XG      0.680700
     20 C6          5.3530    0.2640   -0.3950 ca        1 0XG     -0.160600
     21 N14         0.2840    0.2650   -0.3490 nb        1 0XG     -0.746000
     22 C17        -1.8760    1.9770   -0.6650 ca        1 0XG      0.662600
     23 O19        -2.9750    2.7960   -0.7970 os        1 0XG     -0.425100
     24 C23        -5.0120   -1.3230    1.0450 cd        1 0XG     -0.147600
     25 S25        -4.5560    1.1720    1.1960 ss        1 0XG     -0.091800
     26 C26        -5.6410   -2.6950    1.1630 c         1 0XG      0.926200
     27 O27        -6.7890   -2.7770    1.6810 o         1 0XG     -0.827800
     28 H1          8.3760   -1.7220    2.1690 h1        1 0XG      0.042200
     29 H2          8.0280   -3.0440    0.9610 h1        1 0XG      0.042200
     30 H3          8.8660   -1.5090    0.4220 h1        1 0XG      0.042200
     31 H4          5.3330   -2.8440    1.0090 h1        1 0XG      0.042200
     32 H5          5.9750   -2.1540    2.5700 h1        1 0XG      0.042200
     33 H6          4.8240   -1.1760    1.5490 h1        1 0XG      0.042200
     34 H7          4.5050   -1.6480   -0.9710 ha        1 0XG      0.141500
     35 H8          2.3110   -0.7130   -1.6010 ha        1 0XG      0.150000
     36 H9          3.7420    3.2650   -0.5300 ha        1 0XG      0.150000
     37 H10         5.9480    2.2980    0.0440 ha        1 0XG      0.141500
     38 H11        -1.0080   -1.0860    0.5600 h4        1 0XG      0.048100
     39 H12        -2.4610    3.8640   -2.5330 h1        1 0XG      0.045700
     40 H13        -3.8450    4.4630   -1.4770 h1        1 0XG      0.045700
     41 H14        -2.1010    4.7000   -0.9390 h1        1 0XG      0.045700
     42 H15        -3.1610   -1.9390    0.0190 ha        1 0XG      0.166000
     43 H16        -6.5210   -0.0660    1.9940 h4        1 0XG      0.179000
     44 H17         1.6830    2.9130   -1.6480 hn        1 0XG      0.425800
     45 N12         1.6290    1.9220   -1.5060 nh        1 0XG     -0.704300
@<TRIPOS>BOND
     1    1   18 1   
     2    1   28 1   
     3    1   29 1   
     4    1   30 1   
     5    2   18 1   
     6    2   31 1   
     7    2   32 1   
     8    2   33 1   
     9    3   19 2   
    10    4    5 ar  
    11    4   20 ar  
    12    4   34 1   
    13    5    6 ar  
    14    5   35 1   
    15    6    7 ar  
    16    6   45 1   
    17    7    8 ar  
    18    7   36 1   
    19    8   20 ar  
    20    8   37 1   
    21    9   12 ar  
    22    9   21 ar  
    23    9   45 1   
    24   10   11 ar  
    25   10   21 ar  
    26   10   38 1   
    27   11   14 1   
    28   11   22 ar  
    29   12   22 ar  
    30   13   23 1   
    31   13   39 1   
    32   13   40 1   
    33   13   41 1   
    34   14   15 2   
    35   14   25 1   
    36   15   24 1   
    37   15   42 1   
    38   16   24 2   
    39   16   25 1   
    40   16   43 1   
    41   17   26 1   
    42   18   19 1   
    43   19   20 1   
    44   22   23 1   
    45   24   26 1   
    46   26   27 1   
    47   44   45 1   
@<TRIPOS>SUBSTRUCTURE
     1 0XG         1 TEMP              0 ****  ****    0 ROOT
