@<TRIPOS>MOLECULE
0XH
   36    38     1     0     0
SMALL
bcc


@<TRIPOS>ATOM
      1 C1         -0.1020   -0.1040    0.0490 ca        1 0XH     -0.096000
      2 C2          1.1980   -0.5910   -0.0650 ca        1 0XH     -0.129000
      3 C3          2.0590   -0.5320    1.0360 ca        1 0XH      0.051400
      4 C4          1.6230    0.0180    2.2490 ca        1 0XH     -0.144600
      5 C5          0.3090    0.4940    2.3520 ca        1 0XH      0.051400
      6 C6         -0.5530    0.4360    1.2520 ca        1 0XH     -0.129000
      7 CL1        -0.2540    1.1460    3.8130 cl        1 0XH     -0.059900
      8 C8          2.5680    0.1430    3.4080 c         1 0XH      0.692700
      9 O9          3.2770    1.1500    3.5580 o         1 0XH     -0.551100
     10 N10         2.5700   -0.9470    4.2680 n         1 0XH     -0.462100
     11 C11         3.3370   -1.1150    5.4280 ca        1 0XH      0.130600
     12 C12         3.2080   -2.3260    6.1550 ca        1 0XH     -0.334300
     13 C13         3.9800   -2.4900    7.3100 ca        1 0XH      0.447200
     14 N14         4.8460   -1.5880    7.7960 nb        1 0XH     -0.686000
     15 C15         4.9640   -0.4110    7.1090 ca        1 0XH      0.561200
     16 C16         4.2290   -0.1430    5.9150 ca        1 0XH     -0.320300
     17 N17         5.8530    0.5890    7.5520 n         1 0XH     -0.559400
     18 C18         6.3630    0.7380    8.8380 c         1 0XH      0.702100
     19 O19         5.9610    0.0970    9.8200 o         1 0XH     -0.538100
     20 C20         7.4070    1.8040    9.0210 cx        1 0XH     -0.234700
     21 C22         8.8580    1.4060    9.0610 cx        1 0XH     -0.121400
     22 C23         8.3660    2.3090    7.9550 cx        1 0XH      0.117600
     23 F1          8.3180    1.8500    6.6710 f         1 0XH     -0.209300
     24 CL2         3.6370   -1.1370    0.8870 cl        1 0XH     -0.059900
     25 H1         -0.7790   -0.1460   -0.8180 ha        1 0XH      0.149000
     26 H2          1.5480   -1.0180   -1.0180 ha        1 0XH      0.158000
     27 H3         -1.5830    0.8180    1.3370 ha        1 0XH      0.158000
     28 H4          1.9600   -1.7030    4.0430 hn        1 0XH      0.326500
     29 H5          2.5260   -3.1230    5.8350 ha        1 0XH      0.142000
     30 H6          3.9090   -3.4240    7.9000 h4        1 0XH      0.026100
     31 H7          4.3590    0.8160    5.3890 ha        1 0XH      0.180000
     32 H8          6.1740    1.2120    6.8430 hn        1 0XH      0.336500
     33 H21         7.0450    2.5540    9.7570 hc        1 0XH      0.116700
     34 H9          9.5080    1.8310    9.8460 hc        1 0XH      0.094200
     35 H10         9.1250    0.3600    8.8180 hc        1 0XH      0.094200
     36 H24         8.6330    3.3890    7.9760 h1        1 0XH      0.097700
@<TRIPOS>BOND
     1    1    2 ar  
     2    1    6 ar  
     3    1   25 1   
     4    2    3 ar  
     5    2   26 1   
     6    3    4 ar  
     7    3   24 1   
     8    4    5 ar  
     9    4    8 1   
    10    5    6 ar  
    11    5    7 1   
    12    6   27 1   
    13    8    9 2   
    14    8   10 1   
    15   10   11 1   
    16   10   28 1   
    17   11   12 ar  
    18   11   16 ar  
    19   12   13 ar  
    20   12   29 1   
    21   13   14 ar  
    22   13   30 1   
    23   14   15 ar  
    24   15   16 ar  
    25   15   17 1   
    26   16   31 1   
    27   17   18 1   
    28   17   32 1   
    29   18   19 2   
    30   18   20 1   
    31   20   21 1   
    32   20   22 1   
    33   20   33 1   
    34   21   22 1   
    35   21   34 1   
    36   21   35 1   
    37   22   23 1   
    38   22   36 1   
@<TRIPOS>SUBSTRUCTURE
     1 0XH         1 TEMP              0 ****  ****    0 ROOT
