@<TRIPOS>MOLECULE
0XH
   36    31     1     0     0
SMALL
bcc


@<TRIPOS>ATOM
      1 C1         -3.0820    2.1430   -5.6400 c1        1 0XH     -0.112500
      2 C2         -1.7690    2.5940   -5.5870 c1        1 0XH     -0.129000
      3 C3         -1.0220    2.4260   -4.4260 c1        1 0XH     -0.026000
      4 C4         -1.5880    1.8060   -3.3190 c2        1 0XH     -0.123000
      5 C5         -2.9020    1.3540   -3.3720 c1        1 0XH     -0.026000
      6 C6         -3.6490    1.5230   -4.5330 c1        1 0XH     -0.112500
      7 CL1        -3.5940    0.5220   -2.0040 cl        1 0XH      0.019000
      8 C8         -0.7800    1.6590   -2.0300 c1        1 0XH      0.365000
      9 O9          0.3670    2.0640   -1.9810 o         1 0XH     -0.311000
     10 N10        -1.3640    1.0210   -0.8880 n2        1 0XH     -0.315000
     11 C11        -0.5960    0.8580    0.3130 c2        1 0XH      0.133000
     12 C12        -0.1360    1.9600    0.9840 c2        1 0XH     -0.236000
     13 C13         0.7100    1.8050    2.0770 c1        1 0XH     -0.022000
     14 N14         1.0820    0.5530    2.4820 n1        1 0XH     -0.204000
     15 C15         0.6240   -0.5470    1.8140 c1        1 0XH      0.139000
     16 C16        -0.2220   -0.3950    0.7210 c2        1 0XH     -0.251000
     17 N17         1.0880   -1.8510    2.1840 n2        1 0XH     -0.310000
     18 C18         2.2940   -1.9930    2.9410 c1        1 0XH      0.346000
     19 O19         2.9250   -1.0040    3.2700 o         1 0XH     -0.350000
     20 C20         2.9020   -3.5190    3.2670 cu        1 0XH     -0.223000
     21 C22         3.2900   -3.3650    4.5020 cx        1 0XH     -0.214000
     22 C23         2.1320   -3.8720    4.3680 cx        1 0XH      0.021000
     23 F1          1.0490   -2.5700    5.5190 f         1 0XH     -0.132000
     24 CL2         0.6220    3.0100   -4.3540 cl        1 0XH      0.017000
     25 H1         -3.6090    2.2620   -6.4600 ha        1 0XH      0.152500
     26 H2         -1.3680    3.0330   -6.3700 ha        1 0XH      0.157000
     27 H3         -4.5760    1.2040   -4.5700 ha        1 0XH      0.152500
     28 H4         -2.2220    0.7030   -0.9290 hn        1 0XH      0.244000
     29 H5         -0.4030    2.8580    0.6930 ha        1 0XH      0.183000
     30 H6          1.0390    2.5940    2.5570 ha        1 0XH      0.163000
     31 H7         -0.5520   -1.1870    0.2400 ha        1 0XH      0.177000
     32 H8          0.6560   -2.5970    1.8680 hn        1 0XH      0.254000
     33 H21         3.1930   -3.8150    2.3760 ha        1 0XH      0.163000
     34 H9          3.9900   -3.9870    4.8050 hc        1 0XH      0.133500
     35 H10         3.3080   -2.4380    4.8240 hc        1 0XH      0.133500
     36 H24         2.1610   -4.8100    4.6590 h1        1 0XH      0.143000
@<TRIPOS>BOND
     1    1    6 1   
     2    1   25 1   
     3    2    3 1   
     4    2   26 1   
     5    3    4 1   
     6    4    5 1   
     7    4    8 1   
     8    5    7 1   
     9    6   27 1   
    10    8    9 1   
    11   10   11 1   
    12   10   28 1   
    13   11   12 1   
    14   11   16 1   
    15   12   13 1   
    16   12   29 1   
    17   13   30 1   
    18   14   15 1   
    19   15   16 1   
    20   16   31 1   
    21   17   18 1   
    22   17   32 1   
    23   18   19 1   
    24   20   21 1   
    25   20   22 1   
    26   20   33 1   
    27   21   22 1   
    28   21   34 1   
    29   21   35 1   
    30   22   23 1   
    31   22   36 1   
@<TRIPOS>SUBSTRUCTURE
     1 0XH         1 TEMP              0 ****  ****    0 ROOT
