@<TRIPOS>MOLECULE
0XH
   38    40     1     0     0
SMALL
bcc


@<TRIPOS>ATOM
      1 C1         -0.9860   -0.2100    1.0480 ca        1 0XH     -0.028000
      2 C2          0.1630   -0.7110    0.4270 ca        1 0XH     -0.104000
      3 C3          1.3940   -0.6150    1.0740 ca        1 0XH      0.066900
      4 C4          1.4870   -0.0030    2.3420 ca        1 0XH     -0.233600
      5 C5          0.3200    0.4850    2.9630 ca        1 0XH      0.066900
      6 C6         -0.9130    0.3780    2.3090 ca        1 0XH     -0.104000
      7 CL1         0.3920    1.1850    4.4990 cl        1 0XH     -0.039400
      8 C8          2.7920    0.2170    2.9660 c         1 0XH      0.618700
      9 O9          3.3960    1.2300    3.2560 o         1 0XH     -0.384100
     10 N10         3.5480   -1.1080    3.2820 n4        1 0XH     -0.579200
     11 C11         4.0840   -1.1670    4.6390 ca        1 0XH      0.028600
     12 C12         3.6080   -2.1200    5.5480 ca        1 0XH     -0.172300
     13 C13         4.1650   -2.1330    6.8510 ca        1 0XH      0.470200
     14 N14         5.1120   -1.2860    7.2630 nb        1 0XH     -0.600000
     15 C15         5.5630   -0.3590    6.3650 ca        1 0XH      0.506200
     16 C16         5.0890   -0.2540    5.0420 ca        1 0XH     -0.184300
     17 N17         6.5950    0.5770    6.8550 n4        1 0XH     -0.689500
     18 C18         6.0810    1.4970    7.9870 c         1 0XH      0.613100
     19 O19         4.8780    1.6570    8.0270 o         1 0XH     -0.373100
     20 C20         7.1310    2.0980    8.8270 cx        1 0XH     -0.302700
     21 C22         7.3850    1.5320   10.2100 cx        1 0XH     -0.076400
     22 C23         8.4780    1.4620    9.1770 cx        1 0XH      0.155600
     23 F1          8.8110    0.2590    8.6240 f         1 0XH     -0.206300
     24 CL2         2.7890   -1.2140    0.3120 cl        1 0XH     -0.039400
     25 H1         -1.9610   -0.2800    0.5290 ha        1 0XH      0.192000
     26 H2          0.0950   -1.1730   -0.5750 ha        1 0XH      0.197000
     27 H3         -1.8270    0.7690    2.7930 ha        1 0XH      0.197000
     28 H4          4.3260   -1.1960    2.6110 hn        1 0XH      0.476800
     29 H5          2.8240   -2.8560    5.2950 ha        1 0XH      0.200000
     30 H6          3.8220   -2.8750    7.6080 h4        1 0XH      0.099100
     31 H7          5.4630    0.5190    4.3470 ha        1 0XH      0.194000
     32 H8          7.4030    0.0330    7.2190 hn        1 0XH      0.484300
     33 H21         7.1080    3.2100    8.7120 hc        1 0XH      0.171700
     34 H9          6.8660    0.6050   10.5190 hc        1 0XH      0.131200
     35 H10         7.4880    2.2480   11.0510 hc        1 0XH      0.131200
     36 H24         9.3660    2.1330    9.2550 h1        1 0XH      0.154700
     37 H102        2.9010   -1.8950    3.1300 hn        1 0XH      0.476800
     38 H172        6.9180    1.1620    6.0770 hn        1 0XH      0.484300
@<TRIPOS>BOND
     1    1    2 ar  
     2    1    6 ar  
     3    1   25 1   
     4    2    3 ar  
     5    2   26 1   
     6    3    4 ar  
     7    3   24 1   
     8    4    5 ar  
     9    4    8 1   
    10    5    6 ar  
    11    5    7 1   
    12    6   27 1   
    13    8    9 2   
    14    8   10 1   
    15   10   11 1   
    16   10   28 1   
    17   10   37 1   
    18   11   12 ar  
    19   11   16 ar  
    20   12   13 ar  
    21   12   29 1   
    22   13   14 ar  
    23   13   30 1   
    24   14   15 ar  
    25   15   16 ar  
    26   15   17 1   
    27   16   31 1   
    28   17   18 1   
    29   17   32 1   
    30   17   38 1   
    31   18   19 2   
    32   18   20 1   
    33   20   21 1   
    34   20   22 1   
    35   20   33 1   
    36   21   22 1   
    37   21   34 1   
    38   21   35 1   
    39   22   23 1   
    40   22   36 1   
@<TRIPOS>SUBSTRUCTURE
     1 0XH         1 TEMP              0 ****  ****    0 ROOT
