@<TRIPOS>MOLECULE
0XH
   36    38     1     0     0
SMALL
bcc


@<TRIPOS>ATOM
      1 C1         -0.0900   -0.0980    0.0400 ca        1 0XH     -0.096000
      2 C2          1.2110   -0.5830   -0.0730 ca        1 0XH     -0.129000
      3 C3          2.0700   -0.5250    1.0300 ca        1 0XH      0.051400
      4 C4          1.6300    0.0220    2.2440 ca        1 0XH     -0.144600
      5 C5          0.3150    0.4960    2.3450 ca        1 0XH      0.051400
      6 C6         -0.5450    0.4390    1.2430 ca        1 0XH     -0.129000
      7 Cl1        -0.2530    1.1430    3.8060 cl        1 0XH     -0.059900
      8 C8          2.5720    0.1450    3.4050 c         1 0XH      0.692700
      9 O9          3.2770    1.1540    3.5610 o         1 0XH     -0.551100
     10 N10         2.5760   -0.9490    4.2610 ns        1 0XH     -0.462100
     11 C11         3.3410   -1.1190    5.4220 ca        1 0XH      0.130600
     12 C12         3.2150   -2.3330    6.1440 ca        1 0XH     -0.334300
     13 C13         3.9850   -2.4990    7.2990 ca        1 0XH      0.447200
     14 N14         4.8460   -1.5950    7.7910 nb        1 0XH     -0.686000
     15 C15         4.9620   -0.4150    7.1090 ca        1 0XH      0.561200
     16 C16         4.2280   -0.1450    5.9140 ca        1 0XH     -0.320300
     17 N17         5.8460    0.5860    7.5580 ns        1 0XH     -0.559400
     18 C18         6.3520    0.7320    8.8460 c         1 0XH      0.702100
     19 O19         5.9520    0.0850    9.8240 o         1 0XH     -0.538100
     20 C20         7.3930    1.8010    9.0350 cx        1 0XH     -0.234700
     21 C22         8.8450    1.4080    9.0770 cx        1 0XH     -0.121400
     22 C23         8.3510    2.3130    7.9730 cx        1 0XH      0.117600
     23 F1          8.3080    1.8590    6.6880 f         1 0XH     -0.209300
     24 Cl2         3.6490   -1.1270    0.8830 cl        1 0XH     -0.059900
     25 H1         -0.7660   -0.1390   -0.8290 ha        1 0XH      0.149000
     26 H2          1.5640   -1.0070   -1.0260 ha        1 0XH      0.158000
     27 H3         -1.5750    0.8190    1.3260 ha        1 0XH      0.158000
     28 H4          1.9690   -1.7060    4.0320 hn        1 0XH      0.326500
     29 H5          2.5370   -3.1320    5.8190 ha        1 0XH      0.142000
     30 H6          3.9160   -3.4350    7.8850 h4        1 0XH      0.026100
     31 H7          4.3560    0.8160    5.3930 ha        1 0XH      0.180000
     32 H8          6.1660    1.2130    6.8520 hn        1 0XH      0.336500
     33 H21         7.0260    2.5460    9.7730 hc        1 0XH      0.116700
     34 H9          9.1160    0.3650    8.8320 hc        1 0XH      0.094200
     35 H10         9.4910    1.8330    9.8660 hc        1 0XH      0.094200
     36 H24         8.6140    3.3940    7.9990 h1        1 0XH      0.097700
@<TRIPOS>BOND
     1    1    2 ar  
     2    1    6 ar  
     3    1   25 1   
     4    2    3 ar  
     5    2   26 1   
     6    3    4 ar  
     7    3   24 1   
     8    4    5 ar  
     9    4    8 1   
    10    5    6 ar  
    11    5    7 1   
    12    6   27 1   
    13    8    9 2   
    14    8   10 1   
    15   10   11 1   
    16   10   28 1   
    17   11   12 ar  
    18   11   16 ar  
    19   12   13 ar  
    20   12   29 1   
    21   13   14 ar  
    22   13   30 1   
    23   14   15 ar  
    24   15   16 ar  
    25   15   17 1   
    26   16   31 1   
    27   17   18 1   
    28   17   32 1   
    29   18   19 2   
    30   18   20 1   
    31   20   21 1   
    32   20   22 1   
    33   20   33 1   
    34   21   22 1   
    35   21   34 1   
    36   21   35 1   
    37   22   23 1   
    38   22   36 1   
@<TRIPOS>SUBSTRUCTURE
     1 0XH         1 TEMP              0 ****  ****    0 ROOT
