@<TRIPOS>MOLECULE
0XH
   36    38     1     0     0
SMALL
bcc


@<TRIPOS>ATOM
      1 C1         -6.0510    0.9760    0.0410 ca        1 0XH     -0.096000
      2 C2         -5.2220    1.7380   -0.7790 ca        1 0XH     -0.129000
      3 C3         -3.8390    1.5270   -0.7540 ca        1 0XH      0.051400
      4 C4         -3.2840    0.5580    0.0940 ca        1 0XH     -0.144600
      5 C5         -4.1320   -0.2080    0.9050 ca        1 0XH      0.051400
      6 C6         -5.5150    0.0020    0.8820 ca        1 0XH     -0.129000
      7 CL1        -3.4920   -1.4020    1.9260 cl        1 0XH     -0.059900
      8 C8         -1.7960    0.3800    0.1700 c         1 0XH      0.692700
      9 O9         -1.1080    1.0300    0.9710 o         1 0XH     -0.551100
     10 N10        -1.2840   -0.5570   -0.7190 n         1 0XH     -0.462100
     11 C11         0.0550   -0.9380   -0.8750 ca        1 0XH      0.130600
     12 C12         0.3730   -1.8990   -1.8680 ca        1 0XH     -0.334300
     13 C13         1.7120   -2.2730   -2.0230 ca        1 0XH      0.447200
     14 N14         2.7370   -1.7920   -1.3040 nb        1 0XH     -0.686000
     15 C15         2.4360   -0.8760   -0.3330 ca        1 0XH      0.561200
     16 C16         1.1040   -0.4200   -0.0950 ca        1 0XH     -0.320300
     17 N17         3.4560   -0.3210    0.4660 n         1 0XH     -0.559400
     18 C18         4.7170   -0.8600    0.6990 c         1 0XH      0.702100
     19 O19         5.0530   -2.0050    0.3620 o         1 0XH     -0.538100
     20 C20         5.6760   -0.0020    1.4760 cx        1 0XH     -0.234700
     21 C22         6.7260    0.7780    0.7320 cx        1 0XH     -0.121400
     22 C23         5.6760    1.5180    1.5260 cx        1 0XH      0.117600
     23 F1          4.7290    2.2580    0.8810 f         1 0XH     -0.209300
     24 CL2        -2.8410    2.4540   -1.7650 cl        1 0XH     -0.059900
     25 H1         -7.1390    1.1440    0.0250 ha        1 0XH      0.149000
     26 H2         -5.6510    2.5050   -1.4420 ha        1 0XH      0.158000
     27 H3         -6.1760   -0.5980    1.5270 ha        1 0XH      0.158000
     28 H4         -1.9340   -1.0150   -1.3200 hn        1 0XH      0.326500
     29 H5         -0.3980   -2.3480   -2.5070 ha        1 0XH      0.142000
     30 H6          1.9980   -3.0170   -2.7910 h4        1 0XH      0.026100
     31 H7          0.9070    0.3240    0.6920 ha        1 0XH      0.180000
     32 H8          3.2470    0.5740    0.8540 hn        1 0XH      0.336500
     33 H21         5.9700   -0.5280    2.4090 hc        1 0XH      0.116700
     34 H9          7.7650    0.7650    1.1060 hc        1 0XH      0.094200
     35 H10         6.6790    0.8050   -0.3720 hc        1 0XH      0.094200
     36 H24         5.9610    1.9980    2.4890 h1        1 0XH      0.097700
@<TRIPOS>BOND
     1    1    2 ar  
     2    1    6 ar  
     3    1   25 1   
     4    2    3 ar  
     5    2   26 1   
     6    3    4 ar  
     7    3   24 1   
     8    4    5 ar  
     9    4    8 1   
    10    5    6 ar  
    11    5    7 1   
    12    6   27 1   
    13    8    9 2   
    14    8   10 1   
    15   10   11 1   
    16   10   28 1   
    17   11   12 ar  
    18   11   16 ar  
    19   12   13 ar  
    20   12   29 1   
    21   13   14 ar  
    22   13   30 1   
    23   14   15 ar  
    24   15   16 ar  
    25   15   17 1   
    26   16   31 1   
    27   17   18 1   
    28   17   32 1   
    29   18   19 2   
    30   18   20 1   
    31   20   21 1   
    32   20   22 1   
    33   20   33 1   
    34   21   22 1   
    35   21   34 1   
    36   21   35 1   
    37   22   23 1   
    38   22   36 1   
@<TRIPOS>SUBSTRUCTURE
     1 0XH         1 TEMP              0 ****  ****    0 ROOT
