@<TRIPOS>MOLECULE
0XJ
   57    55     1     0     0
SMALL
bcc


@<TRIPOS>ATOM
      1 C8         -1.0400    0.9920    1.2240 c3        1 0XJ     -0.079000
      2 C5         -1.7090   -1.7690   -0.0080 c1        1 0XJ     -0.059000
      3 C6         -1.2930   -0.5310   -1.0010 c3        1 0XJ      0.059000
      4 C2          0.8570   -3.1730    0.8550 c1        1 0XJ     -0.224000
      5 C4         -1.5680   -3.1120   -0.5570 c1        1 0XJ     -0.218000
      6 O2          2.6000    1.3860    2.7350 o         1 0XJ     -0.281000
      7 C17         1.6660    1.3560    1.9480 c1        1 0XJ      0.240000
      8 C13         0.9150    1.2090    2.1260 c2        1 0XJ     -0.104000
      9 C18         0.3880    2.4950    2.8160 c3        1 0XJ     -0.201000
     10 C12         0.7600    0.3640    2.9040 c3        1 0XJ     -0.135000
     11 C11        -0.6160    0.1290    3.2160 c3        1 0XJ     -0.152000
     12 C16         1.6190    1.8920    0.9540 c3        1 0XJ     -0.215000
     13 C15         0.5010    1.6570    0.6440 c3        1 0XJ     -0.152000
     14 C14         0.2880    1.1210    1.0940 c3        1 0XJ     -0.109000
     15 C9         -1.4220   -0.1320    2.0800 c3        1 0XJ     -0.075000
     16 C7         -1.6510    0.8520   -0.3090 c3        1 0XJ     -0.155000
     17 C10        -1.1100   -1.5870    1.4580 c2        1 0XJ     -0.002000
     18 C19        -1.8710   -2.5750    2.3310 c3        1 0XJ     -0.205000
     19 C1          0.3260   -1.9210    1.6430 c2        1 0XJ     -0.092000
     20 C3         -0.1900   -3.8770   -0.2410 c1        1 0XJ      0.283000
     21 O1          0.2230   -4.7670   -1.0180 o         1 0XJ     -0.287000
     22 O           0.0040   -0.5950   -1.3840 os        1 0XJ     -0.268000
     23 C20         0.2180   -1.3280   -2.6190 c3        1 0XJ      0.091000
     24 C21         0.7780   -0.3940   -3.6700 c1        1 0XJ     -0.184000
     25 C22         1.2290    0.3650   -4.5250 c1        1 0XJ     -0.119000
     26 C23         1.7930    1.3180   -5.5990 c2        1 0XJ     -0.058000
     27 C24         0.6630    1.8550   -6.4320 c3        1 0XJ     -0.208000
     28 H1         -1.3990    1.8320    1.6310 hc        1 0XJ      0.094000
     29 H2         -1.7400   -0.6120   -1.8500 h1        1 0XJ      0.092000
     30 H3          1.6390   -3.7010    1.2150 ha        1 0XJ      0.152000
     31 H4         -2.1550   -3.4120   -1.3350 ha        1 0XJ      0.163000
     32 H5          1.0370    3.2470    2.6680 hc        1 0XJ      0.081667
     33 H6          0.2870    2.3310    3.7910 hc        1 0XJ      0.081667
     34 H7         -0.4690    2.7310    2.4390 hc        1 0XJ      0.081667
     35 H8          1.2310    0.6070    3.7280 hc        1 0XJ      0.095000
     36 H9          1.1580   -0.4830    2.5450 hc        1 0XJ      0.095000
     37 H10        -0.6730   -0.6370    3.8230 hc        1 0XJ      0.081500
     38 H11        -0.9700    0.9180    3.6740 hc        1 0XJ      0.081500
     39 H12         1.8960    2.8370    0.8130 hc        1 0XJ      0.115000
     40 H13         2.2280    1.4450    0.3960 hc        1 0XJ      0.115000
     41 H14         0.4610    1.3540   -0.2940 hc        1 0XJ      0.095500
     42 H15        -0.0540    2.4410    0.7700 hc        1 0XJ      0.095500
     43 H16         0.5860    0.2940    0.6750 hc        1 0XJ      0.110000
     44 H17        -2.3870   -0.0640    2.3230 hc        1 0XJ      0.084000
     45 H18        -1.2930    1.5790   -0.8550 hc        1 0XJ      0.099000
     46 H19        -2.6180    0.9400   -0.2690 hc        1 0XJ      0.099000
     47 H20        -2.8330   -2.4760    2.1720 hc        1 0XJ      0.082667
     48 H21        -1.6730   -2.3940    3.2780 hc        1 0XJ      0.082667
     49 H22        -1.6050   -3.4540    2.1160 hc        1 0XJ      0.082667
     50 H23         0.8130   -1.6000    2.4580 ha        1 0XJ      0.132000
     51 H24         0.8590   -2.0690   -2.4580 h1        1 0XJ      0.087000
     52 H25        -0.6320   -1.6950   -2.9310 h1        1 0XJ      0.087000
     53 H26         2.2680    2.0710   -5.1570 ha        1 0XJ      0.102500
     54 H27         2.4210    0.8280   -6.1760 ha        1 0XJ      0.102500
     55 H28         0.6540    2.8330   -6.3780 hc        1 0XJ      0.079000
     56 H29        -0.1800    1.5050   -6.0980 hc        1 0XJ      0.079000
     57 H30         0.7860    1.5770   -7.3780 hc        1 0XJ      0.079000
@<TRIPOS>BOND
     1    1   14 1   
     2    1   15 1   
     3    1   16 1   
     4    1   28 1   
     5    2    3 1   
     6    2    5 1   
     7    3   16 1   
     8    3   22 1   
     9    3   29 1   
    10    4   19 1   
    11    4   30 1   
    12    5   31 1   
    13    6    7 1   
    14    7   12 1   
    15    8    9 1   
    16    8   10 1   
    17    8   14 1   
    18    9   32 1   
    19    9   33 1   
    20    9   34 1   
    21   10   11 1   
    22   10   35 1   
    23   10   36 1   
    24   11   15 1   
    25   11   37 1   
    26   11   38 1   
    27   12   13 1   
    28   12   39 1   
    29   12   40 1   
    30   13   14 1   
    31   13   41 1   
    32   13   42 1   
    33   14   43 1   
    34   15   17 1   
    35   15   44 1   
    36   16   45 1   
    37   16   46 1   
    38   17   18 1   
    39   17   19 1   
    40   18   47 1   
    41   18   48 1   
    42   18   49 1   
    43   19   50 1   
    44   20   21 1   
    45   22   23 1   
    46   23   24 1   
    47   23   51 1   
    48   23   52 1   
    49   24   25 1   
    50   26   27 1   
    51   26   53 1   
    52   26   54 1   
    53   27   55 1   
    54   27   56 1   
    55   27   57 1   
@<TRIPOS>SUBSTRUCTURE
     1 0XJ         1 TEMP              0 ****  ****    0 ROOT
