@<TRIPOS>MOLECULE
0XJ
   57    59     1     0     0
SMALL
bcc


@<TRIPOS>ATOM
      1 C8         -0.0420   -1.1200    0.1620 cx        1 0XJ     -0.129400
      2 C5         -3.2470    0.7050   -0.0170 ce        1 0XJ     -0.016200
      3 C6         -3.8230   -0.3540   -0.8640 ce        1 0XJ      0.105100
      4 C2         -1.9930    2.6200    1.2910 ce        1 0XJ     -0.270200
      5 C4         -3.7210    1.9730   -0.1300 cf        1 0XJ     -0.221200
      6 C17         4.1200    1.0830    0.8570 c         1 0XJ      0.575100
      7 C13         2.9170    0.3990    1.5040 c3        1 0XJ     -0.147000
      8 C18         2.8070    0.8760    2.9430 c3        1 0XJ     -0.082100
      9 C12         1.6640    0.7660    0.7110 c3        1 0XJ     -0.040400
     10 C11         0.4610   -0.0410    1.0810 cx        1 0XJ     -0.105700
     11 C16         5.1770    0.0670    0.5160 c3        1 0XJ     -0.187400
     12 C15         4.6730   -1.2800    1.0080 c3        1 0XJ     -0.078400
     13 C14         3.2220   -1.1040    1.4410 c3        1 0XJ     -0.076400
     14 C9         -0.8120    0.1680    0.2880 cx        1 0XJ     -0.118700
     15 C7         -3.1140   -1.2830   -1.5190 c2        1 0XJ     -0.295000
     16 C10        -2.1390    0.2630    0.9920 c3        1 0XJ      0.072400
     17 C19        -2.5420   -1.0200    1.6930 c3        1 0XJ     -0.093100
     18 C1         -2.2330    1.4390    1.9290 c2        1 0XJ     -0.155200
     19 C3         -3.2390    3.1440    0.6920 c         1 0XJ      0.584500
     20 O1         -3.7770    4.2420    0.7350 o         1 0XJ     -0.491100
     21 O          -5.2050   -0.2190   -0.9150 os        1 0XJ     -0.329900
     22 C20        -5.9170   -1.0910   -1.7950 c3        1 0XJ      0.215500
     23 C21        -6.0000   -2.4460   -1.3230 c1        1 0XJ     -0.188100
     24 C22        -6.1050   -3.5760   -0.9410 c1        1 0XJ     -0.093100
     25 C23        -6.2400   -4.9250   -0.4770 c3        1 0XJ     -0.007300
     26 C24        -5.4830   -5.9150   -1.3340 c3        1 0XJ     -0.091100
     27 H1          3.0490   -1.5820    2.4380 hc        1 0XJ      0.051700
     28 H2         -0.4460   -2.0490    0.6020 hc        1 0XJ      0.073700
     29 H3         -1.0770    2.8160    0.7140 ha        1 0XJ      0.154000
     30 H4         -4.5130    2.2160   -0.8580 ha        1 0XJ      0.165000
     31 H5          0.4940   -1.3140   -0.7850 hc        1 0XJ      0.073700
     32 H6          3.7300    0.6080    3.5110 hc        1 0XJ      0.044700
     33 H7          1.9320    0.4010    3.4460 hc        1 0XJ      0.044700
     34 H8          2.6790    1.9860    2.9670 hc        1 0XJ      0.044700
     35 H9          1.8810    0.6420   -0.3850 hc        1 0XJ      0.055200
     36 H10         1.4440    1.8550    0.8850 hc        1 0XJ      0.055200
     37 H11         0.3610   -0.2080    2.1720 hc        1 0XJ      0.089700
     38 H12         2.5350   -1.6020    0.7090 hc        1 0XJ      0.051700
     39 H13         5.3420    0.0630   -0.5920 hc        1 0XJ      0.076200
     40 H14         6.1460    0.3480    0.9990 hc        1 0XJ      0.076200
     41 H15         4.7520   -2.0520    0.2020 hc        1 0XJ      0.047200
     42 H16         5.2940   -1.6330    1.8690 hc        1 0XJ      0.047200
     43 H17        -0.7520    0.8660   -0.5750 hc        1 0XJ      0.086700
     44 H18        -2.0200   -1.3230   -1.4330 ha        1 0XJ      0.135500
     45 H19        -3.5730   -2.0500   -2.1520 ha        1 0XJ      0.135500
     46 H20        -2.6430   -1.8550    0.9570 hc        1 0XJ      0.048700
     47 H21        -3.5220   -0.8880    2.2120 hc        1 0XJ      0.048700
     48 H22        -1.7690   -1.2930    2.4520 hc        1 0XJ      0.048700
     49 H23        -2.9570    1.3470    2.7520 ha        1 0XJ      0.137000
     50 H24        -6.9450   -0.6220   -1.8170 h1        1 0XJ      0.074200
     51 H25        -5.4620   -1.0590   -2.8240 h1        1 0XJ      0.074200
     52 H26        -7.3320   -5.2000   -0.4600 hc        1 0XJ      0.063200
     53 H27        -5.8670   -4.9840    0.5850 hc        1 0XJ      0.063200
     54 H28        -5.6220   -6.9460   -0.9280 hc        1 0XJ      0.040700
     55 H29        -5.8560   -5.8930   -2.3860 hc        1 0XJ      0.040700
     56 H30        -4.3920   -5.6790   -1.3410 hc        1 0XJ      0.040700
     57 O2          4.2110    2.2900    0.6450 o         1 0XJ     -0.523100
@<TRIPOS>BOND
     1    1   10 1   
     2    1   14 1   
     3    1   28 1   
     4    1   31 1   
     5    2    3 1   
     6    2    5 2   
     7    2   16 1   
     8    3   15 2   
     9    3   21 1   
    10    4   18 2   
    11    4   19 1   
    12    4   29 1   
    13    5   19 1   
    14    5   30 1   
    15    6    7 1   
    16    6   11 1   
    17    6   57 2   
    18    7    8 1   
    19    7    9 1   
    20    7   13 1   
    21    8   32 1   
    22    8   33 1   
    23    8   34 1   
    24    9   10 1   
    25    9   35 1   
    26    9   36 1   
    27   10   14 1   
    28   10   37 1   
    29   11   12 1   
    30   11   39 1   
    31   11   40 1   
    32   12   13 1   
    33   12   41 1   
    34   12   42 1   
    35   13   27 1   
    36   13   38 1   
    37   14   16 1   
    38   14   43 1   
    39   15   44 1   
    40   15   45 1   
    41   16   17 1   
    42   16   18 1   
    43   17   46 1   
    44   17   47 1   
    45   17   48 1   
    46   18   49 1   
    47   19   20 2   
    48   21   22 1   
    49   22   23 1   
    50   22   50 1   
    51   22   51 1   
    52   23   24 3   
    53   24   25 1   
    54   25   26 1   
    55   25   52 1   
    56   25   53 1   
    57   26   54 1   
    58   26   55 1   
    59   26   56 1   
@<TRIPOS>SUBSTRUCTURE
     1 0XJ         1 TEMP              0 ****  ****    0 ROOT
