@<TRIPOS>MOLECULE
0XJ
   57    60     1     0     0
SMALL
bcc


@<TRIPOS>ATOM
      1 C8         -1.0630   -0.2410    0.4900 c3        1 0XJ     -0.047700
      2 C5          1.1200    1.6390    0.5870 c2        1 0XJ     -0.074400
      3 C6          1.1980    0.3780    1.4100 c3        1 0XJ      0.173300
      4 C2          0.7680    4.0760   -0.8290 ce        1 0XJ     -0.246200
      5 C4          1.7760    2.7360    1.0030 ce        1 0XJ     -0.240200
      6 C17        -4.5730   -1.5330    0.1600 c         1 0XJ      0.577100
      7 C13        -3.3230   -0.8800   -0.4220 c3        1 0XJ     -0.153000
      8 C18        -2.7380   -1.8900   -1.4010 c3        1 0XJ     -0.083100
      9 C12        -3.4890    0.4740   -1.0830 c3        1 0XJ     -0.056400
     10 C11        -2.1330    1.0840   -1.4030 c3        1 0XJ     -0.076400
     11 C16        -4.1610   -2.2960    1.4040 c3        1 0XJ     -0.188400
     12 C15        -2.6980   -1.9320    1.6750 c3        1 0XJ     -0.073400
     13 C14        -2.4700   -0.6690    0.8500 c3        1 0XJ     -0.063700
     14 C9         -1.1590    1.1150   -0.2290 c3        1 0XJ     -0.041700
     15 C7         -0.2030   -0.1330    1.7350 c3        1 0XJ     -0.070400
     16 C10         0.2460    1.6200   -0.6430 c3        1 0XJ      0.011400
     17 C19         0.9010    0.7290   -1.7010 c3        1 0XJ     -0.087100
     18 C1          0.1180    2.9870   -1.2530 c2        1 0XJ     -0.098200
     19 C3          1.6840    4.0360    0.3200 c         1 0XJ      0.560500
     20 O1          2.3300    5.0240    0.6960 o         1 0XJ     -0.529100
     21 O           1.8700   -0.6890    0.7360 os        1 0XJ     -0.409600
     22 C20         3.2840   -0.4660    0.6260 c3        1 0XJ      0.213500
     23 C21         3.8700   -1.5960   -0.0380 c1        1 0XJ     -0.152100
     24 C22         4.3780   -2.5280   -0.5900 c1        1 0XJ     -0.100100
     25 C23         4.9920   -3.6340   -1.2620 c3        1 0XJ     -0.004300
     26 C24         5.7620   -4.5330   -0.3200 c3        1 0XJ     -0.090100
     27 H1         -0.5940   -1.0020   -0.1940 hc        1 0XJ      0.076700
     28 H2          1.7440    0.5930    2.3760 h1        1 0XJ      0.047700
     29 H3          0.6560    5.0540   -1.3230 ha        1 0XJ      0.152000
     30 H4          2.4160    2.7230    1.9020 ha        1 0XJ      0.148000
     31 H5         -3.4690   -2.0740   -2.2260 hc        1 0XJ      0.045033
     32 H6         -1.7870   -1.5150   -1.8480 hc        1 0XJ      0.045033
     33 H7         -2.5260   -2.8570   -0.8840 hc        1 0XJ      0.045033
     34 H8         -4.0820    0.3670   -2.0280 hc        1 0XJ      0.053200
     35 H9         -4.0630    1.1550   -0.4010 hc        1 0XJ      0.053200
     36 H10        -1.6730    0.5200   -2.2570 hc        1 0XJ      0.044700
     37 H11        -2.3120    2.1350   -1.7550 hc        1 0XJ      0.044700
     38 H12        -4.8170   -2.0030    2.2610 hc        1 0XJ      0.076200
     39 H13        -4.2860   -3.3940    1.2330 hc        1 0XJ      0.076200
     40 H14        -2.5180   -1.7450    2.7610 hc        1 0XJ      0.051700
     41 H15        -2.0130   -2.7530    1.3490 hc        1 0XJ      0.051700
     42 H16        -2.9360    0.1820    1.4310 hc        1 0XJ      0.051700
     43 H17        -1.5590    1.8620    0.5170 hc        1 0XJ      0.053700
     44 H18        -0.6710    0.5720    2.4700 hc        1 0XJ      0.059200
     45 H19        -0.1210   -1.1430    2.2160 hc        1 0XJ      0.059200
     46 H20         0.3240    0.7660   -2.6550 hc        1 0XJ      0.051033
     47 H21         1.9400    1.0870   -1.9020 hc        1 0XJ      0.051033
     48 H22         0.9580   -0.3280   -1.3460 hc        1 0XJ      0.051033
     49 H23        -0.5400    3.0390   -2.1370 ha        1 0XJ      0.135000
     50 H24         3.4600    0.4780    0.0360 h1        1 0XJ      0.050200
     51 H25         3.7220   -0.3470    1.6580 h1        1 0XJ      0.050200
     52 H26         4.1930   -4.2340   -1.7840 hc        1 0XJ      0.060700
     53 H27         5.6860   -3.2420   -2.0590 hc        1 0XJ      0.060700
     54 H28         6.2160   -5.3770   -0.8930 hc        1 0XJ      0.040700
     55 H29         6.5800   -3.9660    0.1870 hc        1 0XJ      0.040700
     56 H30         5.0880   -4.9550    0.4630 hc        1 0XJ      0.040700
     57 O2         -5.7110   -1.4700   -0.2940 o         1 0XJ     -0.518100
@<TRIPOS>BOND
     1    1   13 1   
     2    1   14 1   
     3    1   15 1   
     4    1   27 1   
     5    2    3 1   
     6    2    5 2   
     7    2   16 1   
     8    3   15 1   
     9    3   21 1   
    10    3   28 1   
    11    4   18 2   
    12    4   19 1   
    13    4   29 1   
    14    5   19 1   
    15    5   30 1   
    16    6    7 1   
    17    6   11 1   
    18    6   57 2   
    19    7    8 1   
    20    7    9 1   
    21    7   13 1   
    22    8   31 1   
    23    8   32 1   
    24    8   33 1   
    25    9   10 1   
    26    9   34 1   
    27    9   35 1   
    28   10   14 1   
    29   10   36 1   
    30   10   37 1   
    31   11   12 1   
    32   11   38 1   
    33   11   39 1   
    34   12   13 1   
    35   12   40 1   
    36   12   41 1   
    37   13   42 1   
    38   14   16 1   
    39   14   43 1   
    40   15   44 1   
    41   15   45 1   
    42   16   17 1   
    43   16   18 1   
    44   17   46 1   
    45   17   47 1   
    46   17   48 1   
    47   18   49 1   
    48   19   20 2   
    49   21   22 1   
    50   22   23 1   
    51   22   50 1   
    52   22   51 1   
    53   23   24 3   
    54   24   25 1   
    55   25   26 1   
    56   25   52 1   
    57   25   53 1   
    58   26   54 1   
    59   26   55 1   
    60   26   56 1   
@<TRIPOS>SUBSTRUCTURE
     1 0XJ         1 TEMP              0 ****  ****    0 ROOT
