@<TRIPOS>MOLECULE
0XL
   21    20     1     0     0
SMALL
bcc


@<TRIPOS>ATOM
      1 CAD        -0.2750    0.3840   -0.2090 c3        1 0XL      0.033200
      2 CAE         1.1900    0.2430    0.3720 c         1 0XL      0.889600
      3 CAZ        -1.2460    0.3040    0.9780 c3        1 0XL     -0.052900
      4 NAC        -0.4420    1.6540   -0.9390 n3        1 0XL     -0.887800
      5 OAG         1.3780   -0.5200    1.3600 o         1 0XL     -0.841800
      6 CBA        -0.4870   -0.7930   -1.1840 c3        1 0XL     -0.052900
      7 CBD        -0.4940   -2.1390   -0.5060 c3        1 0XL     -0.089100
      8 CBE        -2.7030    0.3470    0.5990 c3        1 0XL     -0.089100
      9 H8         -1.0160   -0.6440    1.5330 hc        1 0XL      0.033200
     10 H9         -1.0210    1.1490    1.6830 hc        1 0XL      0.033200
     11 H10        -0.3080    2.3980   -0.2780 hn        1 0XL      0.331800
     12 H14        -1.4500   -0.6550   -1.7440 hc        1 0XL      0.033200
     13 H15         0.3460   -0.7690   -1.9370 hc        1 0XL      0.033200
     14 H20         0.3480   -2.2040    0.2320 hc        1 0XL      0.022533
     15 H21        -1.4540   -2.3060    0.0400 hc        1 0XL      0.022533
     16 H22        -0.3800   -2.9520   -1.2640 hc        1 0XL      0.022533
     17 H23        -2.9530    1.2940    0.0640 hc        1 0XL      0.022533
     18 H24        -2.9620   -0.5090   -0.0710 hc        1 0XL      0.022533
     19 H25        -3.3420    0.2810    1.5130 hc        1 0XL      0.022533
     20 H2          0.3210    1.7160   -1.5950 hn        1 0XL      0.331800
     21 OXT         2.1050    0.9090   -0.1920 o         1 0XL     -0.841800
@<TRIPOS>BOND
     1    1    2 1   
     2    1    3 1   
     3    1    4 1   
     4    1    6 1   
     5    2    5 1   
     6    2   21 1   
     7    3    8 1   
     8    3    9 1   
     9    3   10 1   
    10    4   11 1   
    11    4   20 1   
    12    6    7 1   
    13    6   12 1   
    14    6   13 1   
    15    7   14 1   
    16    7   15 1   
    17    7   16 1   
    18    8   17 1   
    19    8   18 1   
    20    8   19 1   
@<TRIPOS>SUBSTRUCTURE
     1 0XL         1 TEMP              0 ****  ****    0 ROOT
