@<TRIPOS>MOLECULE
0XL
   21    20     1     0     0
SMALL
bcc


@<TRIPOS>ATOM
      1 CAD         0.0120   -0.2380   -0.2910 c3        1 0XL      0.034200
      2 CAE         1.5250   -0.2380   -0.2910 c         1 0XL      0.890600
      3 CAZ        -0.4920   -0.2380    1.1350 c3        1 0XL     -0.051400
      4 NAC        -0.4620   -1.4000   -0.9610 n3        1 0XL     -0.886800
      5 OAG         2.1540    0.0080    0.7710 o         1 0XL     -0.842800
      6 CBA        -0.4920    0.9970   -1.0040 c3        1 0XL     -0.051400
      7 CBD         0.3560    2.1870   -0.6130 c3        1 0XL     -0.090600
      8 CBE        -0.5050   -1.6550    1.6660 c3        1 0XL     -0.090600
      9 H8         -1.3970    0.1270    1.1610 hc        1 0XL      0.027950
     10 H9          0.0950    0.3110    1.6880 hc        1 0XL      0.027950
     11 H10         0.1090   -1.6140   -1.6390 hn        1 0XL      0.331800
     12 H14        -0.4370    0.8610   -1.9690 hc        1 0XL      0.027950
     13 H15        -1.4210    1.1620   -0.7520 hc        1 0XL      0.027950
     14 H20         1.2360    2.1100   -1.0280 hc        1 0XL      0.025867
     15 H21        -0.0760    3.0080   -0.9160 hc        1 0XL      0.025867
     16 H22         0.4550    2.2110    0.3580 hc        1 0XL      0.025867
     17 H23        -0.5590   -1.6370    2.6400 hc        1 0XL      0.025867
     18 H24        -1.2780   -2.1300    1.3060 hc        1 0XL      0.025867
     19 H25         0.3130   -2.1120    1.3940 hc        1 0XL      0.025867
     20 H2         -1.2920   -1.2360   -1.3030 hn        1 0XL      0.331800
     21 OXT         2.1540   -0.4840   -1.3530 o         1 0XL     -0.842800
@<TRIPOS>BOND
     1    1    2 1   
     2    1    3 1   
     3    1    4 1   
     4    1    6 1   
     5    2    5 1   
     6    2   21 1   
     7    3    8 1   
     8    3    9 1   
     9    3   10 1   
    10    4   11 1   
    11    4   20 1   
    12    6    7 1   
    13    6   12 1   
    14    6   13 1   
    15    7   14 1   
    16    7   15 1   
    17    7   16 1   
    18    8   17 1   
    19    8   18 1   
    20    8   19 1   
@<TRIPOS>SUBSTRUCTURE
     1 0XL         1 TEMP              0 ****  ****    0 ROOT
