@<TRIPOS>MOLECULE
0XM
   28    29     1     0     0
SMALL
bcc


@<TRIPOS>ATOM
      1 NAV         0.4050    0.4430   -0.2130 n4        1 0XM     -0.851600
      2 CBF         1.8330   -0.0470    0.0030 c3        1 0XM      0.267100
      3 CBG         2.1280   -0.0430    1.4720 ca        1 0XM     -0.178800
      4 CBH         2.0240   -1.3520   -0.7080 ca        1 0XM     -0.178800
      5 CBI         3.0950   -1.4730   -1.6030 ca        1 0XM     -0.106750
      6 CBJ         3.3060   -2.6740   -2.2800 ca        1 0XM     -0.115250
      7 CBK         2.4460   -3.7530   -2.0780 ca        1 0XM     -0.080000
      8 CBL         1.3760   -3.6350   -1.1870 ca        1 0XM     -0.115250
      9 CBM         1.1670   -2.4420   -0.5000 ca        1 0XM     -0.106750
     10 CBN         2.2790   -1.2180    2.2120 ca        1 0XM     -0.106750
     11 CBO         2.5910   -1.1500    3.5720 ca        1 0XM     -0.115250
     12 CBP         2.7510    0.0860    4.1950 ca        1 0XM     -0.080000
     13 CBQ         2.6070    1.2640    3.4560 ca        1 0XM     -0.115250
     14 CBR         2.3000    1.2020    2.1010 ca        1 0XM     -0.106750
     15 H12         0.2300    0.5700   -1.2120 hn        1 0XM      0.453800
     16 H26         2.4900    0.7400   -0.4910 hx        1 0XM      0.107700
     17 H27         3.7830   -0.6280   -1.7670 ha        1 0XM      0.139250
     18 H28         4.1560   -2.7660   -2.9760 ha        1 0XM      0.160250
     19 H29         2.6120   -4.7000   -2.6160 ha        1 0XM      0.162500
     20 H30         0.7000   -4.4890   -1.0230 ha        1 0XM      0.160250
     21 H31         0.3370   -2.3790    0.2210 ha        1 0XM      0.139250
     22 H32         2.1760   -2.2030    1.7290 ha        1 0XM      0.139250
     23 H33         2.7160   -2.0810    4.1490 ha        1 0XM      0.160250
     24 H34         2.9990    0.1370    5.2680 ha        1 0XM      0.162500
     25 H35         2.7450    2.2410    3.9450 ha        1 0XM      0.160250
     26 H36         2.2200    2.1340    1.5210 ha        1 0XM      0.139250
     27 H2          0.2710    1.3280    0.2840 hn        1 0XM      0.453800
     28 HAV3       -0.2540   -0.2490    0.1550 hn        1 0XM      0.453800
@<TRIPOS>BOND
     1    1    2 1   
     2    1   15 1   
     3    1   27 1   
     4    1   28 1   
     5    2    3 1   
     6    2    4 1   
     7    2   16 1   
     8    3   10 ar  
     9    3   14 ar  
    10    4    5 ar  
    11    4    9 ar  
    12    5    6 ar  
    13    5   17 1   
    14    6    7 ar  
    15    6   18 1   
    16    7    8 ar  
    17    7   19 1   
    18    8    9 ar  
    19    8   20 1   
    20    9   21 1   
    21   10   11 ar  
    22   10   22 1   
    23   11   12 ar  
    24   11   23 1   
    25   12   13 ar  
    26   12   24 1   
    27   13   14 ar  
    28   13   25 1   
    29   14   26 1   
@<TRIPOS>SUBSTRUCTURE
     1 0XM         1 TEMP              0 ****  ****    0 ROOT
