@<TRIPOS>MOLECULE
0XM
   27    28     1     0     0
SMALL
bcc


@<TRIPOS>ATOM
      1 NAV         0.0650    2.0880   -1.4430 n3        1 0XM     -0.895800
      2 CBF        -0.0150    0.6650   -1.1630 c3        1 0XM      0.255100
      3 CBG         1.2220    0.1620   -0.4520 ca        1 0XM     -0.093800
      4 CBH        -1.2470    0.2190   -0.3990 ca        1 0XM     -0.093800
      5 CBI        -1.8480   -1.0000   -0.7320 ca        1 0XM     -0.120750
      6 CBJ        -2.9850   -1.4340   -0.0510 ca        1 0XM     -0.127500
      7 CBK        -3.5330   -0.6520    0.9660 ca        1 0XM     -0.128500
      8 CBL        -2.9380    0.5640    1.3000 ca        1 0XM     -0.127500
      9 CBM        -1.8000    0.9980    0.6220 ca        1 0XM     -0.120750
     10 CBN         1.5350    0.5990    0.8390 ca        1 0XM     -0.120750
     11 CBO         2.6800    0.1290    1.4800 ca        1 0XM     -0.127500
     12 CBP         3.5200   -0.7790    0.8350 ca        1 0XM     -0.128500
     13 CBQ         3.2130   -1.2150   -0.4530 ca        1 0XM     -0.127500
     14 CBR         2.0690   -0.7450   -1.0980 ca        1 0XM     -0.120750
     15 H12        -0.8310    2.4320   -1.7290 hn        1 0XM      0.350300
     16 H26        -0.0610    0.1670   -2.1840 h1        1 0XM      0.069700
     17 H27        -1.4200   -1.6210   -1.5330 ha        1 0XM      0.129750
     18 H28        -3.4490   -2.3950   -0.3180 ha        1 0XM      0.131500
     19 H29        -4.4300   -0.9940    1.5020 ha        1 0XM      0.131500
     20 H30        -3.3660    1.1830    2.1030 ha        1 0XM      0.131500
     21 H31        -1.3390    1.9560    0.9060 ha        1 0XM      0.129750
     22 H32         0.8680    1.3060    1.3540 ha        1 0XM      0.129750
     23 H33         2.9200    0.4750    2.4960 ha        1 0XM      0.131500
     24 H34         4.4230   -1.1490    1.3420 ha        1 0XM      0.131500
     25 H35         3.8740   -1.9290   -0.9650 ha        1 0XM      0.131500
     26 H36         1.8370   -1.0850   -2.1180 ha        1 0XM      0.129750
     27 H2          0.3660    2.5980   -0.6350 hn        1 0XM      0.350300
@<TRIPOS>BOND
     1    1    2 1   
     2    1   15 1   
     3    1   27 1   
     4    2    3 1   
     5    2    4 1   
     6    2   16 1   
     7    3   10 ar  
     8    3   14 ar  
     9    4    5 ar  
    10    4    9 ar  
    11    5    6 ar  
    12    5   17 1   
    13    6    7 ar  
    14    6   18 1   
    15    7    8 ar  
    16    7   19 1   
    17    8    9 ar  
    18    8   20 1   
    19    9   21 1   
    20   10   11 ar  
    21   10   22 1   
    22   11   12 ar  
    23   11   23 1   
    24   12   13 ar  
    25   12   24 1   
    26   13   14 ar  
    27   13   25 1   
    28   14   26 1   
@<TRIPOS>SUBSTRUCTURE
     1 0XM         1 TEMP              0 ****  ****    0 ROOT
