@<TRIPOS>MOLECULE
0XM
   27    22     1     0     0
SMALL
bcc


@<TRIPOS>ATOM
      1 NAV        -2.1420   -0.9960   -0.5110 n3        1 0XM     -0.916800
      2 CBF        -0.7180   -0.9630   -0.5210 c3        1 0XM      0.198700
      3 CBG        -0.2060   -0.8940    0.9010 c1        1 0XM     -0.051100
      4 CBH        -0.2470    0.2540   -1.2860 c1        1 0XM     -0.051100
      5 CBI        -0.9380    1.4510   -1.1770 c1        1 0XM     -0.066500
      6 CBJ        -0.4770    2.5800   -1.8370 c1        1 0XM     -0.066500
      7 CBK         0.6740    2.5120   -2.6060 c1        1 0XM     -0.066500
      8 CBL         1.3650    1.3150   -2.7150 c1        1 0XM     -0.066500
      9 CBM         0.9040    0.1860   -2.0550 c1        1 0XM     -0.067500
     10 CBN         0.8920   -1.7100    1.1250 c1        1 0XM     -0.067500
     11 CBO         1.4620   -1.7740    2.3870 c1        1 0XM     -0.066500
     12 CBP         0.9350   -1.0210    3.4240 c1        1 0XM     -0.066500
     13 CBQ        -0.1630   -0.2050    3.2000 c1        1 0XM     -0.066500
     14 CBR        -0.7330   -0.1410    1.9380 c1        1 0XM     -0.066500
     15 H12        -2.4270   -1.7370   -0.0550 hn        1 0XM      0.357800
     16 H26        -0.3760   -1.7710   -0.9520 h1        1 0XM      0.017700
     17 H27        -1.7480    1.4990   -0.6350 ha        1 0XM      0.076750
     18 H28        -0.9640    3.4220   -1.7600 ha        1 0XM      0.076750
     19 H29         0.9980    3.3060   -3.0700 ha        1 0XM      0.076750
     20 H30         2.1750    1.2670   -3.2560 ha        1 0XM      0.076750
     21 H31         1.3910   -0.6560   -2.1320 ha        1 0XM      0.070500
     22 H32         1.2630   -2.2400    0.3940 ha        1 0XM      0.070500
     23 H33         2.2350   -2.3490    2.5450 ha        1 0XM      0.076750
     24 H34         1.3360   -1.0660    4.3130 ha        1 0XM      0.076750
     25 H35        -0.5340    0.3250    3.9310 ha        1 0XM      0.076750
     26 H36        -1.5060    0.4340    1.7800 ha        1 0XM      0.076750
     27 H2         -2.4520   -1.0290   -1.3720 hn        1 0XM      0.357800
@<TRIPOS>BOND
     1    1    2 1   
     2    1   15 1   
     3    1   27 1   
     4    2    3 1   
     5    2    4 1   
     6    2   16 1   
     7    3   10 3   
     8    4    9 3   
     9    5    6 3   
    10    5   17 1   
    11    6   18 1   
    12    7    8 3   
    13    7   19 1   
    14    8   20 1   
    15    9   21 1   
    16   10   22 1   
    17   11   12 3   
    18   11   23 1   
    19   12   24 1   
    20   13   14 3   
    21   13   25 1   
    22   14   26 1   
@<TRIPOS>SUBSTRUCTURE
     1 0XM         1 TEMP              0 ****  ****    0 ROOT
