@<TRIPOS>MOLECULE
0XM
   28    29     1     0     0
SMALL
bcc


@<TRIPOS>ATOM
      1 NAV         0.0960    0.1780   -0.1010 nz        1 0XM     -0.847600
      2 CBF         1.5940   -0.0490    0.0280 c3        1 0XM      0.263100
      3 CBG         1.9890   -0.0320    1.4750 ca        1 0XM     -0.172300
      4 CBH         1.9850   -1.2940   -0.7120 ca        1 0XM     -0.172300
      5 CBI         2.9830   -1.1950   -1.6900 ca        1 0XM     -0.106250
      6 CBJ         3.3990   -2.3330   -2.3810 ca        1 0XM     -0.112750
      7 CBK         2.8150   -3.5700   -2.1090 ca        1 0XM     -0.082000
      8 CBL         1.8170   -3.6700   -1.1380 ca        1 0XM     -0.112750
      9 CBM         1.4050   -2.5380   -0.4380 ca        1 0XM     -0.106250
     10 CBN         1.4100   -0.8920    2.4160 ca        1 0XM     -0.106250
     11 CBO         1.8260   -0.8540    3.7450 ca        1 0XM     -0.112750
     12 CBP         2.8250    0.0370    4.1430 ca        1 0XM     -0.082000
     13 CBQ         3.4060    0.8920    3.2070 ca        1 0XM     -0.112750
     14 CBR         2.9880    0.8640    1.8770 ca        1 0XM     -0.106250
     15 H12        -0.1620    0.2150   -1.0890 hn        1 0XM      0.455133
     16 H26         2.0700    0.8460   -0.4890 hx        1 0XM      0.104700
     17 H27         3.4560   -0.2250   -1.9100 ha        1 0XM      0.133500
     18 H28         4.1910   -2.2510   -3.1430 ha        1 0XM      0.159500
     19 H29         3.1450   -4.4690   -2.6550 ha        1 0XM      0.162000
     20 H30         1.3590   -4.6480   -0.9170 ha        1 0XM      0.159500
     21 H31         0.6350   -2.6460    0.3400 ha        1 0XM      0.133500
     22 H32         0.6400   -1.6200    2.1210 ha        1 0XM      0.133500
     23 H33         1.3690   -1.5340    4.4820 ha        1 0XM      0.159500
     24 H34         3.1570    0.0600    5.1940 ha        1 0XM      0.162000
     25 H35         4.1990    1.5920    3.5150 ha        1 0XM      0.159500
     26 H36         3.4590    1.5400    1.1460 ha        1 0XM      0.133500
     27 H2         -0.1600    1.0530    0.3620 hn        1 0XM      0.455133
     28 HAV3       -0.4060   -0.5950    0.3460 hn        1 0XM      0.455133
@<TRIPOS>BOND
     1    1    2 1   
     2    1   15 1   
     3    1   27 1   
     4    1   28 1   
     5    2    3 1   
     6    2    4 1   
     7    2   16 1   
     8    3   10 ar  
     9    3   14 ar  
    10    4    5 ar  
    11    4    9 ar  
    12    5    6 ar  
    13    5   17 1   
    14    6    7 ar  
    15    6   18 1   
    16    7    8 ar  
    17    7   19 1   
    18    8    9 ar  
    19    8   20 1   
    20    9   21 1   
    21   10   11 ar  
    22   10   22 1   
    23   11   12 ar  
    24   11   23 1   
    25   12   13 ar  
    26   12   24 1   
    27   13   14 ar  
    28   13   25 1   
    29   14   26 1   
@<TRIPOS>SUBSTRUCTURE
     1 0XM         1 TEMP              0 ****  ****    0 ROOT
