@<TRIPOS>MOLECULE
0XM
   28    29     1     0     0
SMALL
bcc


@<TRIPOS>ATOM
      1 NAV         0.0950    0.1760   -0.0990 n4        1 0XM     -0.847600
      2 CBF         1.5930   -0.0500    0.0290 c3        1 0XM      0.263100
      3 CBG         1.9880   -0.0330    1.4750 ca        1 0XM     -0.172300
      4 CBH         1.9850   -1.2940   -0.7120 ca        1 0XM     -0.172300
      5 CBI         2.9810   -1.1930   -1.6920 ca        1 0XM     -0.106250
      6 CBJ         3.3970   -2.3300   -2.3840 ca        1 0XM     -0.112750
      7 CBK         2.8170   -3.5690   -2.1100 ca        1 0XM     -0.082000
      8 CBL         1.8200   -3.6710   -1.1370 ca        1 0XM     -0.112750
      9 CBM         1.4070   -2.5390   -0.4370 ca        1 0XM     -0.106250
     10 CBN         1.4100   -0.8920    2.4170 ca        1 0XM     -0.106250
     11 CBO         1.8260   -0.8540    3.7460 ca        1 0XM     -0.112750
     12 CBP         2.8260    0.0360    4.1430 ca        1 0XM     -0.082000
     13 CBQ         3.4070    0.8920    3.2060 ca        1 0XM     -0.112750
     14 CBR         2.9880    0.8630    1.8770 ca        1 0XM     -0.106250
     15 H12        -0.4070   -0.5980    0.3470 hn        1 0XM      0.455133
     16 H26         2.0670    0.8460   -0.4880 hx        1 0XM      0.104700
     17 H27         3.4520   -0.2220   -1.9130 ha        1 0XM      0.133500
     18 H28         4.1880   -2.2470   -3.1470 ha        1 0XM      0.159500
     19 H29         3.1470   -4.4670   -2.6570 ha        1 0XM      0.162000
     20 H30         1.3650   -4.6490   -0.9160 ha        1 0XM      0.159500
     21 H31         0.6390   -2.6480    0.3430 ha        1 0XM      0.133500
     22 H32         0.6390   -1.6200    2.1220 ha        1 0XM      0.133500
     23 H33         1.3700   -1.5340    4.4830 ha        1 0XM      0.159500
     24 H34         3.1580    0.0600    5.1930 ha        1 0XM      0.162000
     25 H35         4.2000    1.5920    3.5140 ha        1 0XM      0.159500
     26 H36         3.4580    1.5400    1.1460 ha        1 0XM      0.133500
     27 H2         -0.1640    0.2140   -1.0880 hn        1 0XM      0.455133
     28 HAV3       -0.1620    1.0500    0.3640 hn        1 0XM      0.455133
@<TRIPOS>BOND
     1    1    2 1   
     2    1   15 1   
     3    1   27 1   
     4    1   28 1   
     5    2    3 1   
     6    2    4 1   
     7    2   16 1   
     8    3   10 ar  
     9    3   14 ar  
    10    4    5 ar  
    11    4    9 ar  
    12    5    6 ar  
    13    5   17 1   
    14    6    7 ar  
    15    6   18 1   
    16    7    8 ar  
    17    7   19 1   
    18    8    9 ar  
    19    8   20 1   
    20    9   21 1   
    21   10   11 ar  
    22   10   22 1   
    23   11   12 ar  
    24   11   23 1   
    25   12   13 ar  
    26   12   24 1   
    27   13   14 ar  
    28   13   25 1   
    29   14   26 1   
@<TRIPOS>SUBSTRUCTURE
     1 0XM         1 TEMP              0 ****  ****    0 ROOT
