@<TRIPOS>MOLECULE
0XN
   27    28     1     0     0
SMALL
bcc


@<TRIPOS>ATOM
      1 NAV        -0.0700    2.8220   -0.2870 n3        1 0XN     -0.896800
      2 CBF         0.0160    1.5830    0.4650 c3        1 0XN      0.261100
      3 CBG        -1.2200    0.7320    0.2820 ca        1 0XN     -0.111300
      4 CBH         1.2480    0.7410    0.1990 ca        1 0XN     -0.111300
      5 CBI         1.8060    0.6350   -1.0790 ca        1 0XN     -0.096500
      6 CBJ         2.9420   -0.1380   -1.3000 ca        1 0XN     -0.162750
      7 CBK         3.5330   -0.8230   -0.2230 ca        1 0XN      0.127400
      8 CBL         2.9790   -0.7240    1.0660 ca        1 0XN     -0.162750
      9 CBM         1.8450    0.0570    1.2640 ca        1 0XN     -0.096500
     10 CBN        -2.0850    0.5300    1.3620 ca        1 0XN     -0.096500
     11 CBO        -3.2290   -0.2490    1.2170 ca        1 0XN     -0.162750
     12 CBP        -3.5180   -0.8310   -0.0310 ca        1 0XN      0.127400
     13 CBQ        -2.6550   -0.6260   -1.1240 ca        1 0XN     -0.162750
     14 CBR        -1.5160    0.1540   -0.9570 ca        1 0XN     -0.096500
     15 F01         4.6390   -1.5770   -0.4280 f         1 0XN     -0.139900
     16 F02        -4.6300   -1.5890   -0.1820 f         1 0XN     -0.139900
     17 H12         0.8170    3.2880   -0.2890 hn        1 0XN      0.352300
     18 H27         0.0650    1.9030    1.5550 h1        1 0XN      0.071700
     19 H28         1.3490    1.1600   -1.9330 ha        1 0XN      0.136250
     20 H29         3.3800   -0.2210   -2.3050 ha        1 0XN      0.150000
     21 H30         3.4460   -1.2630    1.9030 ha        1 0XN      0.150000
     22 H31         1.4130    0.1330    2.2750 ha        1 0XN      0.136250
     23 H32        -1.8680    0.9930    2.3370 ha        1 0XN      0.136250
     24 H33        -3.9110   -0.4110    2.0640 ha        1 0XN      0.150000
     25 H34        -2.8880   -1.0830   -2.0960 ha        1 0XN      0.150000
     26 H35        -0.8340    0.3080   -1.8080 ha        1 0XN      0.136250
     27 H2         -0.3550    2.6540   -1.2330 hn        1 0XN      0.352300
@<TRIPOS>BOND
     1    1    2 1   
     2    1   17 1   
     3    1   27 1   
     4    2    3 1   
     5    2    4 1   
     6    2   18 1   
     7    3   10 ar  
     8    3   14 ar  
     9    4    5 ar  
    10    4    9 ar  
    11    5    6 ar  
    12    5   19 1   
    13    6    7 ar  
    14    6   20 1   
    15    7    8 ar  
    16    7   15 1   
    17    8    9 ar  
    18    8   21 1   
    19    9   22 1   
    20   10   11 ar  
    21   10   23 1   
    22   11   12 ar  
    23   11   24 1   
    24   12   13 ar  
    25   12   16 1   
    26   13   14 ar  
    27   13   25 1   
    28   14   26 1   
@<TRIPOS>SUBSTRUCTURE
     1 0XN         1 TEMP              0 ****  ****    0 ROOT
