@<TRIPOS>MOLECULE
0XN
   28    29     1     0     0
SMALL
bcc


@<TRIPOS>ATOM
      1 NAV         0.4560    0.5030   -0.2340 n4        1 0XN     -0.852600
      2 CBF         1.8630   -0.0440   -0.0120 c3        1 0XN      0.275100
      3 CBG         2.1620   -0.0290    1.4550 ca        1 0XN     -0.203300
      4 CBH         2.0010   -1.3660   -0.7020 ca        1 0XN     -0.203300
      5 CBI         1.0990   -2.4160   -0.4830 ca        1 0XN     -0.077750
      6 CBJ         1.2510   -3.6290   -1.1430 ca        1 0XN     -0.159250
      7 CBK         2.3330   -3.8060   -2.0320 ca        1 0XN      0.187900
      8 CBL         3.2480   -2.7560   -2.2480 ca        1 0XN     -0.159250
      9 CBM         3.0720   -1.5460   -1.5870 ca        1 0XN     -0.077750
     10 CBN         2.4230    1.2140    2.0580 ca        1 0XN     -0.077750
     11 CBO         2.7380    1.2960    3.4050 ca        1 0XN     -0.159250
     12 CBP         2.8060    0.1140    4.1750 ca        1 0XN      0.187900
     13 CBQ         2.5590   -1.1350    3.5730 ca        1 0XN     -0.159250
     14 CBR         2.2410   -1.1960    2.2200 ca        1 0XN     -0.077750
     15 F01         2.4890   -4.9800   -2.6740 f         1 0XN     -0.101900
     16 F02         3.1130    0.1830    5.4850 f         1 0XN     -0.101900
     17 H12        -0.2320   -0.1450    0.1590 hn        1 0XN      0.454467
     18 H27         2.5500    0.7080   -0.5210 hx        1 0XN      0.107700
     19 H28         0.2650   -2.3070    0.2290 ha        1 0XN      0.144750
     20 H29         0.5440   -4.4570   -0.9760 ha        1 0XN      0.177250
     21 H30         4.0950   -2.9030   -2.9380 ha        1 0XN      0.177250
     22 H31         3.7960   -0.7320   -1.7580 ha        1 0XN      0.144750
     23 H32         2.4010    2.1380    1.4580 ha        1 0XN      0.144750
     24 H33         2.9470    2.2680    3.8820 ha        1 0XN      0.177250
     25 H34         2.6280   -2.0550    4.1760 ha        1 0XN      0.177250
     26 H35         2.0710   -2.1830    1.7570 ha        1 0XN      0.144750
     27 H2          0.2800    0.6070   -1.2360 hn        1 0XN      0.454467
     28 HAV3        0.3650    1.4080    0.2340 hn        1 0XN      0.454467
@<TRIPOS>BOND
     1    1    2 1   
     2    1   17 1   
     3    1   27 1   
     4    1   28 1   
     5    2    3 1   
     6    2    4 1   
     7    2   18 1   
     8    3   10 ar  
     9    3   14 ar  
    10    4    5 ar  
    11    4    9 ar  
    12    5    6 ar  
    13    5   19 1   
    14    6    7 ar  
    15    6   20 1   
    16    7    8 ar  
    17    7   15 1   
    18    8    9 ar  
    19    8   21 1   
    20    9   22 1   
    21   10   11 ar  
    22   10   23 1   
    23   11   12 ar  
    24   11   24 1   
    25   12   13 ar  
    26   12   16 1   
    27   13   14 ar  
    28   13   25 1   
    29   14   26 1   
@<TRIPOS>SUBSTRUCTURE
     1 0XN         1 TEMP              0 ****  ****    0 ROOT
