@<TRIPOS>MOLECULE
0XN
   28    29     1     0     0
SMALL
bcc


@<TRIPOS>ATOM
      1 NAV         0.4040    0.4550   -0.2150 n4        1 0XN     -0.852600
      2 CBF         1.8300   -0.0440   -0.0000 c3        1 0XN      0.275100
      3 CBG         2.1290   -0.0360    1.4660 ca        1 0XN     -0.203300
      4 CBH         2.0130   -1.3520   -0.7060 ca        1 0XN     -0.203300
      5 CBI         1.1500   -2.4370   -0.4990 ca        1 0XN     -0.077750
      6 CBJ         1.3440   -3.6350   -1.1730 ca        1 0XN     -0.159250
      7 CBK         2.4300   -3.7620   -2.0660 ca        1 0XN      0.187900
      8 CBL         3.3060   -2.6780   -2.2710 ca        1 0XN     -0.159250
      9 CBM         3.0890   -1.4830   -1.5950 ca        1 0XN     -0.077750
     10 CBN         2.3450    1.2080    2.0850 ca        1 0XN     -0.077750
     11 CBO         2.6580    1.2850    3.4330 ca        1 0XN     -0.159250
     12 CBP         2.7710    0.0960    4.1880 ca        1 0XN      0.187900
     13 CBQ         2.5700   -1.1530    3.5700 ca        1 0XN     -0.159250
     14 CBR         2.2520   -1.2090    2.2170 ca        1 0XN     -0.077750
     15 F01         2.6260   -4.9230   -2.7220 f         1 0XN     -0.101900
     16 F02         3.0760    0.1610    5.4980 f         1 0XN     -0.101900
     17 H12        -0.2600   -0.2220    0.1700 hn        1 0XN      0.454467
     18 H27         2.4890    0.7380   -0.5010 hx        1 0XN      0.107700
     19 H28         0.3140   -2.3660    0.2160 ha        1 0XN      0.144750
     20 H29         0.6680   -4.4900   -1.0150 ha        1 0XN      0.177250
     21 H30         4.1570   -2.7870   -2.9640 ha        1 0XN      0.177250
     22 H31         3.7830   -0.6420   -1.7580 ha        1 0XN      0.144750
     23 H32         2.2880    2.1380    1.4960 ha        1 0XN      0.144750
     24 H33         2.8310    2.2570    3.9210 ha        1 0XN      0.177250
     25 H34         2.6740   -2.0770    4.1620 ha        1 0XN      0.177250
     26 H35         2.1190   -2.1960    1.7420 ha        1 0XN      0.144750
     27 H2          0.2230    0.5650   -1.2150 hn        1 0XN      0.454467
     28 HAV3        0.2810    1.3500    0.2650 hn        1 0XN      0.454467
@<TRIPOS>BOND
     1    1    2 1   
     2    1   17 1   
     3    1   27 1   
     4    1   28 1   
     5    2    3 1   
     6    2    4 1   
     7    2   18 1   
     8    3   10 ar  
     9    3   14 ar  
    10    4    5 ar  
    11    4    9 ar  
    12    5    6 ar  
    13    5   19 1   
    14    6    7 ar  
    15    6   20 1   
    16    7    8 ar  
    17    7   15 1   
    18    8    9 ar  
    19    8   21 1   
    20    9   22 1   
    21   10   11 ar  
    22   10   23 1   
    23   11   12 ar  
    24   11   24 1   
    25   12   13 ar  
    26   12   16 1   
    27   13   14 ar  
    28   13   25 1   
    29   14   26 1   
@<TRIPOS>SUBSTRUCTURE
     1 0XN         1 TEMP              0 ****  ****    0 ROOT
