@<TRIPOS>MOLECULE
0XN
   27    24     1     0     0
SMALL
bcc


@<TRIPOS>ATOM
      1 NAV        -2.1140    0.9020   -0.5410 n3        1 0XN     -0.351000
      2 CBF        -0.6910    0.8820   -0.5440 c3        1 0XN      0.061000
      3 CBG        -0.1830    0.8760    0.8810 c2        1 0XN     -0.095000
      4 CBH        -0.2050   -0.3610   -1.2580 c2        1 0XN     -0.095000
      5 CBI         1.0090   -0.3460   -1.9270 c2        1 0XN     -0.100000
      6 CBJ         1.4290   -1.4680   -2.6250 c1        1 0XN     -0.168000
      7 CBK         0.6350   -2.6030   -2.6550 c1        1 0XN      0.093000
      8 CBL        -0.5790   -2.6180   -1.9860 c1        1 0XN     -0.170000
      9 CBM        -0.9990   -1.4970   -1.2880 c1        1 0XN     -0.078000
     10 CBN        -0.2800   -0.1150    1.8460 c1        1 0XN     -0.078000
     11 CBO         0.2430    0.0970    3.1120 c1        1 0XN     -0.170000
     12 CBP         0.8640    1.2990    3.4130 c1        1 0XN      0.093000
     13 CBQ         0.9610    2.2900    2.4480 c1        1 0XN     -0.168000
     14 CBR         0.4370    2.0780    1.1820 c2        1 0XN     -0.100000
     15 F01         1.0320   -3.6790   -3.3470 f         1 0XN     -0.106000
     16 F02         1.4010    1.4900    4.6250 f         1 0XN     -0.106000
     17 H12        -2.4120    1.3490    0.2010 hn        1 0XN      0.155000
     18 H27        -0.3540    1.6750   -1.0060 h1        1 0XN      0.059000
     19 H28         1.5680    0.4530   -1.9060 ha        1 0XN      0.134000
     20 H29         2.2840   -1.4570   -3.0960 ha        1 0XN      0.149000
     21 H30        -1.1380   -3.4180   -2.0070 ha        1 0XN      0.149000
     22 H31        -1.8540   -1.5070   -0.8170 ha        1 0XN      0.152000
     23 H32        -0.7170   -0.9620    1.6340 ha        1 0XN      0.152000
     24 H33         0.1750   -0.6010    3.7910 ha        1 0XN      0.149000
     25 H34         1.3980    3.1370    2.6600 ha        1 0XN      0.149000
     26 H35         0.5060    2.7750    0.5030 ha        1 0XN      0.134000
     27 H2         -2.4160    1.3280   -1.2940 hn        1 0XN      0.155000
@<TRIPOS>BOND
     1    1    2 1   
     2    1   17 1   
     3    1   27 1   
     4    2    3 1   
     5    2    4 1   
     6    2   18 1   
     7    3   10 1   
     8    3   14 1   
     9    4    5 1   
    10    4    9 1   
    11    5    6 1   
    12    5   19 1   
    13    6   20 1   
    14    7    8 1   
    15    7   15 1   
    16    8   21 1   
    17    9   22 1   
    18   10   23 1   
    19   11   12 1   
    20   11   24 1   
    21   12   16 1   
    22   13   14 1   
    23   13   25 1   
    24   14   26 1   
@<TRIPOS>SUBSTRUCTURE
     1 0XN         1 TEMP              0 ****  ****    0 ROOT
