@<TRIPOS>MOLECULE
0XN
   28    29     1     0     0
SMALL
bcc


@<TRIPOS>ATOM
      1 NAV         0.4570    0.5030   -0.2360 nz        1 0XN     -0.852600
      2 CBF         1.8630   -0.0450   -0.0140 c3        1 0XN      0.275100
      3 CBG         2.1630   -0.0270    1.4530 ca        1 0XN     -0.203300
      4 CBH         1.9990   -1.3680   -0.7010 ca        1 0XN     -0.203300
      5 CBI         1.0970   -2.4180   -0.4780 ca        1 0XN     -0.077750
      6 CBJ         1.2480   -3.6320   -1.1350 ca        1 0XN     -0.159250
      7 CBK         2.3280   -3.8120   -2.0260 ca        1 0XN      0.187900
      8 CBL         3.2430   -2.7630   -2.2450 ca        1 0XN     -0.159250
      9 CBM         3.0690   -1.5510   -1.5870 ca        1 0XN     -0.077750
     10 CBN         2.4250    1.2170    2.0530 ca        1 0XN     -0.077750
     11 CBO         2.7410    1.3030    3.4000 ca        1 0XN     -0.159250
     12 CBP         2.8110    0.1220    4.1720 ca        1 0XN      0.187900
     13 CBQ         2.5630   -1.1280    3.5730 ca        1 0XN     -0.159250
     14 CBR         2.2440   -1.1920    2.2200 ca        1 0XN     -0.077750
     15 F01         2.4820   -4.9880   -2.6650 f         1 0XN     -0.101900
     16 F02         3.1180    0.1940    5.4820 f         1 0XN     -0.101900
     17 H12        -0.2320   -0.1440    0.1590 hn        1 0XN      0.454467
     18 H27         2.5500    0.7050   -0.5250 hx        1 0XN      0.107700
     19 H28         0.2640   -2.3070    0.2350 ha        1 0XN      0.144750
     20 H29         0.5400   -4.4590   -0.9650 ha        1 0XN      0.177250
     21 H30         4.0890   -2.9130   -2.9360 ha        1 0XN      0.177250
     22 H31         3.7930   -0.7380   -1.7620 ha        1 0XN      0.144750
     23 H32         2.4020    2.1400    1.4510 ha        1 0XN      0.144750
     24 H33         2.9500    2.2750    3.8740 ha        1 0XN      0.177250
     25 H34         2.6330   -2.0470    4.1780 ha        1 0XN      0.177250
     26 H35         2.0740   -2.1800    1.7600 ha        1 0XN      0.144750
     27 H2          0.2790    0.6050   -1.2380 hn        1 0XN      0.454467
     28 HAV3        0.3660    1.4090    0.2310 hn        1 0XN      0.454467
@<TRIPOS>BOND
     1    1    2 1   
     2    1   17 1   
     3    1   27 1   
     4    1   28 1   
     5    2    3 1   
     6    2    4 1   
     7    2   18 1   
     8    3   10 ar  
     9    3   14 ar  
    10    4    5 ar  
    11    4    9 ar  
    12    5    6 ar  
    13    5   19 1   
    14    6    7 ar  
    15    6   20 1   
    16    7    8 ar  
    17    7   15 1   
    18    8    9 ar  
    19    8   21 1   
    20    9   22 1   
    21   10   11 ar  
    22   10   23 1   
    23   11   12 ar  
    24   11   24 1   
    25   12   13 ar  
    26   12   16 1   
    27   13   14 ar  
    28   13   25 1   
    29   14   26 1   
@<TRIPOS>SUBSTRUCTURE
     1 0XN         1 TEMP              0 ****  ****    0 ROOT
