@<TRIPOS>MOLECULE
0XP
   37    39     1     0     0
SMALL
bcc


@<TRIPOS>ATOM
      1 C1          0.2610    0.0430   -0.5010 ca        1 0XP     -0.299300
      2 C2          1.6510   -0.1480   -0.5100 ca        1 0XP      0.444200
      3 N3          2.4400   -0.1710    0.5720 nb        1 0XP     -0.681000
      4 C4          1.8270   -0.0090    1.7880 ca        1 0XP      0.563200
      5 C5          0.4260    0.1950    1.9110 ca        1 0XP     -0.347300
      6 C6         -0.3740    0.2240    0.7440 ca        1 0XP      0.127600
      7 N7         -1.7540    0.4250    0.8900 ns        1 0XP     -0.462100
      8 C8         -2.6950    0.5210   -0.1260 c         1 0XP      0.688700
      9 O9         -2.4310    0.4520   -1.3350 o         1 0XP     -0.541100
     10 C10        -4.1060    0.7240    0.3510 ca        1 0XP     -0.125600
     11 C11        -4.9370   -0.3800    0.5860 ca        1 0XP      0.045400
     12 C12        -6.2710   -0.1970    0.9650 ca        1 0XP     -0.095000
     13 C13        -6.7720    1.1020    1.1160 ca        1 0XP      0.024000
     14 C14        -5.9490    2.2130    0.8940 ca        1 0XP     -0.095000
     15 C15        -4.6170    2.0180    0.5150 ca        1 0XP      0.045400
     16 Cl1        -3.6280    3.3700    0.2590 cl        1 0XP     -0.045400
     17 C17        -8.1270    1.2950    1.5010 cg        1 0XP      0.220800
     18 N18        -9.2360    1.4520    1.8150 n1        1 0XP     -0.329800
     19 Cl2        -4.3400   -1.9560    0.4140 cl        1 0XP     -0.045400
     20 N20         2.6010    0.0030    2.9670 ns        1 0XP     -0.569400
     21 C21         3.7840   -0.7050    3.1690 c         1 0XP      0.705100
     22 O22         4.2020   -1.5690    2.3840 o         1 0XP     -0.538100
     23 C23         4.5650   -0.3900    4.4120 cx        1 0XP     -0.229700
     24 C25         4.7820    1.0280    4.8660 cx        1 0XP     -0.132400
     25 C26         3.9700    0.0900    5.7270 cx        1 0XP      0.123600
     26 F1          2.6280    0.2910    5.8700 f         1 0XP     -0.213300
     27 H1         -0.2980    0.0480   -1.4480 ha        1 0XP      0.183000
     28 H2          2.1820   -0.2910   -1.4710 h4        1 0XP      0.031100
     29 H3         -0.0270    0.3220    2.9050 ha        1 0XP      0.140000
     30 H4         -2.0850    0.5000    1.8280 hn        1 0XP      0.325500
     31 H5         -6.9230   -1.0670    1.1410 ha        1 0XP      0.170000
     32 H6         -6.3490    3.2330    1.0150 ha        1 0XP      0.170000
     33 H7          2.1950    0.4790    3.7410 hn        1 0XP      0.331500
     34 H24         5.4190   -1.1000    4.4930 hc        1 0XP      0.123700
     35 H8          5.7880    1.3270    5.2110 hc        1 0XP      0.093200
     36 H9          4.2680    1.8470    4.3300 hc        1 0XP      0.093200
     37 H27         4.4100   -0.3110    6.6670 h1        1 0XP      0.103700
@<TRIPOS>BOND
     1    1    2 ar  
     2    1    6 ar  
     3    1   27 1   
     4    2    3 ar  
     5    2   28 1   
     6    3    4 ar  
     7    4    5 ar  
     8    4   20 1   
     9    5    6 ar  
    10    5   29 1   
    11    6    7 1   
    12    7    8 1   
    13    7   30 1   
    14    8    9 2   
    15    8   10 1   
    16   10   11 ar  
    17   10   15 ar  
    18   11   12 ar  
    19   11   19 1   
    20   12   13 ar  
    21   12   31 1   
    22   13   14 ar  
    23   13   17 1   
    24   14   15 ar  
    25   14   32 1   
    26   15   16 1   
    27   17   18 3   
    28   20   21 1   
    29   20   33 1   
    30   21   22 2   
    31   21   23 1   
    32   23   24 1   
    33   23   25 1   
    34   23   34 1   
    35   24   25 1   
    36   24   35 1   
    37   24   36 1   
    38   25   26 1   
    39   25   37 1   
@<TRIPOS>SUBSTRUCTURE
     1 0XP         1 TEMP              0 ****  ****    0 ROOT
