@<TRIPOS>MOLECULE
0XP
   37    39     1     0     0
SMALL
bcc


@<TRIPOS>ATOM
      1 C1          0.9940    1.9680    1.3970 ca        1 0XP     -0.299300
      2 C2          2.3260    2.3640    1.5940 ca        1 0XP      0.444200
      3 N3          3.3960    1.8090    1.0110 nb        1 0XP     -0.681000
      4 C4          3.1610    0.7790    0.1390 ca        1 0XP      0.563200
      5 C5          1.8510    0.2950   -0.1310 ca        1 0XP     -0.347300
      6 C6          0.7450    0.9000    0.5120 ca        1 0XP      0.127600
      7 N7         -0.5370    0.4080    0.2300 n         1 0XP     -0.462100
      8 C8         -1.7360    0.8380    0.7820 c         1 0XP      0.688700
      9 O9         -1.8340    1.7340    1.6330 o         1 0XP     -0.541100
     10 C10        -2.9510    0.1210    0.2650 ca        1 0XP     -0.125600
     11 C11        -3.6470    0.6210   -0.8440 ca        1 0XP      0.045400
     12 C12        -4.8160   -0.0040   -1.2900 ca        1 0XP     -0.095000
     13 C13        -5.2870   -1.1410   -0.6220 ca        1 0XP      0.024000
     14 C14        -4.5960   -1.6560    0.4820 ca        1 0XP     -0.095000
     15 C15        -3.4280   -1.0230    0.9190 ca        1 0XP      0.045400
     16 CL1        -2.5950   -1.6610    2.2500 cl        1 0XP     -0.045400
     17 C17        -6.4770   -1.7800   -1.0690 cg        1 0XP      0.220800
     18 N18        -7.4490   -2.3030   -1.4350 n1        1 0XP     -0.329800
     19 CL2        -3.0820    1.9900   -1.6660 cl        1 0XP     -0.045400
     20 N20         4.2440    0.1320   -0.4920 n         1 0XP     -0.569400
     21 C21         5.4530    0.7290   -0.8430 c         1 0XP      0.705100
     22 O22         5.6470    1.9520   -0.7940 o         1 0XP     -0.538100
     23 C23         6.5540   -0.1790   -1.3100 cx        1 0XP     -0.229700
     24 C25         6.8550   -1.4750   -0.6050 cx        1 0XP     -0.132400
     25 C26         6.3550   -1.5050   -2.0300 cx        1 0XP      0.123600
     26 F1          5.1080   -1.9880   -2.3010 f         1 0XP     -0.213300
     27 H1          0.1830    2.4880    1.9280 ha        1 0XP      0.183000
     28 H2          2.5560    3.1980    2.2850 h4        1 0XP      0.031100
     29 H3          1.7040   -0.5340   -0.8370 ha        1 0XP      0.140000
     30 H4         -0.5820   -0.3250   -0.4440 hn        1 0XP      0.325500
     31 H5         -5.3650    0.3970   -2.1580 ha        1 0XP      0.170000
     32 H6         -4.9720   -2.5510    1.0040 ha        1 0XP      0.170000
     33 H7          4.0680   -0.7990   -0.7970 hn        1 0XP      0.331500
     34 H24         7.4130    0.4390   -1.6540 hc        1 0XP      0.123700
     35 H8          7.9100   -1.7380   -0.4080 hc        1 0XP      0.093200
     36 H9          6.1850   -1.8110    0.2070 hc        1 0XP      0.093200
     37 H27         7.0610   -1.7520   -2.8530 h1        1 0XP      0.103700
@<TRIPOS>BOND
     1    1    2 ar  
     2    1    6 ar  
     3    1   27 1   
     4    2    3 ar  
     5    2   28 1   
     6    3    4 ar  
     7    4    5 ar  
     8    4   20 1   
     9    5    6 ar  
    10    5   29 1   
    11    6    7 1   
    12    7    8 1   
    13    7   30 1   
    14    8    9 2   
    15    8   10 1   
    16   10   11 ar  
    17   10   15 ar  
    18   11   12 ar  
    19   11   19 1   
    20   12   13 ar  
    21   12   31 1   
    22   13   14 ar  
    23   13   17 1   
    24   14   15 ar  
    25   14   32 1   
    26   15   16 1   
    27   17   18 3   
    28   20   21 1   
    29   20   33 1   
    30   21   22 2   
    31   21   23 1   
    32   23   24 1   
    33   23   25 1   
    34   23   34 1   
    35   24   25 1   
    36   24   35 1   
    37   24   36 1   
    38   25   26 1   
    39   25   37 1   
@<TRIPOS>SUBSTRUCTURE
     1 0XP         1 TEMP              0 ****  ****    0 ROOT
