@<TRIPOS>MOLECULE
0XP
   39    41     1     0     0
SMALL
bcc


@<TRIPOS>ATOM
      1 C1         -0.1190   -1.0210    0.2790 ca        1 0XP     -0.172300
      2 C2          1.2950   -0.9670    0.2020 ca        1 0XP      0.471200
      3 N3          2.0700   -0.4140    1.1380 nb        1 0XP     -0.599000
      4 C4          1.4500    0.1300    2.2290 ca        1 0XP      0.507200
      5 C5          0.0530    0.1230    2.4210 ca        1 0XP     -0.178300
      6 C6         -0.7370   -0.4670    1.4070 ca        1 0XP      0.026600
      7 N7         -2.1930   -0.5060    1.5400 n4        1 0XP     -0.576200
      8 C8         -2.8790    0.8830    1.6380 c         1 0XP      0.612700
      9 O9         -2.2200    1.7620    2.1540 o         1 0XP     -0.377100
     10 C10        -4.2460    0.8770    1.1060 ca        1 0XP     -0.225600
     11 C11        -4.4740    0.7670   -0.2800 ca        1 0XP      0.064900
     12 C12        -5.7630    0.8790   -0.7960 ca        1 0XP     -0.080000
     13 C13        -6.8430    1.0870    0.0800 ca        1 0XP      0.116000
     14 C14        -6.6320    1.1780    1.4620 ca        1 0XP     -0.080000
     15 C15        -5.3350    1.0720    1.9760 ca        1 0XP      0.064900
     16 CL1        -5.0950    1.1650    3.6450 cl        1 0XP     -0.032400
     17 C17        -8.1590    1.2040   -0.4440 cg        1 0XP      0.165800
     18 N18        -9.2360    1.3000   -0.8730 n1        1 0XP     -0.214800
     19 CL2        -3.1690    0.5260   -1.3390 cl        1 0XP     -0.032400
     20 N20         2.3340    0.7360    3.2440 n4        1 0XP     -0.690500
     21 C21         3.2330   -0.3050    3.9500 c         1 0XP      0.613100
     22 O22         2.8060   -1.4420    3.9550 o         1 0XP     -0.376100
     23 C23         4.4560    0.2350    4.5660 cx        1 0XP     -0.302700
     24 C25         5.7850    0.0510    3.8600 cx        1 0XP     -0.076400
     25 C26         5.2560    1.4440    4.0770 cx        1 0XP      0.156600
     26 F1          4.7930    2.1650    3.0150 f         1 0XP     -0.205300
     27 H1         -0.6800   -1.4960   -0.5460 ha        1 0XP      0.200000
     28 H2          1.8330   -1.4010   -0.6730 h4        1 0XP      0.100100
     29 H3         -0.4120    0.5760    3.3140 ha        1 0XP      0.190000
     30 H4         -2.5950   -1.0050    0.7300 hn        1 0XP      0.478800
     31 H5         -5.9390    0.8120   -1.8860 ha        1 0XP      0.206000
     32 H6         -7.4880    1.3390    2.1450 ha        1 0XP      0.206000
     33 H7          1.7610    1.2130    3.9500 hn        1 0XP      0.485300
     34 H24         4.4230    0.0610    5.6700 hc        1 0XP      0.171700
     35 H8          5.8010   -0.3730    2.8370 hc        1 0XP      0.131200
     36 H9          6.6490   -0.2940    4.4640 hc        1 0XP      0.131200
     37 H27         5.7210    2.1060    4.8460 h1        1 0XP      0.154700
     38 H72        -2.4330   -1.0320    2.3930 hn        1 0XP      0.478800
     39 H202        2.9460    1.4410    2.7850 hn        1 0XP      0.485300
@<TRIPOS>BOND
     1    1    2 ar  
     2    1    6 ar  
     3    1   27 1   
     4    2    3 ar  
     5    2   28 1   
     6    3    4 ar  
     7    4    5 ar  
     8    4   20 1   
     9    5    6 ar  
    10    5   29 1   
    11    6    7 1   
    12    7    8 1   
    13    7   30 1   
    14    7   38 1   
    15    8    9 2   
    16    8   10 1   
    17   10   11 ar  
    18   10   15 ar  
    19   11   12 ar  
    20   11   19 1   
    21   12   13 ar  
    22   12   31 1   
    23   13   14 ar  
    24   13   17 1   
    25   14   15 ar  
    26   14   32 1   
    27   15   16 1   
    28   17   18 3   
    29   20   21 1   
    30   20   33 1   
    31   20   39 1   
    32   21   22 2   
    33   21   23 1   
    34   23   24 1   
    35   23   25 1   
    36   23   34 1   
    37   24   25 1   
    38   24   35 1   
    39   24   36 1   
    40   25   26 1   
    41   25   37 1   
@<TRIPOS>SUBSTRUCTURE
     1 0XP         1 TEMP              0 ****  ****    0 ROOT
