@<TRIPOS>MOLECULE
0XP
   37    30     1     0     0
SMALL
bcc


@<TRIPOS>ATOM
      1 C1          0.9880    0.7570   -2.1280 c1        1 0XP     -0.234000
      2 C2          2.3710    0.6900   -2.2680 c1        1 0XP     -0.021000
      3 N3          3.1700    0.6260   -1.1580 n1        1 0XP     -0.155000
      4 C4          2.6100    0.6270    0.0900 c1        1 0XP      0.091500
      5 C5          1.2260    0.6930    0.2330 c1        1 0XP     -0.188500
      6 C6          0.4250    0.7570   -0.8770 c1        1 0XP      0.135000
      7 N7         -1.0110    0.7340   -0.7320 n         1 0XP     -0.316000
      8 C8         -1.8130   -0.0560   -1.6320 c2        1 0XP      0.362000
      9 O9         -1.2780   -0.7050   -2.5160 o         1 0XP     -0.302000
     10 C10        -3.3400   -0.0580   -1.4970 c1        1 0XP     -0.105000
     11 C11        -3.9290   -0.4250   -0.2950 c1        1 0XP     -0.033000
     12 C12        -5.3140   -0.5200   -0.1980 c1        1 0XP     -0.095000
     13 C13        -6.1080   -0.2470   -1.3050 c1        1 0XP      0.091500
     14 C14        -5.5190    0.1210   -2.5090 c1        1 0XP     -0.188500
     15 C15        -4.1360    0.2150   -2.6050 c1        1 0XP     -0.033000
     16 CL1        -3.3930    0.6200   -4.1340 cl        1 0XP      0.032000
     17 C17        -7.6210   -0.3190   -1.1910 c1        1 0XP     -0.109000
     18 N18        -8.7610   -0.3720   -1.1050 n1        1 0XP     -0.004000
     19 CL2        -2.9290   -0.8630    1.0670 cl        1 0XP      0.034000
     20 N20         3.4460    0.4720    1.2520 n2        1 0XP     -0.336000
     21 C21         4.3230   -0.6630    1.3580 c1        1 0XP      0.349000
     22 O22         4.3560   -1.4910    0.4630 o         1 0XP     -0.299000
     23 C23         5.4050   -0.7700    2.6400 cu        1 0XP     -0.219000
     24 C25         4.8370    0.0260    3.5030 cx        1 0XP     -0.211000
     25 C26         4.5600   -1.2060    3.6520 cx        1 0XP      0.013000
     26 F1          2.5160   -1.1080    3.6090 f         1 0XP     -0.142000
     27 H1          0.4160    0.8030   -2.9230 ha        1 0XP      0.183000
     28 H2          2.7740    0.6900   -3.1620 ha        1 0XP      0.168000
     29 H3          0.8250    0.6930    1.1270 ha        1 0XP      0.155000
     30 H4         -1.4110    1.2130   -0.0640 hn        1 0XP      0.239000
     31 H5         -5.7300   -0.7800    0.6520 ha        1 0XP      0.170000
     32 H6         -6.0800    0.3140   -3.2910 ha        1 0XP      0.155000
     33 H7          3.3490    1.0330    1.9540 hn        1 0XP      0.245000
     34 H24         6.2500   -0.9620    2.1760 ha        1 0XP      0.163000
     35 H8          4.1120    0.5770    3.1490 hc        1 0XP      0.132500
     36 H9          5.4360    0.4080    4.1810 hc        1 0XP      0.132500
     37 H27         4.9760   -1.5250    4.4830 h1        1 0XP      0.143000
@<TRIPOS>BOND
     1    1    6 1   
     2    1   27 1   
     3    2    3 1   
     4    2   28 1   
     5    4    5 1   
     6    5   29 1   
     7    6    7 1   
     8    7    8 1   
     9    7   30 1   
    10    8    9 1   
    11    8   10 1   
    12   10   15 1   
    13   11   12 1   
    14   11   19 1   
    15   12   31 1   
    16   13   14 1   
    17   14   32 1   
    18   15   16 1   
    19   17   18 1   
    20   20   21 1   
    21   20   33 1   
    22   21   22 1   
    23   23   24 1   
    24   23   25 1   
    25   23   34 1   
    26   24   25 1   
    27   24   35 1   
    28   24   36 1   
    29   25   26 1   
    30   25   37 1   
@<TRIPOS>SUBSTRUCTURE
     1 0XP         1 TEMP              0 ****  ****    0 ROOT
