@<TRIPOS>MOLECULE
0XR
   27    21     1     0     0
SMALL
bcc


@<TRIPOS>ATOM
      1 C5'        -3.7360    2.6870   -1.3180 c3        1 0XR     -0.218000
      2 C4'        -2.6570    1.7120   -1.7380 c3        1 0XR     -0.012000
      3 O2'        -2.3140    0.8920   -0.6450 os        1 0XR     -0.277000
      4 C3'        -1.2460    0.0150   -0.9040 c1        1 0XR      0.341000
      5 O1'        -0.1960    0.4480   -1.3360 o         1 0XR     -0.351000
      6 C2'        -1.4190   -1.4720   -0.6860 c1        1 0XR     -0.112500
      7 C1'        -0.4970   -2.1630    0.0160 c1        1 0XR     -0.112500
      8 C1          0.7110   -1.4500    0.5860 c1        1 0XR     -0.074000
      9 C2          1.8900   -1.3980   -0.1420 c1        1 0XR     -0.141000
     10 C6          0.6670   -0.9330    1.8710 c1        1 0XR     -0.113000
     11 C5          1.8010   -0.3640    2.4290 c1        1 0XR     -0.141000
     12 C4          2.9800   -0.3120    1.7020 c1        1 0XR      0.033500
     13 O4          4.1380    0.2400    2.2780 o         1 0XR     -0.254500
     14 C3          3.0240   -0.8290    0.4160 c1        1 0XR      0.033500
     15 O3          4.2370   -0.8330   -0.2980 o         1 0XR     -0.254500
     16 H1         -3.9680    3.2640   -2.0760 hc        1 0XR      0.087000
     17 H2         -4.5310    2.1910   -1.0300 hc        1 0XR      0.087000
     18 H3         -3.4080    3.2380   -0.5770 hc        1 0XR      0.087000
     19 H4         -2.9890    1.1550   -2.4730 h1        1 0XR      0.091500
     20 H5         -1.8670    2.2080   -2.0350 h1        1 0XR      0.091500
     21 H6         -2.1980   -1.9320   -1.0530 ha        1 0XR      0.144500
     22 H8         -0.6080   -3.1220    0.1570 ha        1 0XR      0.144500
     23 H10         1.9210   -1.7610   -1.0470 ha        1 0XR      0.161500
     24 H11        -0.1630   -0.9700    2.3840 ha        1 0XR      0.136000
     25 H12         1.7700   -0.0010    3.3340 ha        1 0XR      0.161500
     26 H13         4.0250    1.1150    2.3920 ho        1 0XR      0.231500
     27 H14         4.6310   -1.6260   -0.2070 ho        1 0XR      0.231500
@<TRIPOS>BOND
     1    1    2 1   
     2    1   16 1   
     3    1   17 1   
     4    1   18 1   
     5    2    3 1   
     6    2   19 1   
     7    2   20 1   
     8    3    4 1   
     9    4    5 1   
    10    6    7 1   
    11    6   21 1   
    12    7   22 1   
    13    8   10 1   
    14    9   14 1   
    15    9   23 1   
    16   10   24 1   
    17   11   12 1   
    18   11   25 1   
    19   12   14 1   
    20   13   26 1   
    21   15   27 1   
@<TRIPOS>SUBSTRUCTURE
     1 0XR         1 TEMP              0 ****  ****    0 ROOT
