@<TRIPOS>MOLECULE
0XR
   27    27     1     0     0
SMALL
bcc


@<TRIPOS>ATOM
      1 C5'         1.3200   -0.3150   -0.2910 c3        1 0XR     -0.100100
      2 C4'         1.5730   -0.5700    1.1750 c3        1 0XR      0.139400
      3 O2'         2.2730    0.5860    1.6680 os        1 0XR     -0.438900
      4 C3'         2.6220    0.5690    2.9930 c         1 0XR      0.642300
      5 O1'         2.2910   -0.4150    3.6610 o         1 0XR     -0.549000
      6 C2'         3.2990    1.8040    3.4010 ce        1 0XR     -0.205200
      7 C1'         4.4470    1.9120    4.0790 cf        1 0XR     -0.026200
      8 C1          5.3220    0.8610    4.5740 ca        1 0XR     -0.089800
      9 C2          6.7080    1.0380    4.4300 ca        1 0XR     -0.117000
     10 C6          4.8290   -0.2800    5.2180 ca        1 0XR     -0.097000
     11 C5          5.7010   -1.2500    5.7100 ca        1 0XR     -0.176000
     12 C4          7.0790   -1.0830    5.5580 ca        1 0XR      0.055100
     13 O4          8.0120   -1.9910    6.0120 oh        1 0XR     -0.515100
     14 C3          7.5880    0.0660    4.9130 ca        1 0XR      0.103100
     15 O3          8.9340    0.2880    4.7360 oh        1 0XR     -0.495100
     16 H1          2.2840   -0.1740   -0.8360 hc        1 0XR      0.048033
     17 H2          0.7790   -1.1900   -0.7240 hc        1 0XR      0.048033
     18 H3          0.7020    0.6040   -0.4290 hc        1 0XR      0.048033
     19 H4          0.6180   -0.6860    1.7520 h1        1 0XR      0.051200
     20 H5          2.2130   -1.4760    1.3400 h1        1 0XR      0.051200
     21 H6          2.7700    2.7130    3.0610 ha        1 0XR      0.155000
     22 H8          4.8270    2.9340    4.2840 ha        1 0XR      0.136000
     23 H10         7.1160    1.9300    3.9340 ha        1 0XR      0.154000
     24 H11         3.7400   -0.4200    5.3340 ha        1 0XR      0.170000
     25 H12         5.3050   -2.1430    6.2140 ha        1 0XR      0.141000
     26 H13         7.5350   -2.7330    6.4090 ho        1 0XR      0.432000
     27 H14         9.4120   -0.4690    5.1090 ho        1 0XR      0.437000
@<TRIPOS>BOND
     1    1    2 1   
     2    1   16 1   
     3    1   17 1   
     4    1   18 1   
     5    2    3 1   
     6    2   19 1   
     7    2   20 1   
     8    3    4 1   
     9    4    5 2   
    10    4    6 1   
    11    6    7 2   
    12    6   21 1   
    13    7    8 1   
    14    7   22 1   
    15    8    9 ar  
    16    8   10 ar  
    17    9   14 ar  
    18    9   23 1   
    19   10   11 ar  
    20   10   24 1   
    21   11   12 ar  
    22   11   25 1   
    23   12   13 1   
    24   12   14 ar  
    25   13   26 1   
    26   14   15 1   
    27   15   27 1   
@<TRIPOS>SUBSTRUCTURE
     1 0XR         1 TEMP              0 ****  ****    0 ROOT
