@<TRIPOS>MOLECULE
0XR
   27    27     1     0     0
SMALL
bcc


@<TRIPOS>ATOM
      1 C5'         1.2240   -0.9630    0.0430 c3        1 0XR     -0.100100
      2 C4'         2.6630   -0.8030    0.4690 c3        1 0XR      0.139400
      3 O2'         2.7100    0.3790    1.2880 os        1 0XR     -0.437900
      4 C3'         3.9330    0.7180    1.8020 c         1 0XR      0.644300
      5 O1'         4.8960    0.0040    1.5070 o         1 0XR     -0.554000
      6 C2'         3.8770    1.9520    2.5920 ce        1 0XR     -0.208200
      7 C1'         4.3690    2.1530    3.8200 cf        1 0XR     -0.024200
      8 C1          5.0660    1.2240    4.6940 ca        1 0XR     -0.089800
      9 C2          6.0550    0.3550    4.2150 ca        1 0XR     -0.155000
     10 C6          4.7610    1.2340    6.0630 ca        1 0XR     -0.105000
     11 C5          5.4130    0.3770    6.9430 ca        1 0XR     -0.194000
     12 C4          6.3940   -0.5010    6.4700 ca        1 0XR      0.114100
     13 O4          7.0790   -1.3730    7.2810 oh        1 0XR     -0.471100
     14 C3          6.7170   -0.5080    5.0920 ca        1 0XR      0.098100
     15 O3          7.6990   -1.3790    4.6820 oh        1 0XR     -0.477100
     16 H1          1.1340   -1.8730   -0.5970 hc        1 0XR      0.048367
     17 H2          0.8850   -0.0720   -0.5380 hc        1 0XR      0.048367
     18 H3          0.5610   -1.0740    0.9340 hc        1 0XR      0.048367
     19 H4          3.3480   -0.6600   -0.4070 h1        1 0XR      0.051700
     20 H5          3.0210   -1.6750    1.0750 h1        1 0XR      0.051700
     21 H6          3.3330    2.7630    2.0750 ha        1 0XR      0.155000
     22 H8          4.2140    3.1530    4.2750 ha        1 0XR      0.134000
     23 H10         6.3100    0.3440    3.1420 ha        1 0XR      0.171000
     24 H11         3.9920    1.9220    6.4470 ha        1 0XR      0.135000
     25 H12         5.1590    0.3860    8.0130 ha        1 0XR      0.138000
     26 H13         6.7550   -1.2470    8.1850 ho        1 0XR      0.416000
     27 H14         7.7430   -1.3340    3.7140 ho        1 0XR      0.423000
@<TRIPOS>BOND
     1    1    2 1   
     2    1   16 1   
     3    1   17 1   
     4    1   18 1   
     5    2    3 1   
     6    2   19 1   
     7    2   20 1   
     8    3    4 1   
     9    4    5 2   
    10    4    6 1   
    11    6    7 2   
    12    6   21 1   
    13    7    8 1   
    14    7   22 1   
    15    8    9 ar  
    16    8   10 ar  
    17    9   14 ar  
    18    9   23 1   
    19   10   11 ar  
    20   10   24 1   
    21   11   12 ar  
    22   11   25 1   
    23   12   13 1   
    24   12   14 ar  
    25   13   26 1   
    26   14   15 1   
    27   15   27 1   
@<TRIPOS>SUBSTRUCTURE
     1 0XR         1 TEMP              0 ****  ****    0 ROOT
