@<TRIPOS>MOLECULE
0XR
   27    27     1     0     0
SMALL
bcc


@<TRIPOS>ATOM
      1 C5'         1.3510   -0.3430   -0.3130 c3        1 0XR     -0.100100
      2 C4'         1.5700   -0.5280    1.1680 c3        1 0XR      0.139400
      3 O2'         2.3330    0.6110    1.6070 os        1 0XR     -0.438900
      4 C3'         2.6640    0.6480    2.9360 c         1 0XR      0.642300
      5 O1'         2.2660   -0.2750    3.6530 o         1 0XR     -0.549000
      6 C2'         3.4100    1.8620    3.2840 ce        1 0XR     -0.205200
      7 C1'         4.5540    1.9390    3.9710 cf        1 0XR     -0.026200
      8 C1          5.3590    0.8680    4.5380 ca        1 0XR     -0.089800
      9 C2          6.7540    0.9530    4.4050 ca        1 0XR     -0.117000
     10 C6          4.7900   -0.2030    5.2370 ca        1 0XR     -0.097000
     11 C5          5.5960   -1.1940    5.7960 ca        1 0XR     -0.176000
     12 C4          6.9840   -1.1190    5.6550 ca        1 0XR      0.055100
     13 O4          7.8560   -2.0530    6.1730 oh        1 0XR     -0.515100
     14 C3          7.5690   -0.0400    4.9540 ca        1 0XR      0.103100
     15 O3          8.9270    0.0910    4.7850 oh        1 0XR     -0.495100
     16 H1          2.3290   -0.2920   -0.8510 hc        1 0XR      0.048033
     17 H2          0.7630   -1.2070   -0.7040 hc        1 0XR      0.048033
     18 H3          0.7920    0.6020   -0.5130 hc        1 0XR      0.048033
     19 H4          0.6030   -0.5530    1.7360 h1        1 0XR      0.051200
     20 H5          2.1510   -1.4600    1.3940 h1        1 0XR      0.051200
     21 H6          2.9410    2.7800    2.8850 ha        1 0XR      0.155000
     22 H8          4.9930    2.9470    4.1250 ha        1 0XR      0.136000
     23 H10         7.2210    1.7900    3.8650 ha        1 0XR      0.154000
     24 H11         3.6940   -0.2710    5.3450 ha        1 0XR      0.170000
     25 H12         5.1410   -2.0320    6.3420 ha        1 0XR      0.141000
     26 H13         7.3300   -2.7420    6.6040 ho        1 0XR      0.432000
     27 H14         9.3550   -0.6700    5.2070 ho        1 0XR      0.437000
@<TRIPOS>BOND
     1    1    2 1   
     2    1   16 1   
     3    1   17 1   
     4    1   18 1   
     5    2    3 1   
     6    2   19 1   
     7    2   20 1   
     8    3    4 1   
     9    4    5 2   
    10    4    6 1   
    11    6    7 2   
    12    6   21 1   
    13    7    8 1   
    14    7   22 1   
    15    8    9 ar  
    16    8   10 ar  
    17    9   14 ar  
    18    9   23 1   
    19   10   11 ar  
    20   10   24 1   
    21   11   12 ar  
    22   11   25 1   
    23   12   13 1   
    24   12   14 ar  
    25   13   26 1   
    26   14   15 1   
    27   15   27 1   
@<TRIPOS>SUBSTRUCTURE
     1 0XR         1 TEMP              0 ****  ****    0 ROOT
