@<TRIPOS>MOLECULE
0XR
   27    27     1     0     0
SMALL
bcc


@<TRIPOS>ATOM
      1 C5'         6.0870    1.0030   -0.1500 c3        1 0XR     -0.100100
      2 C4'         5.1440   -0.1690   -0.0300 c3        1 0XR      0.139400
      3 O2'         3.8140    0.3820   -0.0530 os        1 0XR     -0.438900
      4 C3'         2.7840   -0.5150    0.0450 c         1 0XR      0.632300
      5 O1'         3.0640   -1.7150    0.1450 o         1 0XR     -0.552000
      6 C2'         1.4670    0.1260    0.0120 ce        1 0XR     -0.217200
      7 C1'         0.3460   -0.6080    0.1090 cf        1 0XR     -0.018200
      8 C1         -1.0050   -0.0780    0.0880 ca        1 0XR     -0.085800
      9 C2         -2.0740   -0.9780   -0.0620 ca        1 0XR     -0.145000
     10 C6         -1.2740    1.2920    0.2180 ca        1 0XR     -0.097000
     11 C5         -2.5800    1.7740    0.1960 ca        1 0XR     -0.142000
     12 C4         -3.6480    0.8800    0.0410 ca        1 0XR      0.131100
     13 O4         -4.9160    1.4010    0.0230 oh        1 0XR     -0.489100
     14 C3         -3.3830   -0.5030   -0.0880 ca        1 0XR      0.035100
     15 O3         -4.4880   -1.3170   -0.2350 oh        1 0XR     -0.516100
     16 H1          5.9080    1.5550   -1.1040 hc        1 0XR      0.048033
     17 H2          5.9420    1.7130    0.6990 hc        1 0XR      0.048033
     18 H3          7.1370    0.6260   -0.1370 hc        1 0XR      0.048033
     19 H4          5.2510   -0.8850   -0.8860 h1        1 0XR      0.051700
     20 H5          5.2850   -0.7250    0.9330 h1        1 0XR      0.051700
     21 H6          1.4760    1.2210   -0.1010 ha        1 0XR      0.155000
     22 H8          0.4260   -1.7090    0.2080 ha        1 0XR      0.147000
     23 H10        -1.8790   -2.0560   -0.1610 ha        1 0XR      0.141000
     24 H11        -0.4460    2.0050    0.3460 ha        1 0XR      0.142000
     25 H12        -2.7910    2.8480    0.2990 ha        1 0XR      0.158000
     26 H13        -5.5420    0.6680   -0.0880 ho        1 0XR      0.441000
     27 H14        -4.1760   -2.2300   -0.3110 ho        1 0XR      0.432000
@<TRIPOS>BOND
     1    1    2 1   
     2    1   16 1   
     3    1   17 1   
     4    1   18 1   
     5    2    3 1   
     6    2   19 1   
     7    2   20 1   
     8    3    4 1   
     9    4    5 2   
    10    4    6 1   
    11    6    7 2   
    12    6   21 1   
    13    7    8 1   
    14    7   22 1   
    15    8    9 ar  
    16    8   10 ar  
    17    9   14 ar  
    18    9   23 1   
    19   10   11 ar  
    20   10   24 1   
    21   11   12 ar  
    22   11   25 1   
    23   12   13 1   
    24   12   14 ar  
    25   13   26 1   
    26   14   15 1   
    27   15   27 1   
@<TRIPOS>SUBSTRUCTURE
     1 0XR         1 TEMP              0 ****  ****    0 ROOT
