@<TRIPOS>MOLECULE
0XS
   25    20     1     0     0
SMALL
bcc


@<TRIPOS>ATOM
      1 C4         -2.0060    0.0110   -0.2300 c1        1 0XS     -0.019000
      2 C6         -2.6500   -0.0090    3.5220 c3        1 0XS      0.475000
      3 C7         -0.6180    0.0110   -0.2300 c1        1 0XS     -0.184000
      4 C8          0.0680    0.0110    0.9610 c1        1 0XS      0.123000
      5 C12         0.0780    0.0110   -1.4310 c1        1 0XS     -0.006000
      6 C14         1.4460    0.0110   -1.4260 c1        1 0XS     -0.206000
      7 C15         2.1380    0.0110   -0.2190 c1        1 0XS      0.207000
      8 O18         3.5040   -0.0170   -2.5970 o         1 0XS     -0.380000
      9 C16         2.2920   -0.0190   -2.6810 c2        1 0XS      0.355000
     10 N19         1.6690   -0.0430   -3.9550 n         1 0XS     -0.423000
     11 C2         -2.6890    0.0110    0.9550 c1        1 0XS     -0.234000
     12 BR1        -4.5670    0.0170    0.5990 br        1 0XS      0.105000
     13 N17         3.3910    0.0160    0.4470 n2        1 0XS     -0.335000
     14 N13         1.4530    0.0110    0.9620 n1        1 0XS     -0.197000
     15 N5         -0.6270    0.0110    2.1600 n1        1 0XS     -0.084000
     16 C3         -1.9920    0.0110    2.1600 c1        1 0XS     -0.006000
     17 F9         -1.7090    0.0520    4.4730 f         1 0XS     -0.148333
     18 F10        -3.4690    1.0440    3.6370 f         1 0XS     -0.148333
     19 F11        -3.3540   -1.1390    3.6610 f         1 0XS     -0.148333
     20 H1         -2.4940    0.0440   -1.0750 ha        1 0XS      0.157000
     21 H2         -0.4070    0.0110   -2.2770 ha        1 0XS      0.149000
     22 H3          1.8160    0.6340   -4.5480 hn        1 0XS      0.232000
     23 H4          1.1360   -0.7450   -4.1890 hn        1 0XS      0.232000
     24 H5          3.4380    0.2420    1.3300 hn        1 0XS      0.243000
     25 H6          4.1510   -0.1980   -0.0090 hn        1 0XS      0.243000
@<TRIPOS>BOND
     1    1    3 1   
     2    1   20 1   
     3    2   16 1   
     4    2   17 1   
     5    2   18 1   
     6    2   19 1   
     7    3    4 1   
     8    4   15 1   
     9    5    6 1   
    10    5   21 1   
    11    6    9 1   
    12    7   14 1   
    13    8    9 1   
    14    9   10 1   
    15   10   22 1   
    16   10   23 1   
    17   11   12 1   
    18   11   16 1   
    19   13   24 1   
    20   13   25 1   
@<TRIPOS>SUBSTRUCTURE
     1 0XS         1 TEMP              0 ****  ****    0 ROOT
