@<TRIPOS>MOLECULE
0XS
   26    27     1     0     0
SMALL
bcc


@<TRIPOS>ATOM
      1 C4         -0.0040   -0.0290   -0.0180 ca        1 0XS     -0.037000
      2 C6         -0.6570    0.0540    3.7860 c3        1 0XS      0.598600
      3 C7          1.4270   -0.0180   -0.0290 ca        1 0XS     -0.248300
      4 C8          2.1240    0.0180    1.2480 ca        1 0XS      0.765300
      5 C12         2.1820   -0.0390   -1.1920 ca        1 0XS      0.025000
      6 C14         3.5870   -0.0270   -1.1480 ca        1 0XS     -0.401900
      7 C15         4.2190    0.0100    0.1730 ca        1 0XS      0.784200
      8 O18         5.6170   -0.0400   -2.4820 o         1 0XS     -0.468100
      9 C16         4.3980   -0.0480   -2.3330 c         1 0XS      0.589700
     10 N19         3.6790   -0.0890   -3.6800 nz        1 0XS     -0.761400
     11 C2         -0.6970   -0.0070    1.1620 ca        1 0XS     -0.139200
     12 Br1        -2.5580   -0.0230    1.0940 br        1 0XS      0.019900
     13 N17         5.5680    0.0250    0.3310 nv        1 0XS     -0.917500
     14 N13         3.4720    0.0300    1.3280 nb        1 0XS     -0.694000
     15 N5          1.3890    0.0400    2.4460 nb        1 0XS     -0.606000
     16 C3          0.0770    0.0280    2.3960 ca        1 0XS      0.453600
     17 F9          0.1570    0.0860    4.8840 f         1 0XS     -0.202300
     18 F10        -1.4630    1.1510    3.9290 f         1 0XS     -0.202300
     19 F11        -1.4460   -1.0470    3.9800 f         1 0XS     -0.202300
     20 H1         -0.5290   -0.0550   -0.9890 ha        1 0XS      0.164000
     21 H2          1.6330   -0.0650   -2.1480 ha        1 0XS      0.126000
     22 H3          3.0860    0.7380   -3.7890 hn        1 0XS      0.467133
     23 H4          4.3800   -0.1020   -4.4330 hn        1 0XS      0.467133
     24 H5          5.9650    0.0490    1.2470 hn        1 0XS      0.476300
     25 H6          6.1840    0.0120   -0.4480 hn        1 0XS      0.476300
     26 H193        3.1000   -0.9300   -3.7460 hn        1 0XS      0.467133
@<TRIPOS>BOND
     1    1    3 ar  
     2    1   11 ar  
     3    1   20 1   
     4    2   16 1   
     5    2   17 1   
     6    2   18 1   
     7    2   19 1   
     8    3    4 ar  
     9    3    5 ar  
    10    4   14 ar  
    11    4   15 ar  
    12    5    6 ar  
    13    5   21 1   
    14    6    7 ar  
    15    6    9 1   
    16    7   13 1   
    17    7   14 ar  
    18    8    9 2   
    19    9   10 1   
    20   10   22 1   
    21   10   23 1   
    22   10   26 1   
    23   11   12 1   
    24   11   16 ar  
    25   13   24 1   
    26   13   25 1   
    27   15   16 ar  
@<TRIPOS>SUBSTRUCTURE
     1 0XS         1 TEMP              0 ****  ****    0 ROOT
