@<TRIPOS>MOLECULE
0XS
   27    28     1     0     0
SMALL
bcc


@<TRIPOS>ATOM
      1 C4         -0.0360   -0.0170   -0.0100 ca        1 0XS     -0.051000
      2 C6         -0.6700    0.0330    3.8250 c3        1 0XS      0.609600
      3 C7          1.3840   -0.0130   -0.0230 ca        1 0XS     -0.182300
      4 C8          2.0660    0.0060    1.2510 ca        1 0XS      0.707300
      5 C12         2.1500   -0.0260   -1.2070 ca        1 0XS      0.051000
      6 C14         3.5420   -0.0210   -1.1590 ca        1 0XS     -0.326900
      7 C15         4.1380   -0.0020    0.1680 ca        1 0XS      0.551200
      8 O18         5.6160   -0.0310   -2.3760 o         1 0XS     -0.450100
      9 C16         4.3880   -0.0350   -2.3450 c         1 0XS      0.579700
     10 N19         3.7460   -0.0550   -3.7060 n4        1 0XS     -0.745400
     11 C2         -0.7280   -0.0030    1.1900 ca        1 0XS     -0.082200
     12 BR1        -2.5850   -0.0090    1.1250 br        1 0XS      0.098900
     13 N17         5.6120    0.0050    0.3350 n4        1 0XS     -0.832300
     14 N13         3.4540    0.0110    1.3020 nb        1 0XS     -0.566000
     15 N5          1.3730    0.0200    2.4430 nb        1 0XS     -0.570000
     16 C3          0.0440    0.0160    2.4120 ca        1 0XS      0.448600
     17 F9          0.1750    0.0490    4.8960 f         1 0XS     -0.183633
     18 F10        -1.4610    1.1350    3.9740 f         1 0XS     -0.183633
     19 F11        -1.4550   -1.0710    4.0030 f         1 0XS     -0.183633
     20 H1         -0.5790   -0.0310   -0.9740 ha        1 0XS      0.190000
     21 H2          1.5960   -0.0400   -2.1640 ha        1 0XS      0.164000
     22 H3          3.1620    0.7800   -3.8440 hn        1 0XS      0.492133
     23 H4          3.1670   -0.8960   -3.8210 hn        1 0XS      0.492133
     24 H5          6.0100   -0.8380   -0.1030 hn        1 0XS      0.494800
     25 H6          6.0050    0.8380   -0.1260 hn        1 0XS      0.494800
     26 H193        4.4870   -0.0620   -4.4310 hn        1 0XS      0.492133
     27 H173        5.8710    0.0190    1.3400 hn        1 0XS      0.494800
@<TRIPOS>BOND
     1    1    3 ar  
     2    1   11 ar  
     3    1   20 1   
     4    2   16 1   
     5    2   17 1   
     6    2   18 1   
     7    2   19 1   
     8    3    4 ar  
     9    3    5 ar  
    10    4   14 ar  
    11    4   15 ar  
    12    5    6 ar  
    13    5   21 1   
    14    6    7 ar  
    15    6    9 1   
    16    7   13 1   
    17    7   14 ar  
    18    8    9 2   
    19    9   10 1   
    20   10   22 1   
    21   10   23 1   
    22   10   26 1   
    23   11   12 1   
    24   11   16 ar  
    25   13   24 1   
    26   13   25 1   
    27   13   27 1   
    28   15   16 ar  
@<TRIPOS>SUBSTRUCTURE
     1 0XS         1 TEMP              0 ****  ****    0 ROOT
