@<TRIPOS>MOLECULE
0XS
   25    26     1     0     0
SMALL
bcc


@<TRIPOS>ATOM
      1 C4         -0.0950    1.2890    0.1830 ca        1 0XS     -0.019000
      2 C6         -2.6870   -1.5390   -0.1260 c3        1 0XS      0.594600
      3 C7          1.0960    0.5310    0.1200 ca        1 0XS     -0.249300
      4 C8          1.0040   -0.8990   -0.0160 ca        1 0XS      0.714300
      5 C12         2.3850    1.1170    0.1880 ca        1 0XS     -0.006000
      6 C14         3.5060    0.3290    0.1210 ca        1 0XS     -0.291900
      7 C15         3.3410   -1.1190   -0.0070 ca        1 0XS      0.728200
      8 O18         5.7670    0.4240    0.9250 o         1 0XS     -0.619100
      9 C16         4.8680    0.9220    0.2120 c         1 0XS      0.681700
     10 N19         5.1180    2.0630   -0.5060 n         1 0XS     -0.663000
     11 C2         -1.3250    0.6650    0.1090 ca        1 0XS     -0.159200
     12 BR1        -2.8520    1.7340    0.1990 br        1 0XS     -0.035100
     13 N17         4.4560   -1.9200   -0.1420 nh        1 0XS     -0.937500
     14 N13         2.1180   -1.7040   -0.0650 nb        1 0XS     -0.723000
     15 N5         -0.2440   -1.5150   -0.0910 nb        1 0XS     -0.610000
     16 C3         -1.3330   -0.7660   -0.0320 ca        1 0XS      0.416600
     17 F9         -2.5980   -2.9000   -0.2620 f         1 0XS     -0.219633
     18 F10        -3.4790   -1.3760    0.9800 f         1 0XS     -0.219633
     19 F11        -3.4510   -1.1590   -1.1990 f         1 0XS     -0.219633
     20 H1         -0.0180    2.3840    0.2920 ha        1 0XS      0.157000
     21 H2          2.4610    2.2110    0.3080 ha        1 0XS      0.149000
     22 H3          6.0240    2.4620   -0.4810 hn        1 0XS      0.318500
     23 H4          4.4550    2.4220   -1.1430 hn        1 0XS      0.318500
     24 H5          4.3340   -2.9070   -0.1220 hn        1 0XS      0.447800
     25 H6          5.3190   -1.5640    0.2070 hn        1 0XS      0.447800
@<TRIPOS>BOND
     1    1    3 ar  
     2    1   11 ar  
     3    1   20 1   
     4    2   16 1   
     5    2   17 1   
     6    2   18 1   
     7    2   19 1   
     8    3    4 ar  
     9    3    5 ar  
    10    4   14 ar  
    11    4   15 ar  
    12    5    6 ar  
    13    5   21 1   
    14    6    7 ar  
    15    6    9 1   
    16    7   13 1   
    17    7   14 ar  
    18    8    9 2   
    19    9   10 1   
    20   10   22 1   
    21   10   23 1   
    22   11   12 1   
    23   11   16 ar  
    24   13   24 1   
    25   13   25 1   
    26   15   16 ar  
@<TRIPOS>SUBSTRUCTURE
     1 0XS         1 TEMP              0 ****  ****    0 ROOT
