@<TRIPOS>MOLECULE
0XS
   26    27     1     0     0
SMALL
bcc


@<TRIPOS>ATOM
      1 C4         -0.0040   -0.0330   -0.0200 ca        1 0XS     -0.037000
      2 C6         -0.6550    0.0560    3.7850 c3        1 0XS      0.598600
      3 C7          1.4270   -0.0170   -0.0310 ca        1 0XS     -0.248300
      4 C8          2.1240    0.0230    1.2450 ca        1 0XS      0.765300
      5 C12         2.1810   -0.0390   -1.1940 ca        1 0XS      0.025000
      6 C14         3.5860   -0.0220   -1.1510 ca        1 0XS     -0.401900
      7 C15         4.2190    0.0200    0.1690 ca        1 0XS      0.784200
      8 O18         5.6160   -0.0300   -2.4870 o         1 0XS     -0.468100
      9 C16         4.3970   -0.0430   -2.3370 c         1 0XS      0.589700
     10 N19         3.6770   -0.0920   -3.6830 n4        1 0XS     -0.761400
     11 C2         -0.6960   -0.0110    1.1610 ca        1 0XS     -0.139200
     12 BR1        -2.5570   -0.0330    1.0940 br        1 0XS      0.019900
     13 N17         5.5680    0.0390    0.3270 nh        1 0XS     -0.917500
     14 N13         3.4730    0.0400    1.3250 nb        1 0XS     -0.694000
     15 N5          1.3910    0.0450    2.4440 nb        1 0XS     -0.606000
     16 C3          0.0790    0.0290    2.3950 ca        1 0XS      0.453600
     17 F9          0.1600    0.0920    4.8830 f         1 0XS     -0.202300
     18 F10        -1.4640    1.1500    3.9270 f         1 0XS     -0.202300
     19 F11        -1.4390   -1.0470    3.9820 f         1 0XS     -0.202300
     20 H1         -0.5290   -0.0630   -0.9900 ha        1 0XS      0.164000
     21 H2          1.6320   -0.0690   -2.1500 ha        1 0XS      0.126000
     22 H3          4.3780   -0.1060   -4.4370 hn        1 0XS      0.467133
     23 H4          3.0810    0.7310   -3.7950 hn        1 0XS      0.467133
     24 H5          5.9660    0.0670    1.2420 hn        1 0XS      0.476300
     25 H6          6.1830    0.0280   -0.4530 hn        1 0XS      0.476300
     26 H193        3.1020   -0.9360   -3.7460 hn        1 0XS      0.467133
@<TRIPOS>BOND
     1    1    3 ar  
     2    1   11 ar  
     3    1   20 1   
     4    2   16 1   
     5    2   17 1   
     6    2   18 1   
     7    2   19 1   
     8    3    4 ar  
     9    3    5 ar  
    10    4   14 ar  
    11    4   15 ar  
    12    5    6 ar  
    13    5   21 1   
    14    6    7 ar  
    15    6    9 1   
    16    7   13 1   
    17    7   14 ar  
    18    8    9 2   
    19    9   10 1   
    20   10   22 1   
    21   10   23 1   
    22   10   26 1   
    23   11   12 1   
    24   11   16 ar  
    25   13   24 1   
    26   13   25 1   
    27   15   16 ar  
@<TRIPOS>SUBSTRUCTURE
     1 0XS         1 TEMP              0 ****  ****    0 ROOT
