@<TRIPOS>MOLECULE
0XT
   25    26     1     0     0
SMALL
bcc


@<TRIPOS>ATOM
      1 C5         -0.0200    0.0040   -0.0030 ca        1 0XT      0.279300
      2 C6          1.4270    0.0030    2.3660 ca        1 0XT      0.663000
      3 C8         -0.6700   -0.0030   -1.3430 c3        1 0XT     -0.133400
      4 C10        -0.0220    0.0270    2.3090 ca        1 0XT      0.006000
      5 C11         1.3540   -0.0070    4.6950 ca        1 0XT      0.937900
      6 C12        -0.7240    0.0600    3.5990 ca        1 0XT      0.719900
      7 N4          2.1580   -0.0110    1.1750 nb        1 0XT     -0.716000
      8 N14         2.0300   -0.1190    5.9070 nv        1 0XT     -0.936500
      9 N13        -0.0390    0.0490    4.7680 nb        1 0XT     -0.851000
     10 N9          2.1160   -0.0040    3.5500 nb        1 0XT     -0.780000
     11 C2          1.4480   -0.0110    0.0500 ca        1 0XT      0.564300
     12 O1          2.0470   -0.0250   -1.1860 os        1 0XT     -0.441100
     13 C3          3.4780   -0.0430   -1.2340 c3        1 0XT      0.121700
     14 N7         -0.7140    0.0240    1.1240 nb        1 0XT     -0.595000
     15 N15        -2.0920    0.1230    3.6370 nv        1 0XT     -0.956500
     16 H1         -0.3280    0.8940   -1.9180 hc        1 0XT      0.057700
     17 H2         -0.3480   -0.9190   -1.8980 hc        1 0XT      0.057700
     18 H3         -1.7840    0.0100   -1.2740 hc        1 0XT      0.057700
     19 H4          1.5310    0.0950    6.7380 hn        1 0XT      0.436800
     20 H5          3.0090    0.0370    5.9040 hn        1 0XT      0.436800
     21 H6          3.8740   -0.9620   -0.7410 h1        1 0XT      0.055700
     22 H7          3.8960    0.8730   -0.7530 h1        1 0XT      0.055700
     23 H8          3.6880   -0.0530   -2.3330 h1        1 0XT      0.055700
     24 H9         -2.5730    0.1160    4.5030 hn        1 0XT      0.451300
     25 H10        -2.6090    0.0980    2.7940 hn        1 0XT      0.451300
@<TRIPOS>BOND
     1    1    3 1   
     2    1   11 ar  
     3    1   14 ar  
     4    2    4 ar  
     5    2    7 ar  
     6    2   10 ar  
     7    3   16 1   
     8    3   17 1   
     9    3   18 1   
    10    4    6 ar  
    11    4   14 ar  
    12    5    8 1   
    13    5    9 ar  
    14    5   10 ar  
    15    6    9 ar  
    16    6   15 1   
    17    7   11 ar  
    18    8   19 1   
    19    8   20 1   
    20   11   12 1   
    21   12   13 1   
    22   13   21 1   
    23   13   22 1   
    24   13   23 1   
    25   15   24 1   
    26   15   25 1   
@<TRIPOS>SUBSTRUCTURE
     1 0XT         1 TEMP              0 ****  ****    0 ROOT
