@<TRIPOS>MOLECULE
0XT
   25    26     1     0     0
SMALL
bcc


@<TRIPOS>ATOM
      1 C5          1.7400    1.1430    0.0190 ca        1 0XT      0.279300
      2 C6         -0.3400   -0.6950   -0.0040 ca        1 0XT      0.663000
      3 C8          2.9450    2.0170    0.0350 c3        1 0XT     -0.133400
      4 C10        -0.5370    0.7420    0.0180 ca        1 0XT      0.006000
      5 C11        -2.6460   -1.0310    0.0290 ca        1 0XT      0.937900
      6 C12        -1.9300    1.2080    0.0200 ca        1 0XT      0.719900
      7 N4          0.9610   -1.2070   -0.0260 nb        1 0XT     -0.716000
      8 N14        -3.7200   -1.9120    0.1310 nh        1 0XT     -0.936500
      9 N13        -2.9620    0.3290    0.0200 nb        1 0XT     -0.851000
     10 N9         -1.3850   -1.5810   -0.0090 nb        1 0XT     -0.780000
     11 C2          1.9450   -0.3110   -0.0140 ca        1 0XT      0.564300
     12 O1          3.2660   -0.6850   -0.0310 os        1 0XT     -0.441100
     13 C3          3.5630   -2.0850   -0.0610 c3        1 0XT      0.121700
     14 N7          0.5090    1.6290    0.0330 nb        1 0XT     -0.595000
     15 N15        -2.2070    2.5490    0.0030 nh        1 0XT     -0.956500
     16 H1          3.5580    1.8070   -0.8780 hc        1 0XT      0.057700
     17 H2          2.6830    3.1020    0.0580 hc        1 0XT      0.057700
     18 H3          3.5620    1.7700    0.9350 hc        1 0XT      0.057700
     19 H4         -3.5480   -2.8710   -0.0580 hn        1 0XT      0.436800
     20 H5         -4.6270   -1.5600   -0.0590 hn        1 0XT      0.436800
     21 H6          4.6820   -2.1000   -0.0680 h1        1 0XT      0.055700
     22 H7          3.1600   -2.5890    0.8500 h1        1 0XT      0.055700
     23 H8          3.1490   -2.5530   -0.9850 h1        1 0XT      0.055700
     24 H9         -3.1430    2.8700    0.0340 hn        1 0XT      0.451300
     25 H10        -1.4670    3.2040    0.0360 hn        1 0XT      0.451300
@<TRIPOS>BOND
     1    1    3 1   
     2    1   11 ar  
     3    1   14 ar  
     4    2    4 ar  
     5    2    7 ar  
     6    2   10 ar  
     7    3   16 1   
     8    3   17 1   
     9    3   18 1   
    10    4    6 ar  
    11    4   14 ar  
    12    5    8 1   
    13    5    9 ar  
    14    5   10 ar  
    15    6    9 ar  
    16    6   15 1   
    17    7   11 ar  
    18    8   19 1   
    19    8   20 1   
    20   11   12 1   
    21   12   13 1   
    22   13   21 1   
    23   13   22 1   
    24   13   23 1   
    25   15   24 1   
    26   15   25 1   
@<TRIPOS>SUBSTRUCTURE
     1 0XT         1 TEMP              0 ****  ****    0 ROOT
