@<TRIPOS>MOLECULE
0XT
   27    28     1     0     0
SMALL
bcc


@<TRIPOS>ATOM
      1 C5         -0.0370   -0.0030    0.0110 ca        1 0XT      0.457300
      2 C6          1.4470    0.0290    2.3680 ca        1 0XT      0.656000
      3 C8         -0.6820   -0.0190   -1.3260 c3        1 0XT     -0.184400
      4 C10        -0.0180    0.0130    2.3320 ca        1 0XT      0.156000
      5 C11         1.3470    0.0430    4.6870 ca        1 0XT      0.743900
      6 C12        -0.6860    0.0130    3.5970 ca        1 0XT      0.508900
      7 N4          2.1720    0.0300    1.1910 nb        1 0XT     -0.691000
      8 N14         2.0810    0.0600    5.9890 n4        1 0XT     -0.815300
      9 N13        -0.0330    0.0290    4.7780 nb        1 0XT     -0.688000
     10 N9          2.1170    0.0450    3.5740 nb        1 0XT     -0.586000
     11 C2          1.4630    0.0140    0.0520 ca        1 0XT      0.614300
     12 O1          2.0360    0.0120   -1.1610 os        1 0XT     -0.381100
     13 C3          3.4780    0.0280   -1.2730 c3        1 0XT      0.113700
     14 N7         -0.7200   -0.0030    1.1410 nb        1 0XT     -0.683000
     15 N15        -2.1640   -0.0030    3.6200 n4        1 0XT     -0.820300
     16 H1         -0.3300   -0.9260   -1.8890 hc        1 0XT      0.110033
     17 H2         -1.7990   -0.0310   -1.2720 hc        1 0XT      0.110033
     18 H3         -0.3510    0.8880   -1.9010 hc        1 0XT      0.110033
     19 H4          1.8350   -0.7800    6.5320 hn        1 0XT      0.499800
     20 H5          3.1020    0.0700    5.8170 hn        1 0XT      0.499800
     21 H6          3.8850    0.9590   -0.8110 h1        1 0XT      0.093367
     22 H7          3.9050   -0.8880   -0.7990 h1        1 0XT      0.093367
     23 H8          3.6180    0.0220   -2.3870 h1        1 0XT      0.093367
     24 H9         -2.5110    0.8290    3.1170 hn        1 0XT      0.496800
     25 H10        -2.4920   -0.8500    3.1280 hn        1 0XT      0.496800
     26 H143        1.8160    0.9030    6.5200 hn        1 0XT      0.499800
     27 H153       -2.5350   -0.0010    4.5820 hn        1 0XT      0.496800
@<TRIPOS>BOND
     1    1    3 1   
     2    1   11 ar  
     3    1   14 ar  
     4    2    4 ar  
     5    2    7 ar  
     6    2   10 ar  
     7    3   16 1   
     8    3   17 1   
     9    3   18 1   
    10    4    6 ar  
    11    4   14 ar  
    12    5    8 1   
    13    5    9 ar  
    14    5   10 ar  
    15    6    9 ar  
    16    6   15 1   
    17    7   11 ar  
    18    8   19 1   
    19    8   20 1   
    20    8   26 1   
    21   11   12 1   
    22   12   13 1   
    23   13   21 1   
    24   13   22 1   
    25   13   23 1   
    26   15   24 1   
    27   15   25 1   
    28   15   27 1   
@<TRIPOS>SUBSTRUCTURE
     1 0XT         1 TEMP              0 ****  ****    0 ROOT
