@<TRIPOS>MOLECULE
0XT
   25    21     1     0     0
SMALL
bcc


@<TRIPOS>ATOM
      1 C5         -0.6590    0.0960   -1.6630 c1        1 0XT     -0.078000
      2 C6          0.6910    0.0460    0.6950 c1        1 0XT      0.137000
      3 C8         -1.7110    0.1240   -2.7500 c2        1 0XT     -0.157000
      4 C10        -0.6660    0.0550    0.6830 c1        1 0XT     -0.257000
      5 C11         0.6670    0.0030    3.0600 c1        1 0XT      0.219000
      6 C12        -1.3690    0.0370    1.8800 c1        1 0XT      0.264000
      7 N4          1.3860    0.0630   -0.4840 n2        1 0XT     -0.190000
      8 N14         1.3430    0.0240    4.3080 n3        1 0XT     -0.334000
      9 N13        -0.7040    0.0110    3.0500 n1        1 0XT     -0.325000
     10 N9          1.3610    0.0200    1.8840 n1        1 0XT     -0.254000
     11 C2          0.7260    0.0880   -1.6510 c2        1 0XT      0.131000
     12 O1          1.3200    0.4320   -2.8760 os        1 0XT     -0.199000
     13 C3          2.4970   -0.2900   -3.1640 c3        1 0XT     -0.068000
     14 N7         -1.3400    0.0800   -0.5080 n2        1 0XT     -0.069000
     15 N15        -2.7540    0.0410    2.1870 n2        1 0XT     -0.354000
     16 H1         -2.0160    1.0450   -2.8860 ha        1 0XT      0.097000
     17 H2         -1.3280   -0.2210   -3.5840 ha        1 0XT      0.097000
     18 H3         -2.4710   -0.4350   -2.4830 ha        1 0XT      0.097000
     19 H4          0.9350   -0.3110    5.0540 hn        1 0XT      0.232000
     20 H5          2.1810    0.3820    4.3670 hn        1 0XT      0.232000
     21 H6          2.5820   -0.4040   -4.1350 h1        1 0XT      0.095000
     22 H7          3.2750    0.2030   -2.8230 h1        1 0XT      0.095000
     23 H8          2.4530   -1.1710   -2.7330 h1        1 0XT      0.095000
     24 H9         -3.0290    0.0770    3.0580 hn        1 0XT      0.246500
     25 H10        -3.3720    0.0060    1.5140 hn        1 0XT      0.246500
@<TRIPOS>BOND
     1    1   11 1   
     2    1   14 1   
     3    2    4 1   
     4    2    7 1   
     5    3   16 1   
     6    3   17 1   
     7    3   18 1   
     8    4   14 1   
     9    5    8 1   
    10    5   10 1   
    11    6    9 1   
    12    7   11 1   
    13    8   19 1   
    14    8   20 1   
    15   11   12 1   
    16   12   13 1   
    17   13   21 1   
    18   13   22 1   
    19   13   23 1   
    20   15   24 1   
    21   15   25 1   
@<TRIPOS>SUBSTRUCTURE
     1 0XT         1 TEMP              0 ****  ****    0 ROOT
