@<TRIPOS>MOLECULE
0XT
   25    26     1     0     0
SMALL
bcc


@<TRIPOS>ATOM
      1 C5         -0.0210    0.0040   -0.0020 ca        1 0XT      0.279300
      2 C6          1.4290    0.0060    2.3640 ca        1 0XT      0.663000
      3 C8         -0.6730   -0.0050   -1.3410 c3        1 0XT     -0.133400
      4 C10        -0.0210    0.0310    2.3100 ca        1 0XT      0.006000
      5 C11         1.3590    0.0000    4.6940 ca        1 0XT      0.937900
      6 C12        -0.7210    0.0680    3.6000 ca        1 0XT      0.719900
      7 N4          2.1590   -0.0110    1.1730 nb        1 0XT     -0.716000
      8 N14         2.0360   -0.1110    5.9060 nh        1 0XT     -0.936500
      9 N13        -0.0340    0.0570    4.7690 nb        1 0XT     -0.851000
     10 N9          2.1190    0.0010    3.5480 nb        1 0XT     -0.780000
     11 C2          1.4470   -0.0120    0.0480 ca        1 0XT      0.564300
     12 O1          2.0440   -0.0290   -1.1880 os        1 0XT     -0.441100
     13 C3          3.4740   -0.0480   -1.2380 c3        1 0XT      0.121700
     14 N7         -0.7140    0.0260    1.1250 nb        1 0XT     -0.595000
     15 N15        -2.0880    0.1310    3.6400 nh        1 0XT     -0.956500
     16 H1         -0.3310    0.8910   -1.9180 hc        1 0XT      0.057700
     17 H2         -1.7870    0.0090   -1.2710 hc        1 0XT      0.057700
     18 H3         -0.3520   -0.9220   -1.8960 hc        1 0XT      0.057700
     19 H4          1.5390    0.1050    6.7360 hn        1 0XT      0.436800
     20 H5          3.0160    0.0450    5.9010 hn        1 0XT      0.436800
     21 H6          3.6830   -0.0600   -2.3370 h1        1 0XT      0.055700
     22 H7          3.8940    0.8690   -0.7590 h1        1 0XT      0.055700
     23 H8          3.8700   -0.9660   -0.7430 h1        1 0XT      0.055700
     24 H9         -2.5680    0.1260    4.5060 hn        1 0XT      0.451300
     25 H10        -2.6060    0.1060    2.7980 hn        1 0XT      0.451300
@<TRIPOS>BOND
     1    1    3 1   
     2    1   11 ar  
     3    1   14 ar  
     4    2    4 ar  
     5    2    7 ar  
     6    2   10 ar  
     7    3   16 1   
     8    3   17 1   
     9    3   18 1   
    10    4    6 ar  
    11    4   14 ar  
    12    5    8 1   
    13    5    9 ar  
    14    5   10 ar  
    15    6    9 ar  
    16    6   15 1   
    17    7   11 ar  
    18    8   19 1   
    19    8   20 1   
    20   11   12 1   
    21   12   13 1   
    22   13   21 1   
    23   13   22 1   
    24   13   23 1   
    25   15   24 1   
    26   15   25 1   
@<TRIPOS>SUBSTRUCTURE
     1 0XT         1 TEMP              0 ****  ****    0 ROOT
