@<TRIPOS>MOLECULE
0XU
   50    52     1     0     0
SMALL
bcc


@<TRIPOS>ATOM
      1 N           0.3330    0.1130    1.0050 n4        1 0XU     -0.827600
      2 CA          1.0840    0.6130   -0.1870 c3        1 0XU     -0.078500
      3 C           2.6110    0.8510    0.2570 c         1 0XU      0.948600
      4 O           2.9820    0.1980    1.2500 o         1 0XU     -0.765300
      5 OXT         3.2670    1.6430   -0.4600 o         1 0XU     -0.765300
      6 CB          0.4750    1.8690   -0.7990 c3        1 0XU     -0.088400
      7 CG          0.5250    1.8800   -2.3150 c3        1 0XU     -0.094400
      8 CD          1.9290    1.9270   -2.9360 c3        1 0XU      0.184700
      9 NE          2.6670    3.1800   -2.5660 n4        1 0XU     -0.844600
     10 C5'         1.8330    1.7180   -4.4130 c2        1 0XU     -0.245200
     11 C4'         2.8710    1.6550   -5.2610 c2        1 0XU      0.056900
     12 O4'         2.6070    1.2460   -6.5730 os        1 0XU     -0.323900
     13 C3'         4.3460    1.9270   -5.0830 c3        1 0XU      0.147300
     14 O3'         4.8270    1.6140   -3.8070 oh        1 0XU     -0.587800
     15 C2'         5.0160    1.1450   -6.2400 c3        1 0XU      0.096100
     16 O2'         5.4400   -0.0970   -5.7320 oh        1 0XU     -0.581800
     17 C1'         3.8370    0.8720   -7.2380 c3        1 0XU      0.226800
     18 N9          3.9220    1.6010   -8.4890 na        1 0XU     -0.284000
     19 C8          2.8780    2.2900   -9.1550 cc        1 0XU      0.517700
     20 N7          3.1910    2.6820  -10.4020 nd        1 0XU     -0.567100
     21 C5          4.4950    2.2200  -10.6120 ca        1 0XU     -0.133200
     22 C6          5.3970    2.2690  -11.6920 ca        1 0XU      0.537200
     23 N6          4.9790    2.9380  -12.9380 n4        1 0XU     -0.818300
     24 N1          6.6310    1.7120  -11.6180 nb        1 0XU     -0.664000
     25 C2          6.9640    1.0950  -10.4470 ca        1 0XU      0.687900
     26 N3          6.2160    0.9580   -9.3200 nb        1 0XU     -0.643000
     27 C4          4.9840    1.5160   -9.4050 ca        1 0XU      0.453800
     28 H1         -0.4300   -0.5050    0.7390 hn        1 0XU      0.461467
     29 H2         -0.0320    0.8950    1.5510 hn        1 0XU      0.461467
     30 H4          1.1060   -0.2260   -0.9380 hx        1 0XU      0.094700
     31 H6         -0.6100    1.9750   -0.5150 hc        1 0XU      0.067700
     32 H7          1.0050    2.7630   -0.3750 hc        1 0XU      0.067700
     33 H8         -0.0800    2.7520   -2.6850 hc        1 0XU      0.079200
     34 H9          0.0330    0.9470   -2.7050 hc        1 0XU      0.079200
     35 H10         2.5550    1.0850   -2.4800 hx        1 0XU      0.153700
     36 H11         2.1970    4.0090   -2.9210 hn        1 0XU      0.469467
     37 H12         2.7320    3.2110   -1.5260 hn        1 0XU      0.469467
     38 H14         0.8180    1.5020   -4.7950 ha        1 0XU      0.178000
     39 H15         4.5440    3.0320   -5.2090 h1        1 0XU      0.100700
     40 H16         4.9910    0.6570   -3.7470 ho        1 0XU      0.465000
     41 H17         5.8540    1.7310   -6.6930 h1        1 0XU      0.102700
     42 H18         6.3100   -0.2980   -6.1070 ho        1 0XU      0.452000
     43 H19         3.7450   -0.2370   -7.4590 h2        1 0XU      0.135700
     44 H20         1.9090    2.4680   -8.6550 h5        1 0XU      0.117800
     45 H21         4.2330    2.3800  -13.3760 hn        1 0XU      0.484800
     46 H22         4.6110    3.8700  -12.7050 hn        1 0XU      0.484800
     47 H23         7.9860    0.6450  -10.4210 h5        1 0XU      0.110100
     48 HN3         1.0250   -0.4020    1.5960 hn        1 0XU      0.461467
     49 HE3         3.6260    3.1260   -2.9280 hn        1 0XU      0.469467
     50 H63         5.7680    3.0300  -13.5950 hn        1 0XU      0.484800
@<TRIPOS>BOND
     1    1    2 1   
     2    1   28 1   
     3    1   29 1   
     4    1   48 1   
     5    2    3 1   
     6    2    6 1   
     7    2   30 1   
     8    3    4 1   
     9    3    5 1   
    10    6    7 1   
    11    6   31 1   
    12    6   32 1   
    13    7    8 1   
    14    7   33 1   
    15    7   34 1   
    16    8    9 1   
    17    8   10 1   
    18    8   35 1   
    19    9   36 1   
    20    9   37 1   
    21    9   49 1   
    22   10   11 2   
    23   10   38 1   
    24   11   12 1   
    25   11   13 1   
    26   12   17 1   
    27   13   14 1   
    28   13   15 1   
    29   13   39 1   
    30   14   40 1   
    31   15   16 1   
    32   15   17 1   
    33   15   41 1   
    34   16   42 1   
    35   17   18 1   
    36   17   43 1   
    37   18   19 1   
    38   18   27 1   
    39   19   20 2   
    40   19   44 1   
    41   20   21 1   
    42   21   22 ar  
    43   21   27 ar  
    44   22   23 1   
    45   22   24 ar  
    46   23   45 1   
    47   23   46 1   
    48   23   50 1   
    49   24   25 ar  
    50   25   26 ar  
    51   25   47 1   
    52   26   27 ar  
@<TRIPOS>SUBSTRUCTURE
     1 0XU         1 TEMP              0 ****  ****    0 ROOT
