@<TRIPOS>MOLECULE
0XU
   49    51     1     0     0
SMALL
bcc


@<TRIPOS>ATOM
      1 N           0.3970    0.2590    1.0250 nz        1 0XU     -0.827600
      2 CA          1.1810    0.7730   -0.1390 c3        1 0XU     -0.081500
      3 C           2.6530    1.1580    0.3860 c         1 0XU      0.950600
      4 O           2.9960    0.6030    1.4490 o         1 0XU     -0.765300
      5 OXT         3.2930    1.9520   -0.3390 o         1 0XU     -0.765300
      6 CB          0.5220    1.9520   -0.8430 c3        1 0XU     -0.089400
      7 CG          0.5680    1.8420   -2.3530 c3        1 0XU     -0.097400
      8 CD          1.9680    1.7940   -2.9810 c3        1 0XU      0.204700
      9 NE          2.7490    3.0530   -2.7290 nz        1 0XU     -0.846600
     10 C5'         1.8440    1.4860   -4.4340 c2        1 0XU     -0.305200
     11 C4'         2.8700    1.3550   -5.2930 c2        1 0XU      0.096900
     12 O4'         2.5910    0.8840   -6.5660 os        1 0XU     -0.313900
     13 C3'         4.3470    1.6380   -5.1300 c3        1 0XU      0.141300
     14 O3'         4.8380    1.2980   -3.8610 oh        1 0XU     -0.602800
     15 C2'         5.0090    0.9020   -6.3180 c3        1 0XU      0.094100
     16 O2'         5.4650   -0.3470   -5.8520 oh        1 0XU     -0.598800
     17 C1'         3.8230    0.6670   -7.3160 c3        1 0XU      0.239800
     18 N9          3.8400    1.5370   -8.4580 na        1 0XU     -0.317000
     19 C8          2.7340    2.2000   -9.0650 cc        1 0XU      0.414700
     20 N7          3.0260    2.7360  -10.2520 nd        1 0XU     -0.518100
     21 C5          4.3690    2.4010  -10.4950 ca        1 0XU     -0.235200
     22 C6          5.2590    2.6640  -11.5930 ca        1 0XU      0.776200
     23 N6          4.8420    3.4010  -12.6620 nv        1 0XU     -0.942500
     24 N1          6.5440    2.1620  -11.5320 nb        1 0XU     -0.781000
     25 C2          6.8960    1.4530  -10.4340 ca        1 0XU      0.706900
     26 N3          6.1700    1.1340   -9.3290 nb        1 0XU     -0.777000
     27 C4          4.8990    1.6240   -9.3840 ca        1 0XU      0.463800
     28 H1          1.0930   -0.1470    1.6910 hn        1 0XU      0.457800
     29 H2         -0.0860    1.0250    1.4960 hn        1 0XU      0.457800
     30 H4          1.3190   -0.0920   -0.8470 hx        1 0XU      0.095700
     31 H6         -0.5630    2.0480   -0.5580 hc        1 0XU      0.066200
     32 H7          1.0250    2.8960   -0.4980 hc        1 0XU      0.066200
     33 H8          0.0470    0.8960   -2.6680 hc        1 0XU      0.078700
     34 H9         -0.0120    2.6990   -2.7920 hc        1 0XU      0.078700
     35 H10         2.5770    0.9810   -2.4630 hx        1 0XU      0.132700
     36 H11         2.3750    3.8330   -3.2630 hn        1 0XU      0.467800
     37 H12         3.7320    2.8870   -2.9790 hn        1 0XU      0.467800
     38 H14         0.8220    1.2690   -4.7910 ha        1 0XU      0.173000
     39 H15         4.5300    2.7480   -5.2330 h1        1 0XU      0.094700
     40 H16         5.0870    0.3590   -3.8560 ho        1 0XU      0.463000
     41 H17         5.8420    1.5110   -6.7550 h1        1 0XU      0.117700
     42 H18         6.2070   -0.6140   -6.4140 ho        1 0XU      0.452000
     43 H19         3.7750   -0.4180   -7.6370 h2        1 0XU      0.120700
     44 H20         1.7630    2.2420   -8.5570 h5        1 0XU      0.081800
     45 H21         5.4430    3.5620  -13.4330 hn        1 0XU      0.458300
     46 H22         3.9020    3.7110  -12.6970 hn        1 0XU      0.458300
     47 H23         7.9410    1.0700  -10.4420 h5        1 0XU      0.062100
     48 HN3        -0.2760   -0.4490    0.7440 hn        1 0XU      0.457800
     49 HE3         2.7220    3.2570   -1.7110 hn        1 0XU      0.467800
@<TRIPOS>BOND
     1    1    2 1   
     2    1   28 1   
     3    1   29 1   
     4    1   48 1   
     5    2    3 1   
     6    2    6 1   
     7    2   30 1   
     8    3    4 1   
     9    3    5 1   
    10    6    7 1   
    11    6   31 1   
    12    6   32 1   
    13    7    8 1   
    14    7   33 1   
    15    7   34 1   
    16    8    9 1   
    17    8   10 1   
    18    8   35 1   
    19    9   36 1   
    20    9   37 1   
    21    9   49 1   
    22   10   11 2   
    23   10   38 1   
    24   11   12 1   
    25   11   13 1   
    26   12   17 1   
    27   13   14 1   
    28   13   15 1   
    29   13   39 1   
    30   14   40 1   
    31   15   16 1   
    32   15   17 1   
    33   15   41 1   
    34   16   42 1   
    35   17   18 1   
    36   17   43 1   
    37   18   19 1   
    38   18   27 1   
    39   19   20 2   
    40   19   44 1   
    41   20   21 1   
    42   21   22 ar  
    43   21   27 ar  
    44   22   23 1   
    45   22   24 ar  
    46   23   45 1   
    47   23   46 1   
    48   24   25 ar  
    49   25   26 ar  
    50   25   47 1   
    51   26   27 ar  
@<TRIPOS>SUBSTRUCTURE
     1 0XU         1 TEMP              0 ****  ****    0 ROOT
