@<TRIPOS>MOLECULE
0XU
   47    43     1     0     0
SMALL
bcc


@<TRIPOS>ATOM
      1 N          -5.8730    0.4010    3.4830 n3        1 0XU     -0.327000
      2 CA         -5.1830    1.3270    2.6610 c3        1 0XU     -0.132000
      3 C          -6.1730    2.0430    1.7640 c1        1 0XU      0.309000
      4 O          -6.9690    1.3760    1.0370 o         1 0XU     -0.585000
      5 OXT        -6.1930    3.2730    1.7290 os        1 0XU     -0.572000
      6 CB         -4.1700    0.5920    1.8120 c3        1 0XU     -0.141000
      7 CG         -2.7940    0.7980    2.3820 c3        1 0XU     -0.148000
      8 CD         -1.7560    0.1470    1.4550 c3        1 0XU     -0.002000
      9 NE         -2.0680   -1.2670    1.2870 n3        1 0XU     -0.328000
     10 C5'        -0.4120    0.2880    2.0400 c2        1 0XU     -0.166000
     11 C4'         0.7150    0.2740    1.2120 c1        1 0XU     -0.040000
     12 O4'         0.7320    0.1480   -0.0560 o         1 0XU     -0.209000
     13 C3'         2.1870    0.4090    1.6450 c3        1 0XU      0.066000
     14 O3'         2.5230   -0.3350    2.7580 oh        1 0XU     -0.307000
     15 C2'         2.9730   -0.0090    0.3120 c3        1 0XU     -0.030000
     16 O2'         4.0480   -1.0440    0.6380 oh        1 0XU     -0.328000
     17 C1'         2.1230   -0.5070   -0.4350 c3        1 0XU      0.139000
     18 N9          2.4450   -0.2110   -1.8200 n3        1 0XU     -0.206000
     19 C8          2.1890    0.9770   -2.3980 c1        1 0XU     -0.010000
     20 N7          2.5840    0.9100   -3.6770 n2        1 0XU     -0.123000
     21 C5          3.0910   -0.3330   -3.8970 c1        1 0XU     -0.229000
     22 C6          3.6330   -0.9340   -5.0330 c1        1 0XU      0.237000
     23 N6          3.9160   -0.4300   -6.3150 n3        1 0XU     -0.355000
     24 N1          4.0680   -2.2040   -4.9770 n1        1 0XU     -0.275000
     25 C2          3.9780   -2.9060   -3.8050 c1        1 0XU      0.020000
     26 N3          3.4500   -2.3190   -2.7000 n1        1 0XU     -0.237000
     27 C4          3.0050   -1.0210   -2.7550 c1        1 0XU      0.052000
     28 H1         -6.4000    0.8580    4.0840 hn        1 0XU      0.126000
     29 H2         -5.2630   -0.1160    3.9410 hn        1 0XU      0.126000
     30 H4         -4.7280    1.9710    3.2160 h1        1 0XU      0.077000
     31 H6         -4.1980    0.9320    0.9190 hc        1 0XU      0.095000
     32 H7         -4.3870   -0.3940    1.8020 hc        1 0XU      0.095000
     33 H8         -2.6080    1.7680    2.4550 hc        1 0XU      0.079000
     34 H9         -2.7450    0.4050    3.2340 hc        1 0XU      0.079000
     35 H10        -1.7770    0.5760    0.6100 h1        1 0XU      0.106000
     36 H11        -2.0040   -1.4960    0.3800 hn        1 0XU      0.142000
     37 H12        -1.4610   -1.7840    1.7830 hn        1 0XU      0.142000
     38 H14        -0.3050    0.3950    3.0340 ha        1 0XU      0.150000
     39 H15         2.4020    1.3070    1.9330 h1        1 0XU      0.103000
     40 H16         3.1170    0.1300    3.2640 ho        1 0XU      0.221000
     41 H17         3.3610    0.7530   -0.0920 h1        1 0XU      0.114000
     42 H18         4.8390   -0.6720    0.5880 ho        1 0XU      0.235000
     43 H19         2.0870   -1.4360   -0.3040 h2        1 0XU      0.139000
     44 H20         1.7410    1.7420   -1.9720 DU        1 0XU      0.234000
     45 H21         4.4140   -0.9040   -6.8790 hn        1 0XU      0.241500
     46 H22         3.5520    0.3540   -6.5830 hn        1 0XU      0.241500
     47 H23         4.2930   -3.8320   -3.7630 ha        1 0XU      0.181000
@<TRIPOS>BOND
     1    1    2 1   
     2    1   28 1   
     3    1   29 1   
     4    2    3 1   
     5    2    6 1   
     6    2   30 1   
     7    3    4 1   
     8    6    7 1   
     9    6   31 1   
    10    6   32 1   
    11    7    8 1   
    12    7   33 1   
    13    7   34 1   
    14    8    9 1   
    15    8   10 1   
    16    8   35 1   
    17    9   36 1   
    18    9   37 1   
    19   10   11 1   
    20   10   38 1   
    21   11   13 1   
    22   12   17 1   
    23   13   14 1   
    24   13   15 1   
    25   13   39 1   
    26   14   40 1   
    27   15   16 1   
    28   15   17 1   
    29   15   41 1   
    30   16   42 1   
    31   17   18 1   
    32   17   43 1   
    33   18   19 1   
    34   18   27 1   
    35   19   20 1   
    36   20   21 1   
    37   21   27 1   
    38   22   23 1   
    39   22   24 1   
    40   23   45 1   
    41   23   46 1   
    42   25   26 1   
    43   25   47 1   
@<TRIPOS>SUBSTRUCTURE
     1 0XU         1 TEMP              0 ****  ****    0 ROOT
