@<TRIPOS>MOLECULE
0XU
   49    51     1     0     0
SMALL
bcc


@<TRIPOS>ATOM
      1 N           0.4330    0.2080    1.0300 n4        1 0XU     -0.827600
      2 CA          1.1970    0.7440   -0.1370 c3        1 0XU     -0.081500
      3 C           2.6450    1.2100    0.3890 c         1 0XU      0.950600
      4 O           3.0080    0.6890    1.4630 o         1 0XU     -0.765300
      5 OXT         3.2480    2.0250   -0.3450 o         1 0XU     -0.765300
      6 CB          0.4830    1.8770   -0.8620 c3        1 0XU     -0.089400
      7 CG          0.5440    1.7480   -2.3710 c3        1 0XU     -0.097400
      8 CD          1.9490    1.7610   -2.9900 c3        1 0XU      0.204700
      9 NE          2.6630    3.0620   -2.7530 n4        1 0XU     -0.846600
     10 C5'         1.8490    1.4270   -4.4400 c2        1 0XU     -0.305200
     11 C4'         2.8850    1.3360   -5.2920 c2        1 0XU      0.096900
     12 O4'         2.6370    0.8330   -6.5580 os        1 0XU     -0.313900
     13 C3'         4.3450    1.6960   -5.1250 c3        1 0XU      0.141300
     14 O3'         4.8450    1.3990   -3.8490 oh        1 0XU     -0.602800
     15 C2'         5.0490    0.9780   -6.2990 c3        1 0XU      0.094100
     16 O2'         5.5660   -0.2400   -5.8130 oh        1 0XU     -0.598800
     17 C1'         3.8830    0.6680   -7.3000 c3        1 0XU      0.239800
     18 N9          3.8620    1.5210   -8.4540 na        1 0XU     -0.317000
     19 C8          2.7280    2.1190   -9.0750 cc        1 0XU      0.414700
     20 N7          2.9980    2.6520  -10.2690 nd        1 0XU     -0.518100
     21 C5          4.3570    2.3820  -10.5010 ca        1 0XU     -0.235200
     22 C6          5.2390    2.6740  -11.5980 ca        1 0XU      0.776200
     23 N6          4.7920    3.3730  -12.6790 nh        1 0XU     -0.942500
     24 N1          6.5470    2.2380  -11.5240 nb        1 0XU     -0.781000
     25 C2          6.9280    1.5630  -10.4140 ca        1 0XU      0.706900
     26 N3          6.2140    1.2240   -9.3080 nb        1 0XU     -0.777000
     27 C4          4.9200    1.6490   -9.3770 ca        1 0XU      0.463800
     28 H1          1.1450   -0.1530    1.7050 hn        1 0XU      0.457800
     29 H2         -0.2020   -0.5370    0.7550 hn        1 0XU      0.457800
     30 H4          1.3830   -0.1230   -0.8320 hx        1 0XU      0.095700
     31 H6         -0.6070    1.9230   -0.5850 hc        1 0XU      0.066200
     32 H7          0.9360    2.8510   -0.5290 hc        1 0XU      0.066200
     33 H8          0.0730    0.7720   -2.6740 hc        1 0XU      0.078700
     34 H9         -0.0760    2.5680   -2.8250 hc        1 0XU      0.078700
     35 H10         2.5950    0.9880   -2.4570 hx        1 0XU      0.132700
     36 H11         2.6200    3.2790   -1.7380 hn        1 0XU      0.467800
     37 H12         3.6550    2.9420   -2.9950 hn        1 0XU      0.467800
     38 H14         0.8410    1.1530   -4.7990 ha        1 0XU      0.173000
     39 H15         4.4710    2.8120   -5.2440 h1        1 0XU      0.094700
     40 H16         5.1410    0.4750   -3.8290 ho        1 0XU      0.463000
     41 H17         5.8530    1.6220   -6.7420 h1        1 0XU      0.117700
     42 H18         6.3230   -0.4760   -6.3670 ho        1 0XU      0.452000
     43 H19         3.8910   -0.4220   -7.6050 h2        1 0XU      0.120700
     44 H20         1.7520    2.1190   -8.5730 h5        1 0XU      0.081800
     45 H21         5.3880    3.5540  -13.4500 hn        1 0XU      0.458300
     46 H22         3.8370    3.6360  -12.7240 hn        1 0XU      0.458300
     47 H23         7.9920    1.2330  -10.4120 h5        1 0XU      0.062100
     48 HN3        -0.0910    0.9560    1.4860 hn        1 0XU      0.457800
     49 HE3         2.2530    3.8140   -3.3010 hn        1 0XU      0.467800
@<TRIPOS>BOND
     1    1    2 1   
     2    1   28 1   
     3    1   29 1   
     4    1   48 1   
     5    2    3 1   
     6    2    6 1   
     7    2   30 1   
     8    3    4 1   
     9    3    5 1   
    10    6    7 1   
    11    6   31 1   
    12    6   32 1   
    13    7    8 1   
    14    7   33 1   
    15    7   34 1   
    16    8    9 1   
    17    8   10 1   
    18    8   35 1   
    19    9   36 1   
    20    9   37 1   
    21    9   49 1   
    22   10   11 2   
    23   10   38 1   
    24   11   12 1   
    25   11   13 1   
    26   12   17 1   
    27   13   14 1   
    28   13   15 1   
    29   13   39 1   
    30   14   40 1   
    31   15   16 1   
    32   15   17 1   
    33   15   41 1   
    34   16   42 1   
    35   17   18 1   
    36   17   43 1   
    37   18   19 1   
    38   18   27 1   
    39   19   20 2   
    40   19   44 1   
    41   20   21 1   
    42   21   22 ar  
    43   21   27 ar  
    44   22   23 1   
    45   22   24 ar  
    46   23   45 1   
    47   23   46 1   
    48   24   25 ar  
    49   25   26 ar  
    50   25   47 1   
    51   26   27 ar  
@<TRIPOS>SUBSTRUCTURE
     1 0XU         1 TEMP              0 ****  ****    0 ROOT
