@<TRIPOS>MOLECULE
0XU
   47    49     1     0     0
SMALL
bcc


@<TRIPOS>ATOM
      1 N           6.3660   -0.3470   -1.7980 n3        1 0XU     -0.891800
      2 CA          6.0160   -0.0880   -0.4080 c3        1 0XU      0.016500
      3 C           7.2040   -0.2400    0.6030 c         1 0XU      0.888600
      4 O           8.3490   -0.4970    0.1360 o         1 0XU     -0.839300
      5 OXT         6.9430   -0.0800    1.8270 o         1 0XU     -0.839300
      6 CB          4.8630   -0.9580    0.0930 c3        1 0XU     -0.070400
      7 CG          3.5700   -0.6720   -0.6350 c3        1 0XU     -0.109400
      8 CD          2.3610   -1.3000    0.0870 c3        1 0XU      0.184700
      9 NE          2.4080   -2.7470    0.2370 n3        1 0XU     -0.898800
     10 C5'         1.1170   -0.8730   -0.6410 c2        1 0XU     -0.135200
     11 C4'         0.2720    0.0430   -0.1560 c2        1 0XU     -0.036100
     12 O4'        -0.8280    0.4370   -0.9320 os        1 0XU     -0.328900
     13 C3'         0.3080    0.7940    1.1490 c3        1 0XU      0.137300
     14 O3'         1.3320    1.7690    1.2020 oh        1 0XU     -0.597800
     15 C2'        -1.0450    1.5430    1.2150 c3        1 0XU      0.127100
     16 O2'        -0.9390    2.9410    1.2600 oh        1 0XU     -0.573800
     17 C1'        -1.7900    1.1170   -0.1020 c3        1 0XU      0.207800
     18 N9         -2.9300    0.2650    0.1320 na        1 0XU     -0.276000
     19 C8         -2.9290   -1.0430    0.6830 cc        1 0XU      0.423700
     20 N7         -4.1320   -1.6330    0.6750 nd        1 0XU     -0.552100
     21 C5         -4.9920   -0.7010    0.0720 ca        1 0XU     -0.226200
     22 C6         -6.3930   -0.7230   -0.2290 ca        1 0XU      0.745200
     23 N6         -7.1660   -1.7940    0.1600 nh        1 0XU     -0.950500
     24 N1         -6.9520    0.3590   -0.8660 nb        1 0XU     -0.797000
     25 C2         -6.1350    1.4100   -1.1490 ca        1 0XU      0.678900
     26 N3         -4.8140    1.5790   -0.9150 nb        1 0XU     -0.725000
     27 C4         -4.2470    0.4990   -0.2980 ca        1 0XU      0.465800
     28 H1          7.2200    0.1520   -1.9860 hn        1 0XU      0.331800
     29 H2          6.5900   -1.3230   -1.8910 hn        1 0XU      0.331800
     30 H4          5.6930    0.9930   -0.3540 h1        1 0XU      0.040700
     31 H6          5.1360   -2.0400   -0.0160 hc        1 0XU      0.047700
     32 H7          4.7490   -0.7480    1.1920 hc        1 0XU      0.047700
     33 H8          3.4080    0.4360   -0.6960 hc        1 0XU      0.046700
     34 H9          3.6260   -1.0550   -1.6860 hc        1 0XU      0.046700
     35 H10         2.3390   -0.8820    1.1410 h1        1 0XU      0.052700
     36 H11         2.4740   -3.1850   -0.6630 hn        1 0XU      0.350300
     37 H12         3.2260   -2.9910    0.7660 hn        1 0XU      0.350300
     38 H14         0.9330   -1.3370   -1.6230 ha        1 0XU      0.147000
     39 H15         0.4210    0.0860    2.0160 h1        1 0XU      0.073700
     40 H16         2.1560    1.3420    0.9240 ho        1 0XU      0.440000
     41 H17        -1.6200    1.2640    2.1380 h1        1 0XU      0.097700
     42 H18        -0.1770    3.2090    0.7250 ho        1 0XU      0.432000
     43 H19        -2.1220    2.0200   -0.6940 h2        1 0XU      0.130700
     44 H20        -2.0000   -1.4900    1.0620 h5        1 0XU      0.083800
     45 H21        -6.6940   -2.6180    0.4420 hn        1 0XU      0.436800
     46 H22        -8.0900   -1.8770   -0.1880 hn        1 0XU      0.436800
     47 H23        -6.6380    2.2610   -1.6580 h5        1 0XU      0.048100
@<TRIPOS>BOND
     1    1    2 1   
     2    1   28 1   
     3    1   29 1   
     4    2    3 1   
     5    2    6 1   
     6    2   30 1   
     7    3    4 1   
     8    3    5 1   
     9    6    7 1   
    10    6   31 1   
    11    6   32 1   
    12    7    8 1   
    13    7   33 1   
    14    7   34 1   
    15    8    9 1   
    16    8   10 1   
    17    8   35 1   
    18    9   36 1   
    19    9   37 1   
    20   10   11 2   
    21   10   38 1   
    22   11   12 1   
    23   11   13 1   
    24   12   17 1   
    25   13   14 1   
    26   13   15 1   
    27   13   39 1   
    28   14   40 1   
    29   15   16 1   
    30   15   17 1   
    31   15   41 1   
    32   16   42 1   
    33   17   18 1   
    34   17   43 1   
    35   18   19 1   
    36   18   27 1   
    37   19   20 2   
    38   19   44 1   
    39   20   21 1   
    40   21   22 ar  
    41   21   27 ar  
    42   22   23 1   
    43   22   24 ar  
    44   23   45 1   
    45   23   46 1   
    46   24   25 ar  
    47   25   26 ar  
    48   25   47 1   
    49   26   27 ar  
@<TRIPOS>SUBSTRUCTURE
     1 0XU         1 TEMP              0 ****  ****    0 ROOT
