@<TRIPOS>MOLECULE
0XV
   37    30     1     0     0
SMALL
bcc


@<TRIPOS>ATOM
      1 CAV        -2.4590    0.5790    1.6550 c3        1 0XV     -0.178000
      2 CAI        -0.9610    0.7900    1.6630 c2        1 0XV      0.057000
      3 OAH        -0.8780    0.8660    3.0320 os        1 0XV     -0.111000
      4 CAB         0.3750    1.3690    3.3600 c1        1 0XV      0.008000
      5 CAC         0.9890    1.6320    4.5950 c1        1 0XV     -0.113750
      6 CAD         2.2850    2.1260    4.6350 c1        1 0XV     -0.113750
      7 CAE         2.9760    2.3610    3.4540 c1        1 0XV     -0.113750
      8 CAF         2.3700    2.1010    2.2320 c1        1 0XV     -0.113750
      9 CAA         1.0580    1.6010    2.1910 c1        1 0XV     -0.066000
     10 CAG         0.2340    1.2430    1.1360 c1        1 0XV     -0.206000
     11 CAJ         0.8920    0.9420   -0.1940 c1        1 0XV      0.342000
     12 OAK         1.9600    1.4510   -0.4720 o         1 0XV     -0.289000
     13 CAL         0.2530   -0.0430   -1.1490 c1        1 0XV     -0.181000
     14 CAM         0.4900   -1.4000   -1.0050 c1        1 0XV     -0.060000
     15 CAN        -0.0430   -2.2980   -1.9170 c1        1 0XV     -0.164000
     16 CAO         0.2340   -3.7770   -1.7710 c2        1 0XV     -0.181000
     17 CAP        -0.8120   -1.8380   -2.9730 c2        1 0XV      0.103000
     18 OAW        -1.3330   -2.7470   -3.9120 oh        1 0XV     -0.247000
     19 CAQ        -1.0500   -0.4800   -3.1180 c1        1 0XV     -0.103000
     20 CAT        -1.9130    0.0200   -4.2540 c3        1 0XV     -0.168000
     21 CAU        -0.5170    0.4170   -2.2060 c1        1 0XV     -0.053000
     22 H1         -2.8330    0.8650    2.5150 hc        1 0XV      0.109667
     23 H2         -2.8590    1.1060    0.9330 hc        1 0XV      0.109667
     24 H3         -2.6540   -0.3710    1.5130 hc        1 0XV      0.109667
     25 H4          0.5030    1.4680    5.4260 ha        1 0XV      0.144250
     26 H5          2.7110    2.3090    5.4940 ha        1 0XV      0.144250
     27 H6          3.8870    2.7080    3.4820 ha        1 0XV      0.144250
     28 H7          2.8560    2.2650    1.4020 ha        1 0XV      0.144250
     29 H8          1.0270   -1.7250   -0.2570 ha        1 0XV      0.145000
     30 H9          0.5720   -3.9590   -0.8690 ha        1 0XV      0.086000
     31 H10        -0.5940   -4.2800   -1.9170 ha        1 0XV      0.086000
     32 H11         0.9030   -4.0510   -2.4320 ha        1 0XV      0.086000
     33 H12        -0.6850   -3.0070   -4.4640 ho        1 0XV      0.223000
     34 H13        -2.0380    0.9880   -4.1680 hc        1 0XV      0.088333
     35 H14        -2.7860   -0.4270   -4.2220 hc        1 0XV      0.088333
     36 H15        -1.4760   -0.1790   -5.1080 hc        1 0XV      0.088333
     37 H16        -0.6850    1.3740   -2.3080 ha        1 0XV      0.156000
@<TRIPOS>BOND
     1    1    2 1   
     2    1   22 1   
     3    1   23 1   
     4    1   24 1   
     5    2    3 1   
     6    2   10 1   
     7    3    4 1   
     8    4    9 1   
     9    5    6 1   
    10    5   25 1   
    11    6   26 1   
    12    7    8 1   
    13    7   27 1   
    14    8   28 1   
    15   11   12 1   
    16   13   21 1   
    17   14   15 1   
    18   14   29 1   
    19   15   17 1   
    20   16   30 1   
    21   16   31 1   
    22   16   32 1   
    23   17   18 1   
    24   17   19 1   
    25   18   33 1   
    26   19   20 1   
    27   20   34 1   
    28   20   35 1   
    29   20   36 1   
    30   21   37 1   
@<TRIPOS>SUBSTRUCTURE
     1 0XV         1 TEMP              0 ****  ****    0 ROOT
