@<TRIPOS>MOLECULE
0XV
   37    39     1     0     0
SMALL
bcc


@<TRIPOS>ATOM
      1 CAV        -0.0500    1.0390    0.4820 c3        1 0XV     -0.060900
      2 CAI         1.2840    0.5270    0.1540 cc        1 0XV      0.122900
      3 OAH         2.2320    0.6150    1.1870 os        1 0XV     -0.199200
      4 CAB         3.4200    0.0940    0.6620 ca        1 0XV      0.051100
      5 CAC         4.6390    0.0040    1.3220 ca        1 0XV     -0.117000
      6 CAD         5.6980   -0.5360    0.5940 ca        1 0XV     -0.116000
      7 CAE         5.5310   -0.9620   -0.7320 ca        1 0XV     -0.143000
      8 CAF         4.3020   -0.8690   -1.3830 ca        1 0XV     -0.089000
      9 CAA         3.2190   -0.3390   -0.6850 ca        1 0XV     -0.076800
     10 CAG         1.8230   -0.0530   -0.9840 cd        1 0XV     -0.225400
     11 CAJ         1.1080   -0.2630   -2.2420 c         1 0XV      0.623900
     12 OAK         0.2100    0.5160   -2.6030 o         1 0XV     -0.551100
     13 CAL         1.4650   -1.4350   -3.0700 ca        1 0XV     -0.195600
     14 CAM         1.9510   -2.6150   -2.4950 ca        1 0XV     -0.053000
     15 CAN         2.2350   -3.7290   -3.2830 ca        1 0XV     -0.142800
     16 CAO         2.7370   -4.9870   -2.6880 c3        1 0XV     -0.048300
     17 CAP         2.0330   -3.6410   -4.6780 ca        1 0XV      0.147100
     18 OAW         2.3420   -4.7710   -5.3980 oh        1 0XV     -0.494100
     19 CAQ         1.5450   -2.4620   -5.2740 ca        1 0XV     -0.142800
     20 CAT         1.3310   -2.3740   -6.7360 c3        1 0XV     -0.048300
     21 CAU         1.2570   -1.3700   -4.4520 ca        1 0XV     -0.053000
     22 H1         -0.6790    1.0570   -0.4450 hc        1 0XV      0.075700
     23 H2          0.0250    2.0750    0.8970 hc        1 0XV      0.075700
     24 H3         -0.5350    0.3860    1.2510 hc        1 0XV      0.075700
     25 H4          4.7570    0.3460    2.3580 ha        1 0XV      0.152000
     26 H5          6.6860   -0.6290    1.0700 ha        1 0XV      0.137000
     27 H6          6.3940   -1.3790   -1.2710 ha        1 0XV      0.136000
     28 H7          4.1830   -1.2090   -2.4220 ha        1 0XV      0.149000
     29 H8          2.1100   -2.6650   -1.4050 ha        1 0XV      0.151000
     30 H9          3.7150   -5.2680   -3.1550 hc        1 0XV      0.047700
     31 H10         2.0150   -5.8180   -2.8880 hc        1 0XV      0.047700
     32 H11         2.8780   -4.8880   -1.5850 hc        1 0XV      0.047700
     33 H12         2.1490   -4.6040   -6.3320 ho        1 0XV      0.424000
     34 H13         0.5850   -3.1390   -7.0710 hc        1 0XV      0.047700
     35 H14         2.2900   -2.5490   -7.2860 hc        1 0XV      0.047700
     36 H15         0.9440   -1.3660   -7.0250 hc        1 0XV      0.047700
     37 H16         0.8540   -0.4420   -4.8900 ha        1 0XV      0.151000
@<TRIPOS>BOND
     1    1    2 1   
     2    1   22 1   
     3    1   23 1   
     4    1   24 1   
     5    2    3 1   
     6    2   10 2   
     7    3    4 1   
     8    4    5 ar  
     9    4    9 ar  
    10    5    6 ar  
    11    5   25 1   
    12    6    7 ar  
    13    6   26 1   
    14    7    8 ar  
    15    7   27 1   
    16    8    9 ar  
    17    8   28 1   
    18    9   10 1   
    19   10   11 1   
    20   11   12 2   
    21   11   13 1   
    22   13   14 ar  
    23   13   21 ar  
    24   14   15 ar  
    25   14   29 1   
    26   15   16 1   
    27   15   17 ar  
    28   16   30 1   
    29   16   31 1   
    30   16   32 1   
    31   17   18 1   
    32   17   19 ar  
    33   18   33 1   
    34   19   20 1   
    35   19   21 ar  
    36   20   34 1   
    37   20   35 1   
    38   20   36 1   
    39   21   37 1   
@<TRIPOS>SUBSTRUCTURE
     1 0XV         1 TEMP              0 ****  ****    0 ROOT
