@<TRIPOS>MOLECULE
0XV
   37    39     1     0     0
SMALL
bcc


@<TRIPOS>ATOM
      1 CAV        -0.0020    1.1640    0.4480 c3        1 0XV     -0.060900
      2 CAI         1.3110    0.6000    0.1220 cc        1 0XV      0.122900
      3 OAH         2.2620    0.6520    1.1540 os        1 0XV     -0.199200
      4 CAB         3.4280    0.0850    0.6290 ca        1 0XV      0.051100
      5 CAC         4.6440   -0.0500    1.2880 ca        1 0XV     -0.117000
      6 CAD         5.6810   -0.6320    0.5590 ca        1 0XV     -0.116000
      7 CAE         5.4960   -1.0530   -0.7650 ca        1 0XV     -0.143000
      8 CAF         4.2710   -0.9140   -1.4150 ca        1 0XV     -0.090000
      9 CAA         3.2100   -0.3420   -0.7180 ca        1 0XV     -0.076800
     10 CAG         1.8260   -0.0040   -1.0160 cd        1 0XV     -0.226400
     11 CAJ         1.1030   -0.1900   -2.2730 c         1 0XV      0.622900
     12 OAK         0.2380    0.6230   -2.6370 o         1 0XV     -0.549100
     13 CAL         1.4120   -1.3790   -3.0940 ca        1 0XV     -0.195600
     14 CAM         1.8440   -2.5740   -2.5130 ca        1 0XV     -0.053500
     15 CAN         2.0830   -3.7070   -3.2960 ca        1 0XV     -0.142800
     16 CAO         2.5280   -4.9700   -2.6650 c3        1 0XV     -0.048300
     17 CAP         1.8900   -3.6180   -4.6880 ca        1 0XV      0.147100
     18 OAW         2.1070   -4.6720   -5.5430 oh        1 0XV     -0.493100
     19 CAQ         1.4560   -2.4170   -5.2930 ca        1 0XV     -0.142800
     20 CAT         1.2620   -2.3560   -6.7580 c3        1 0XV     -0.048300
     21 CAU         1.2130   -1.3120   -4.4810 ca        1 0XV     -0.053500
     22 H1         -0.5120    0.5340    1.2200 hc        1 0XV      0.075700
     23 H2         -0.6300    1.2050   -0.4780 hc        1 0XV      0.075700
     24 H3          0.1150    2.1990    0.8600 hc        1 0XV      0.075700
     25 H4          4.7760    0.2880    2.3230 ha        1 0XV      0.152000
     26 H5          6.6650   -0.7610    1.0340 ha        1 0XV      0.137000
     27 H6          6.3440   -1.5020   -1.3060 ha        1 0XV      0.135000
     28 H7          4.1390   -1.2500   -2.4540 ha        1 0XV      0.149000
     29 H8          1.9970   -2.6250   -1.4230 ha        1 0XV      0.151500
     30 H9          2.6310   -4.8520   -1.5580 hc        1 0XV      0.047367
     31 H10         1.7880   -5.7880   -2.8580 hc        1 0XV      0.047367
     32 H11         3.5210   -5.2870   -3.0730 hc        1 0XV      0.047367
     33 H12         2.3770   -5.4420   -5.0210 ho        1 0XV      0.423000
     34 H13         0.8700   -1.3600   -7.0750 hc        1 0XV      0.047367
     35 H14         0.5410   -3.1490   -7.0820 hc        1 0XV      0.047367
     36 H15         2.2340   -2.5450   -7.2800 hc        1 0XV      0.047367
     37 H16         0.8520   -0.3690   -4.9250 ha        1 0XV      0.151500
@<TRIPOS>BOND
     1    1    2 1   
     2    1   22 1   
     3    1   23 1   
     4    1   24 1   
     5    2    3 1   
     6    2   10 2   
     7    3    4 1   
     8    4    5 ar  
     9    4    9 ar  
    10    5    6 ar  
    11    5   25 1   
    12    6    7 ar  
    13    6   26 1   
    14    7    8 ar  
    15    7   27 1   
    16    8    9 ar  
    17    8   28 1   
    18    9   10 1   
    19   10   11 1   
    20   11   12 2   
    21   11   13 1   
    22   13   14 ar  
    23   13   21 ar  
    24   14   15 ar  
    25   14   29 1   
    26   15   16 1   
    27   15   17 ar  
    28   16   30 1   
    29   16   31 1   
    30   16   32 1   
    31   17   18 1   
    32   17   19 ar  
    33   18   33 1   
    34   19   20 1   
    35   19   21 ar  
    36   20   34 1   
    37   20   35 1   
    38   20   36 1   
    39   21   37 1   
@<TRIPOS>SUBSTRUCTURE
     1 0XV         1 TEMP              0 ****  ****    0 ROOT
