@<TRIPOS>MOLECULE
0XV
   37    39     1     0     0
SMALL
bcc


@<TRIPOS>ATOM
      1 CAV         0.0210    1.1530    0.4790 c3        1 0XV     -0.060900
      2 CAI         1.3310    0.5930    0.1370 cc        1 0XV      0.122900
      3 OAH         2.2930    0.6460    1.1580 os        1 0XV     -0.199200
      4 CAB         3.4550    0.0830    0.6200 ca        1 0XV      0.051100
      5 CAC         4.6780   -0.0500    1.2650 ca        1 0XV     -0.117000
      6 CAD         5.7090   -0.6280    0.5240 ca        1 0XV     -0.116000
      7 CAE         5.5110   -1.0460   -0.7990 ca        1 0XV     -0.143000
      8 CAF         4.2780   -0.9100   -1.4350 ca        1 0XV     -0.090000
      9 CAA         3.2230   -0.3430   -0.7250 ca        1 0XV     -0.076800
     10 CAG         1.8350   -0.0080   -1.0080 cd        1 0XV     -0.226400
     11 CAJ         1.0990   -0.1930   -2.2570 c         1 0XV      0.622900
     12 OAK         0.2270    0.6180   -2.6100 o         1 0XV     -0.549100
     13 CAL         1.4020   -1.3810   -3.0830 ca        1 0XV     -0.195600
     14 CAM         1.8430   -2.5750   -2.5090 ca        1 0XV     -0.053500
     15 CAN         2.0770   -3.7050   -3.2960 ca        1 0XV     -0.142800
     16 CAO         2.5320   -4.9690   -2.6720 c3        1 0XV     -0.048300
     17 CAP         1.8690   -3.6150   -4.6860 ca        1 0XV      0.147100
     18 OAW         2.0790   -4.6670   -5.5450 oh        1 0XV     -0.493100
     19 CAQ         1.4250   -2.4140   -5.2840 ca        1 0XV     -0.142800
     20 CAT         1.2150   -2.3510   -6.7470 c3        1 0XV     -0.048300
     21 CAU         1.1880   -1.3110   -4.4680 ca        1 0XV     -0.053500
     22 H1         -0.4800    0.5200    1.2550 hc        1 0XV      0.075700
     23 H2         -0.6190    1.1940   -0.4400 hc        1 0XV      0.075700
     24 H3          0.1390    2.1870    0.8900 hc        1 0XV      0.075700
     25 H4          4.8210    0.2860    2.3000 ha        1 0XV      0.152000
     26 H5          6.6990   -0.7550    0.9880 ha        1 0XV      0.137000
     27 H6          6.3530   -1.4920   -1.3500 ha        1 0XV      0.135000
     28 H7          4.1350   -1.2440   -2.4740 ha        1 0XV      0.149000
     29 H8          2.0080   -2.6270   -1.4200 ha        1 0XV      0.151500
     30 H9          2.6470   -4.8520   -1.5670 hc        1 0XV      0.047367
     31 H10         1.7930   -5.7880   -2.8590 hc        1 0XV      0.047367
     32 H11         3.5210   -5.2820   -3.0920 hc        1 0XV      0.047367
     33 H12         2.3570   -5.4370   -5.0280 ho        1 0XV      0.423000
     34 H13         0.8150   -1.3560   -7.0580 hc        1 0XV      0.047367
     35 H14         0.4940   -3.1470   -7.0650 hc        1 0XV      0.047367
     36 H15         2.1810   -2.5350   -7.2800 hc        1 0XV      0.047367
     37 H16         0.8190   -0.3690   -4.9060 ha        1 0XV      0.151500
@<TRIPOS>BOND
     1    1    2 1   
     2    1   22 1   
     3    1   23 1   
     4    1   24 1   
     5    2    3 1   
     6    2   10 2   
     7    3    4 1   
     8    4    5 ar  
     9    4    9 ar  
    10    5    6 ar  
    11    5   25 1   
    12    6    7 ar  
    13    6   26 1   
    14    7    8 ar  
    15    7   27 1   
    16    8    9 ar  
    17    8   28 1   
    18    9   10 1   
    19   10   11 1   
    20   11   12 2   
    21   11   13 1   
    22   13   14 ar  
    23   13   21 ar  
    24   14   15 ar  
    25   14   29 1   
    26   15   16 1   
    27   15   17 ar  
    28   16   30 1   
    29   16   31 1   
    30   16   32 1   
    31   17   18 1   
    32   17   19 ar  
    33   18   33 1   
    34   19   20 1   
    35   19   21 ar  
    36   20   34 1   
    37   20   35 1   
    38   20   36 1   
    39   21   37 1   
@<TRIPOS>SUBSTRUCTURE
     1 0XV         1 TEMP              0 ****  ****    0 ROOT
