@<TRIPOS>MOLECULE
0XV
   37    39     1     0     0
SMALL
bcc


@<TRIPOS>ATOM
      1 CAV        -2.2800    3.2770   -1.5490 c3        1 0XV     -0.060900
      2 CAI        -2.2460    1.9470   -0.9340 cc        1 0XV      0.122900
      3 OAH        -3.4450    1.2200   -1.0070 os        1 0XV     -0.199200
      4 CAB        -3.1980    0.0070   -0.3560 ca        1 0XV      0.051100
      5 CAC        -4.1120   -1.0210   -0.1600 ca        1 0XV     -0.117000
      6 CAD        -3.6480   -2.1370    0.5350 ca        1 0XV     -0.116000
      7 CAE        -2.3290   -2.2080    1.0070 ca        1 0XV     -0.143000
      8 CAF        -1.4210   -1.1710    0.8020 ca        1 0XV     -0.089000
      9 CAA        -1.8460   -0.0420    0.1070 ca        1 0XV     -0.076800
     10 CAG        -1.2500    1.2260   -0.2910 cd        1 0XV     -0.225400
     11 CAJ         0.1030    1.7090   -0.0270 c         1 0XV      0.623900
     12 OAK         0.3240    2.9160    0.1680 o         1 0XV     -0.551100
     13 CAL         1.2120    0.7310   -0.0160 ca        1 0XV     -0.195600
     14 CAM         1.1710   -0.4300   -0.7960 ca        1 0XV     -0.053000
     15 CAN         2.2450   -1.3180   -0.8140 ca        1 0XV     -0.142800
     16 CAO         2.2200   -2.5430   -1.6430 c3        1 0XV     -0.048300
     17 CAP         3.3760   -1.0280   -0.0190 ca        1 0XV      0.147100
     18 OAW         4.3950   -1.9490   -0.0750 oh        1 0XV     -0.494100
     19 CAQ         3.4350    0.1350    0.7720 ca        1 0XV     -0.142800
     20 CAT         4.6240    0.4370    1.6020 c3        1 0XV     -0.048300
     21 CAU         2.3470    1.0090    0.7550 ca        1 0XV     -0.053000
     22 H1         -3.1490    3.8620   -1.1550 hc        1 0XV      0.075700
     23 H2         -1.3310    3.8220   -1.3100 hc        1 0XV      0.075700
     24 H3         -2.3890    3.1870   -2.6590 hc        1 0XV      0.075700
     25 H4         -5.1420   -0.9500   -0.5300 ha        1 0XV      0.152000
     26 H5         -4.3320   -2.9790    0.7190 ha        1 0XV      0.137000
     27 H6         -2.0060   -3.1060    1.5540 ha        1 0XV      0.136000
     28 H7         -0.3880   -1.2410    1.1740 ha        1 0XV      0.149000
     29 H8          0.2770   -0.6450   -1.4050 ha        1 0XV      0.151000
     30 H9          3.0530   -2.5140   -2.3910 hc        1 0XV      0.047700
     31 H10         2.3730   -3.4450   -0.9990 hc        1 0XV      0.047700
     32 H11         1.2500   -2.6470   -2.1870 hc        1 0XV      0.047700
     33 H12         5.1190   -1.6420    0.4900 ho        1 0XV      0.424000
     34 H13         5.5360    0.5350    0.9610 hc        1 0XV      0.047700
     35 H14         4.4890    1.3960    2.1600 hc        1 0XV      0.047700
     36 H15         4.8010   -0.3780    2.3490 hc        1 0XV      0.047700
     37 H16         2.3760    1.9380    1.3490 ha        1 0XV      0.151000
@<TRIPOS>BOND
     1    1    2 1   
     2    1   22 1   
     3    1   23 1   
     4    1   24 1   
     5    2    3 1   
     6    2   10 2   
     7    3    4 1   
     8    4    5 ar  
     9    4    9 ar  
    10    5    6 ar  
    11    5   25 1   
    12    6    7 ar  
    13    6   26 1   
    14    7    8 ar  
    15    7   27 1   
    16    8    9 ar  
    17    8   28 1   
    18    9   10 1   
    19   10   11 1   
    20   11   12 2   
    21   11   13 1   
    22   13   14 ar  
    23   13   21 ar  
    24   14   15 ar  
    25   14   29 1   
    26   15   16 1   
    27   15   17 ar  
    28   16   30 1   
    29   16   31 1   
    30   16   32 1   
    31   17   18 1   
    32   17   19 ar  
    33   18   33 1   
    34   19   20 1   
    35   19   21 ar  
    36   20   34 1   
    37   20   35 1   
    38   20   36 1   
    39   21   37 1   
@<TRIPOS>SUBSTRUCTURE
     1 0XV         1 TEMP              0 ****  ****    0 ROOT
