@<TRIPOS>MOLECULE
0XW
   24    24     1     0     0
SMALL
bcc


@<TRIPOS>ATOM
      1 C01         0.0690    0.5110   -0.4720 c3        1 0XW      0.090100
      2 N02         1.3700   -0.0260   -0.0050 n4        1 0XW     -0.579800
      3 C03         2.4540    0.9350   -0.3360 c3        1 0XW      0.090100
      4 C04         1.3580   -0.2970    1.4800 c3        1 0XW      0.119800
      5 C05         2.4240   -1.3850    1.7320 c3        1 0XW      0.129100
      6 O06         3.6070   -0.7090    2.1290 oh        1 0XW     -0.617800
      7 C07         2.6030   -2.1030    0.3850 c3        1 0XW     -0.113400
      8 C08         1.6790   -1.3910   -0.6090 c3        1 0XW     -0.035500
      9 C09         0.3690   -2.2800   -0.8050 c         1 0XW      0.929600
     10 O10         0.3260   -2.8900   -1.8900 o         1 0XW     -0.769800
     11 O11        -0.4530   -2.2780    0.1440 o         1 0XW     -0.769800
     12 H1          0.0810    0.5550   -1.5930 hx        1 0XW      0.091200
     13 H2         -0.0800    1.5350   -0.0430 hx        1 0XW      0.091200
     14 H3         -0.7660   -0.1740   -0.1440 hx        1 0XW      0.091200
     15 H4          3.4250    0.5400    0.0690 hx        1 0XW      0.091200
     16 H5          2.2330    1.9300    0.1320 hx        1 0XW      0.091200
     17 H6          2.5210    1.0490   -1.4490 hx        1 0XW      0.091200
     18 H7          0.3430   -0.7200    1.7400 hx        1 0XW      0.114700
     19 H8          1.5750    0.6430    2.0490 hx        1 0XW      0.114700
     20 H9          2.0810   -2.0830    2.5410 h1        1 0XW      0.081700
     21 H10         4.2540   -1.3850    2.3630 ho        1 0XW      0.418000
     22 H11         3.6700   -2.0530    0.0540 hc        1 0XW      0.078700
     23 H12         2.3010   -3.1790    0.4620 hc        1 0XW      0.078700
     24 H13         2.1620   -1.2410   -1.6090 hx        1 0XW      0.093700
@<TRIPOS>BOND
     1    1    2 1   
     2    1   12 1   
     3    1   13 1   
     4    1   14 1   
     5    2    3 1   
     6    2    4 1   
     7    2    8 1   
     8    3   15 1   
     9    3   16 1   
    10    3   17 1   
    11    4    5 1   
    12    4   18 1   
    13    4   19 1   
    14    5    6 1   
    15    5    7 1   
    16    5   20 1   
    17    6   21 1   
    18    7    8 1   
    19    7   22 1   
    20    7   23 1   
    21    8    9 1   
    22    8   24 1   
    23    9   10 1   
    24    9   11 1   
@<TRIPOS>SUBSTRUCTURE
     1 0XW         1 TEMP              0 ****  ****    0 ROOT
