@<TRIPOS>MOLECULE
0XW
   24    24     1     0     0
SMALL
bcc


@<TRIPOS>ATOM
      1 C01         0.0260    0.4610   -0.4640 c3        1 0XW      0.090100
      2 N02         1.3420   -0.0340    0.0080 n4        1 0XW     -0.579800
      3 C03         2.3880    0.9830   -0.2770 c3        1 0XW      0.090100
      4 C04         1.3200   -0.3500    1.4840 c3        1 0XW      0.119800
      5 C05         2.4290   -1.3990    1.7200 c3        1 0XW      0.129100
      6 O06         3.5760   -0.6840    2.1550 oh        1 0XW     -0.617800
      7 C07         2.6590   -2.0670    0.3550 c3        1 0XW     -0.113400
      8 C08         1.7200   -1.3650   -0.6320 c3        1 0XW     -0.035500
      9 C09         0.4520   -2.3030   -0.8750 c         1 0XW      0.929600
     10 O10         0.4510   -2.8810   -1.9780 o         1 0XW     -0.769800
     11 O11        -0.3830   -2.3650    0.0610 o         1 0XW     -0.769800
     12 H1         -0.1740    1.4640   -0.0070 hx        1 0XW      0.091200
     13 H2          0.0520    0.5400   -1.5830 hx        1 0XW      0.091200
     14 H3         -0.7830   -0.2690   -0.1700 hx        1 0XW      0.091200
     15 H4          2.4660    1.1340   -1.3850 hx        1 0XW      0.091200
     16 H5          2.1170    1.9530    0.2160 hx        1 0XW      0.091200
     17 H6          3.3690    0.6180    0.1310 hx        1 0XW      0.091200
     18 H7          1.4870    0.5810    2.0840 hx        1 0XW      0.114700
     19 H8          0.3210   -0.8240    1.7150 hx        1 0XW      0.114700
     20 H9          2.1050   -2.1340    2.5020 h1        1 0XW      0.081700
     21 H10         4.2480   -1.3390    2.3790 ho        1 0XW      0.418000
     22 H11         2.4030   -3.1560    0.3950 hc        1 0XW      0.078700
     23 H12         3.7270   -1.9610    0.0430 hc        1 0XW      0.078700
     24 H13         2.2090   -1.1640   -1.6190 hx        1 0XW      0.093700
@<TRIPOS>BOND
     1    1    2 1   
     2    1   12 1   
     3    1   13 1   
     4    1   14 1   
     5    2    3 1   
     6    2    4 1   
     7    2    8 1   
     8    3   15 1   
     9    3   16 1   
    10    3   17 1   
    11    4    5 1   
    12    4   18 1   
    13    4   19 1   
    14    5    6 1   
    15    5    7 1   
    16    5   20 1   
    17    6   21 1   
    18    7    8 1   
    19    7   22 1   
    20    7   23 1   
    21    8    9 1   
    22    8   24 1   
    23    9   10 1   
    24    9   11 1   
@<TRIPOS>SUBSTRUCTURE
     1 0XW         1 TEMP              0 ****  ****    0 ROOT
