@<TRIPOS>MOLECULE
0XW
   24    24     1     0     0
SMALL
bcc


@<TRIPOS>ATOM
      1 C01        -1.7380    0.6670   -0.2570 c3        1 0XW      0.090100
      2 N02        -0.2900    0.6670   -0.2570 n4        1 0XW     -0.579800
      3 C03         0.2060    1.8270   -0.9660 c3        1 0XW      0.090100
      4 C04         0.2420    0.6670    1.2040 c3        1 0XW      0.119800
      5 C05         0.7130   -0.5270    1.4060 c3        1 0XW      0.129100
      6 O06         1.8530   -0.4650    2.3070 oh        1 0XW     -0.617800
      7 C07         1.1810   -1.0990   -0.0510 c3        1 0XW     -0.113400
      8 C08         0.2630   -0.6840   -0.9490 c3        1 0XW     -0.035500
      9 C09        -0.8240   -1.7220   -1.2620 c         1 0XW      0.929600
     10 O10        -1.1940   -2.5340   -0.3710 o         1 0XW     -0.769800
     11 O11        -1.2900   -1.8140   -2.4330 o         1 0XW     -0.769800
     12 H1         -2.0630    0.5970   -1.1750 hx        1 0XW      0.091200
     13 H2         -2.0630   -0.0920    0.2630 hx        1 0XW      0.091200
     14 H3         -2.0630    1.4970    0.1400 hx        1 0XW      0.091200
     15 H4         -0.1350    1.8200   -1.8800 hx        1 0XW      0.091200
     16 H5         -0.0930    2.6380   -0.5130 hx        1 0XW      0.091200
     17 H6          1.1820    1.8040   -0.9830 hx        1 0XW      0.091200
     18 H7         -0.4860    0.8530    1.8280 hx        1 0XW      0.114700
     19 H8          0.9510    1.3310    1.3040 hx        1 0XW      0.114700
     20 H9          0.0190   -1.1000    1.7840 h1        1 0XW      0.081700
     21 H10         1.7070   -0.9940    3.0050 ho        1 0XW      0.418000
     22 H11         2.0600   -0.7420   -0.2830 hc        1 0XW      0.078700
     23 H12         1.2120   -2.0750   -0.0320 hc        1 0XW      0.078700
     24 H13         0.6490   -0.5210   -1.8300 hx        1 0XW      0.093700
@<TRIPOS>BOND
     1    1    2 1   
     2    1   12 1   
     3    1   13 1   
     4    1   14 1   
     5    2    3 1   
     6    2    4 1   
     7    2    8 1   
     8    3   15 1   
     9    3   16 1   
    10    3   17 1   
    11    4    5 1   
    12    4   18 1   
    13    4   19 1   
    14    5    6 1   
    15    5    7 1   
    16    5   20 1   
    17    6   21 1   
    18    7    8 1   
    19    7   22 1   
    20    7   23 1   
    21    8    9 1   
    22    8   24 1   
    23    9   10 1   
    24    9   11 1   
@<TRIPOS>SUBSTRUCTURE
     1 0XW         1 TEMP              0 ****  ****    0 ROOT
