@<TRIPOS>MOLECULE
0XW
   24    24     1     0     0
SMALL
bcc


@<TRIPOS>ATOM
      1 C01         1.0360    1.7030   -0.9960 c3        1 0XW      0.090100
      2 N02         0.0290    1.0630   -0.1160 n4        1 0XW     -0.579800
      3 C03        -0.4460    2.0460    0.8930 c3        1 0XW      0.090100
      4 C04        -1.1420    0.5300   -0.9050 c3        1 0XW      0.119800
      5 C05        -1.7550   -0.6080   -0.0600 c3        1 0XW      0.129100
      6 O06        -2.8360   -0.0380    0.6620 oh        1 0XW     -0.617800
      7 C07        -0.6290   -1.0750    0.8770 c3        1 0XW     -0.113400
      8 C08         0.5770   -0.1760    0.5810 c3        1 0XW     -0.035500
      9 C09         1.5980   -0.9880   -0.3380 c         1 0XW      0.929600
     10 O10         2.6120   -1.3920    0.2620 o         1 0XW     -0.769800
     11 O11         1.2660   -1.1410   -1.5390 o         1 0XW     -0.769800
     12 H1          1.9440    1.9480   -0.3850 hx        1 0XW      0.091200
     13 H2          1.3330    0.9870   -1.8170 hx        1 0XW      0.091200
     14 H3          0.5990    2.6350   -1.4370 hx        1 0XW      0.091200
     15 H4         -0.8710    2.9450    0.3740 hx        1 0XW      0.091200
     16 H5         -1.2450    1.5650    1.5200 hx        1 0XW      0.091200
     17 H6          0.4140    2.3580    1.5410 hx        1 0XW      0.091200
     18 H7         -1.8800    1.3470   -1.1080 hx        1 0XW      0.114700
     19 H8         -0.7330    0.0880   -1.8610 hx        1 0XW      0.114700
     20 H9         -2.1190   -1.4320   -0.7270 h1        1 0XW      0.081700
     21 H10        -3.2720   -0.7590    1.1330 ho        1 0XW      0.418000
     22 H11        -0.9470   -0.9870    1.9450 hc        1 0XW      0.078700
     23 H12        -0.3530   -2.1400    0.6700 hc        1 0XW      0.078700
     24 H13         1.1130    0.1420    1.5130 hx        1 0XW      0.093700
@<TRIPOS>BOND
     1    1    2 1   
     2    1   12 1   
     3    1   13 1   
     4    1   14 1   
     5    2    3 1   
     6    2    4 1   
     7    2    8 1   
     8    3   15 1   
     9    3   16 1   
    10    3   17 1   
    11    4    5 1   
    12    4   18 1   
    13    4   19 1   
    14    5    6 1   
    15    5    7 1   
    16    5   20 1   
    17    6   21 1   
    18    7    8 1   
    19    7   22 1   
    20    7   23 1   
    21    8    9 1   
    22    8   24 1   
    23    9   10 1   
    24    9   11 1   
@<TRIPOS>SUBSTRUCTURE
     1 0XW         1 TEMP              0 ****  ****    0 ROOT
