@<TRIPOS>MOLECULE
0XW
   24    24     1     0     0
SMALL
bcc


@<TRIPOS>ATOM
      1 C01         0.0160    0.4730   -0.4160 c3        1 0XW      0.090100
      2 N02         1.3390   -0.0270    0.0300 n4        1 0XW     -0.579800
      3 C03         2.3770    1.0020   -0.2410 c3        1 0XW      0.090100
      4 C04         1.3350   -0.3780    1.4980 c3        1 0XW      0.119800
      5 C05         2.4510   -1.4270    1.6970 c3        1 0XW      0.129100
      6 O06         3.5990   -0.7180    2.1370 oh        1 0XW     -0.617800
      7 C07         2.6700   -2.0610    0.3140 c3        1 0XW     -0.113400
      8 C08         1.7160   -1.3400   -0.6450 c3        1 0XW     -0.035500
      9 C09         0.4510   -2.2780   -0.8980 c         1 0XW      0.929600
     10 O10         0.4410   -2.8290   -2.0150 o         1 0XW     -0.769800
     11 O11        -0.3740   -2.3670    0.0450 o         1 0XW     -0.769800
     12 H1         -0.1840    1.4630    0.0670 hx        1 0XW      0.091200
     13 H2          0.0300    0.5790   -1.5320 hx        1 0XW      0.091200
     14 H3         -0.7860   -0.2680   -0.1310 hx        1 0XW      0.091200
     15 H4          2.4430    1.1800   -1.3460 hx        1 0XW      0.091200
     16 H5          2.1070    1.9580    0.2780 hx        1 0XW      0.091200
     17 H6          3.3640    0.6320    0.1480 hx        1 0XW      0.091200
     18 H7          0.3410   -0.8630    1.7280 hx        1 0XW      0.114700
     19 H8          1.5040    0.5380    2.1180 hx        1 0XW      0.114700
     20 H9          2.1390   -2.1830    2.4640 h1        1 0XW      0.081700
     21 H10         4.2770   -1.3740    2.3380 ho        1 0XW      0.418000
     22 H11         2.4190   -3.1520    0.3300 hc        1 0XW      0.078700
     23 H12         3.7340   -1.9420   -0.0070 hc        1 0XW      0.078700
     24 H13         2.1940   -1.1130   -1.6330 hx        1 0XW      0.093700
@<TRIPOS>BOND
     1    1    2 1   
     2    1   12 1   
     3    1   13 1   
     4    1   14 1   
     5    2    3 1   
     6    2    4 1   
     7    2    8 1   
     8    3   15 1   
     9    3   16 1   
    10    3   17 1   
    11    4    5 1   
    12    4   18 1   
    13    4   19 1   
    14    5    6 1   
    15    5    7 1   
    16    5   20 1   
    17    6   21 1   
    18    7    8 1   
    19    7   22 1   
    20    7   23 1   
    21    8    9 1   
    22    8   24 1   
    23    9   10 1   
    24    9   11 1   
@<TRIPOS>SUBSTRUCTURE
     1 0XW         1 TEMP              0 ****  ****    0 ROOT
