@<TRIPOS>MOLECULE
0XY
   30    30     1     0     0
SMALL
bcc


@<TRIPOS>ATOM
      1 N2         -2.2860   -0.0060    0.3040 n         1 0XY     -0.553900
      2 C1         -0.2190    1.3510    0.4000 c3        1 0XY      0.325900
      3 C2         -0.9100    0.0480   -0.0990 c3        1 0XY      0.095700
      4 C3         -0.0600   -1.1400    0.4190 c3        1 0XY      0.128100
      5 C4          1.3620   -0.9940   -0.1490 c3        1 0XY      0.071100
      6 C5          1.9940    0.3530    0.2870 c3        1 0XY      0.309100
      7 C6          3.2980    0.6360   -0.5130 c3        1 0XY      0.119400
      8 C7         -3.3250   -0.0100   -0.6140 c         1 0XY      0.666100
      9 C8         -4.7100   -0.2740   -0.0780 c3        1 0XY     -0.173100
     10 O3         -0.6500   -2.3410   -0.0380 oh        1 0XY     -0.590800
     11 O4          2.1000   -2.0900    0.3550 oh        1 0XY     -0.587800
     12 O5          1.1370    1.4520   -0.0000 os        1 0XY     -0.480600
     13 O6          3.0520    0.5930   -1.8970 oh        1 0XY     -0.591800
     14 O7         -3.1200    0.2330   -1.8190 o         1 0XY     -0.606100
     15 F           2.2210    0.4370    1.6420 f         1 0XY     -0.227300
     16 H1         -2.4610   -0.2790    1.2420 hn        1 0XY      0.319500
     17 H2         -0.6990    2.2730   -0.0370 h2        1 0XY      0.090700
     18 H4         -0.8650    0.0600   -1.2310 h1        1 0XY      0.110700
     19 H5         -0.0130   -1.1300    1.5450 h1        1 0XY      0.077700
     20 H6          1.3380   -1.0140   -1.2760 h1        1 0XY      0.085700
     21 H7          3.7100    1.6300   -0.2010 h1        1 0XY      0.069200
     22 H8          4.0400   -0.1790   -0.3070 h1        1 0XY      0.069200
     23 H9         -4.9700    0.4550    0.7270 hc        1 0XY      0.068367
     24 H10        -5.4420   -0.1690   -0.9150 hc        1 0XY      0.068367
     25 H11        -4.7730   -1.3100    0.3320 hc        1 0XY      0.068367
     26 H12        -0.0550   -3.0560    0.2290 ho        1 0XY      0.423000
     27 H13         2.9220   -2.1320   -0.1500 ho        1 0XY      0.416000
     28 H14         2.4450    1.3170   -2.1030 ho        1 0XY      0.422000
     29 O1         -0.2240    1.3630    1.8040 oh        1 0XY     -0.620800
     30 HO1         0.3850    2.0550    2.0960 ho        1 0XY      0.429000
@<TRIPOS>BOND
     1    1    3 1   
     2    1    8 1   
     3    1   16 1   
     4    2    3 1   
     5    2   12 1   
     6    2   17 1   
     7    2   29 1   
     8    3    4 1   
     9    3   18 1   
    10    4    5 1   
    11    4   10 1   
    12    4   19 1   
    13    5    6 1   
    14    5   11 1   
    15    5   20 1   
    16    6    7 1   
    17    6   12 1   
    18    6   15 1   
    19    7   13 1   
    20    7   21 1   
    21    7   22 1   
    22    8    9 1   
    23    8   14 2   
    24    9   23 1   
    25    9   24 1   
    26    9   25 1   
    27   10   26 1   
    28   11   27 1   
    29   13   28 1   
    30   29   30 1   
@<TRIPOS>SUBSTRUCTURE
     1 0XY         1 TEMP              0 ****  ****    0 ROOT
