@<TRIPOS>MOLECULE
0XY
   30    30     1     0     0
SMALL
bcc


@<TRIPOS>ATOM
      1 N2         -2.0040   -0.4060   -0.3360 n         1 0XY     -0.562900
      2 C1         -0.0720    0.7950   -1.1460 c3        1 0XY      0.316900
      3 C2         -0.5440   -0.4120   -0.3770 c3        1 0XY      0.044700
      4 C3         -0.0300   -0.4310    1.0110 c3        1 0XY      0.100100
      5 C4          1.4550   -0.2570    1.0660 c3        1 0XY      0.113100
      6 C5          1.9200    0.9530    0.2880 c3        1 0XY      0.339100
      7 C6          3.4190    0.9550    0.2390 c3        1 0XY      0.127400
      8 C7         -2.7460   -1.3230   -1.1510 c         1 0XY      0.652100
      9 C8         -4.2710   -1.3180   -1.1100 c3        1 0XY     -0.175100
     10 O3         -0.3760   -1.6980    1.6160 oh        1 0XY     -0.604800
     11 O4          1.8540   -0.1080    2.4410 oh        1 0XY     -0.591800
     12 O5          1.4010    0.9690   -1.0830 os        1 0XY     -0.452600
     13 O6          3.8630    2.1570   -0.3240 oh        1 0XY     -0.580800
     14 O7         -2.1550   -2.1090   -1.8800 o         1 0XY     -0.592100
     15 F           1.5050    2.0710    0.9250 f         1 0XY     -0.235300
     16 H1         -2.4460    0.1590    0.2390 hn        1 0XY      0.316500
     17 H2         -0.3390    0.6940   -2.0890 h2        1 0XY      0.088700
     18 H4         -0.2430   -1.2140   -0.8360 h1        1 0XY      0.114700
     19 H5         -0.4590    0.2990    1.5250 h1        1 0XY      0.075700
     20 H6          1.8760   -1.0440    0.7010 h1        1 0XY      0.070700
     21 H7          3.7740    0.8690    1.1430 h1        1 0XY      0.078200
     22 H8          3.7330    0.1960   -0.3110 h1        1 0XY      0.078200
     23 H9         -4.6190   -1.9690   -1.7650 hc        1 0XY      0.070033
     24 H10        -4.5770   -1.5660   -0.2060 hc        1 0XY      0.070033
     25 H11        -4.6040   -0.4180   -1.3350 hc        1 0XY      0.070033
     26 H12        -0.8040   -1.5580    2.3470 ho        1 0XY      0.424000
     27 H13         2.3110   -0.8200    2.6940 ho        1 0XY      0.433000
     28 H14         4.7620    2.1420   -0.3950 ho        1 0XY      0.412000
     29 O1         -0.6840    1.9320   -0.6250 oh        1 0XY     -0.637800
     30 HO1        -0.9000    2.4600   -1.2670 ho        1 0XY      0.439000
@<TRIPOS>BOND
     1    1    3 1   
     2    1    8 1   
     3    1   16 1   
     4    2    3 1   
     5    2   12 1   
     6    2   17 1   
     7    2   29 1   
     8    3    4 1   
     9    3   18 1   
    10    4    5 1   
    11    4   10 1   
    12    4   19 1   
    13    5    6 1   
    14    5   11 1   
    15    5   20 1   
    16    6    7 1   
    17    6   12 1   
    18    6   15 1   
    19    7   13 1   
    20    7   21 1   
    21    7   22 1   
    22    8    9 1   
    23    8   14 2   
    24    9   23 1   
    25    9   24 1   
    26    9   25 1   
    27   10   26 1   
    28   11   27 1   
    29   13   28 1   
    30   29   30 1   
@<TRIPOS>SUBSTRUCTURE
     1 0XY         1 TEMP              0 ****  ****    0 ROOT
