@<TRIPOS>MOLECULE
0XZ
   55    48     1     0     0
SMALL
bcc


@<TRIPOS>ATOM
      1 CL3        -7.3680    1.6290    2.6410 cl        1 0XZ     -0.015000
      2 C27        -5.6130    2.0730    2.5220 c2        1 0XZ     -0.059000
      3 C26        -4.7310    1.6580    3.5000 c2        1 0XZ     -0.125000
      4 C25        -3.3580    1.8300    3.3180 c1        1 0XZ     -0.110000
      5 C28        -5.1220    2.6700    1.3430 c1        1 0XZ     -0.124000
      6 C29        -3.7720    2.8380    1.1680 c1        1 0XZ     -0.113000
      7 C24        -2.8790    2.4160    2.1600 c1        1 0XZ     -0.090000
      8 C20        -1.3340    2.7090    2.0080 c3        1 0XZ      0.061000
      9 C21        -1.1100    4.1800    1.8560 c3        1 0XZ     -0.178000
     10 C22        -0.4790    4.7420    3.1690 c3        1 0XZ     -0.019000
     11 O23        -0.7890    6.1750    3.3010 oh        1 0XZ     -0.329000
     12 N19        -0.8450    2.0440    0.8850 n3        1 0XZ     -0.361000
     13 C17        -0.0360    0.7770    1.0600 c1        1 0XZ      0.311000
     14 O18         0.1930    0.3370    2.2080 o         1 0XZ     -0.380000
     15 C13         0.5260    0.0460   -0.1610 c2        1 0XZ      0.005000
     16 C12         2.0200   -0.2610    0.0060 c3        1 0XZ     -0.173000
     17 C11         2.6000   -1.1160   -1.1600 c3        1 0XZ     -0.053500
     18 N16         0.2980    0.9960   -1.1880 n3        1 0XZ     -0.344000
     19 C14        -0.2260   -1.2730   -0.4270 c3        1 0XZ     -0.173000
     20 C15         0.4040   -2.1110   -1.5890 c3        1 0XZ     -0.053500
     21 N10         1.8290   -2.3450   -1.4140 n3        1 0XZ     -0.226000
     22 C3          2.3570   -2.9980   -2.6250 c1        1 0XZ      0.174000
     23 N5          2.3770   -2.2870   -3.8150 n1        1 0XZ     -0.246000
     24 C6          2.9320   -2.8220   -4.9050 c1        1 0XZ      0.001000
     25 N4          3.4950   -4.1010   -4.8500 n1        1 0XZ     -0.188000
     26 C1          2.9150   -4.2710   -2.5630 c1        1 0XZ     -0.184000
     27 C9          2.9630   -5.2110   -1.5500 c1        1 0XZ     -0.161000
     28 C8          3.5720   -6.3560   -2.0550 c1        1 0XZ     -0.091000
     29 N7          3.8890   -6.1260   -3.3390 n2        1 0XZ     -0.196000
     30 C2          3.4760   -4.8130   -3.6630 c1        1 0XZ      0.058000
     31 H1         -5.0880    1.2220    4.3650 ha        1 0XZ      0.149000
     32 H2         -2.8020    1.5680    3.9340 ha        1 0XZ      0.143000
     33 H3         -5.7760    2.9810    0.6140 ha        1 0XZ      0.149000
     34 H4         -3.4500    3.2310    0.3910 ha        1 0XZ      0.137000
     35 H5         -0.8360    2.3730    2.8520 h1        1 0XZ      0.133000
     36 H6         -1.9810    4.6340    1.6800 hc        1 0XZ      0.102000
     37 H7         -0.5230    4.3350    1.1340 hc        1 0XZ      0.102000
     38 H8          0.4950    4.6200    3.1430 h1        1 0XZ      0.066500
     39 H9         -0.8240    4.2870    3.8890 h1        1 0XZ      0.066500
     40 H10        -0.3440    6.5000    3.9460 ho        1 0XZ      0.200000
     41 H11        -1.1470    2.2750    0.0630 hn        1 0XZ      0.239000
     42 H12         2.5070    0.5790    0.0500 hc        1 0XZ      0.110500
     43 H13         2.1450   -0.7190    0.8050 hc        1 0XZ      0.110500
     44 H14         3.5340   -1.3640   -0.9400 h1        1 0XZ      0.088000
     45 H15         2.6020   -0.5830   -1.9620 h1        1 0XZ      0.088000
     46 H16        -0.2410    0.6110   -1.8520 hn        1 0XZ      0.155500
     47 H17         1.0970    1.2440   -1.5540 hn        1 0XZ      0.155500
     48 H19        -1.1750   -1.0550   -0.6670 hc        1 0XZ      0.110500
     49 H20        -0.2250   -1.7920    0.3620 hc        1 0XZ      0.110500
     50 H21        -0.0900   -3.0510   -1.6400 h1        1 0XZ      0.088000
     51 H22         0.2590   -1.6130   -2.4700 h1        1 0XZ      0.088000
     52 H23         2.9450   -2.3200   -5.7410 ha        1 0XZ      0.189000
     53 H24         2.6460   -5.0980   -0.6840 DU        1 0XZ      0.200333
     54 H25         3.7420   -7.1160   -1.5930 DU        1 0XZ      0.200333
     55 H26         4.3450   -6.7780   -3.9670 DU        1 0XZ      0.200333
@<TRIPOS>BOND
     1    1    2 1   
     2    2    3 1   
     3    2    5 1   
     4    3    4 1   
     5    3   31 1   
     6    4   32 1   
     7    5   33 1   
     8    6    7 1   
     9    6   34 1   
    10    7    8 1   
    11    8    9 1   
    12    8   12 1   
    13    8   35 1   
    14    9   10 1   
    15    9   36 1   
    16    9   37 1   
    17   10   11 1   
    18   10   38 1   
    19   10   39 1   
    20   11   40 1   
    21   12   13 1   
    22   12   41 1   
    23   13   14 1   
    24   15   16 1   
    25   15   18 1   
    26   15   19 1   
    27   16   17 1   
    28   16   42 1   
    29   16   43 1   
    30   17   21 1   
    31   17   44 1   
    32   17   45 1   
    33   18   46 1   
    34   18   47 1   
    35   19   20 1   
    36   19   48 1   
    37   19   49 1   
    38   20   21 1   
    39   20   50 1   
    40   20   51 1   
    41   21   22 1   
    42   22   26 1   
    43   23   24 1   
    44   24   52 1   
    45   25   30 1   
    46   27   28 1   
    47   28   29 1   
    48   29   30 1   
@<TRIPOS>SUBSTRUCTURE
     1 0XZ         1 TEMP              0 ****  ****    0 ROOT
