@<TRIPOS>MOLECULE
0XZ
   57    60     1     0     0
SMALL
bcc


@<TRIPOS>ATOM
      1 Cl3         0.5050   -0.6110    2.1190 cl        1 0XZ      0.009600
      2 C27         2.0250   -0.3800    1.4380 ca        1 0XZ      0.071400
      3 C26         3.1230   -0.0770    2.2570 ca        1 0XZ     -0.117000
      4 C25         4.3800    0.1140    1.6900 ca        1 0XZ     -0.086500
      5 C28         2.1950   -0.4870    0.0480 ca        1 0XZ     -0.117000
      6 C29         3.4510   -0.2900   -0.5130 ca        1 0XZ     -0.086500
      7 C24         4.5520    0.0140    0.3020 ca        1 0XZ     -0.227300
      8 C20         5.8990    0.2780   -0.2820 c3        1 0XZ      0.221800
      9 C21         5.8570    1.3140   -1.4030 c3        1 0XZ     -0.144400
     10 C22         7.2200    1.6200   -1.9980 c3        1 0XZ      0.109400
     11 O23         7.6390    0.5550   -2.8510 oh        1 0XZ     -0.712800
     12 N19         6.4690   -1.0630   -0.7920 ny        1 0XZ     -0.665800
     13 C17         7.9460   -1.1630   -0.7180 c         1 0XZ      0.521100
     14 O18         8.5480   -0.5200    0.1340 o         1 0XZ     -0.403100
     15 C13         8.6970   -2.0940   -1.7020 c3        1 0XZ      0.088200
     16 C12         9.2230   -3.2910   -0.8770 c3        1 0XZ     -0.115400
     17 C11         9.9750   -4.2790   -1.7670 c3        1 0XZ      0.145800
     18 N16         9.8520   -1.2910   -2.2650 nz        1 0XZ     -0.846600
     19 C14         7.8290   -2.6400   -2.8460 c3        1 0XZ     -0.115400
     20 C15         8.6180   -3.6350   -3.7030 c3        1 0XZ      0.145800
     21 N10         9.1960   -4.7200   -2.9190 nh        1 0XZ     -0.704300
     22 C3          9.9670   -5.6250   -3.7570 ca        1 0XZ      0.597200
     23 N5         11.0570   -5.1650   -4.4330 nb        1 0XZ     -0.779000
     24 C6         11.7400   -6.0610   -5.2020 ca        1 0XZ      0.657900
     25 N4         11.4870   -7.3750   -5.3940 nb        1 0XZ     -0.649000
     26 C1          9.5670   -6.9730   -3.8480 ca        1 0XZ     -0.267400
     27 C9          8.5300   -7.8120   -3.3170 cc        1 0XZ     -0.182200
     28 C8          8.7330   -9.0910   -3.8360 cd        1 0XZ     -0.056100
     29 N7          9.8490   -9.1140   -4.6760 na        1 0XZ     -0.266100
     30 C2         10.3970   -7.8310   -4.7140 ca        1 0XZ      0.453800
     31 H1          2.9920    0.0160    3.3500 ha        1 0XZ      0.183000
     32 H2          5.2320    0.3630    2.3440 ha        1 0XZ      0.142000
     33 H3          1.3300   -0.7180   -0.5980 ha        1 0XZ      0.183000
     34 H4          3.5640   -0.3580   -1.6060 ha        1 0XZ      0.142000
     35 H5          6.6090    0.6330    0.5290 hx        1 0XZ      0.127700
     36 H6          5.4420    2.2570   -0.9440 hc        1 0XZ      0.111200
     37 H7          5.1450    1.0040   -2.2130 hc        1 0XZ      0.111200
     38 H8          7.1850    2.5900   -2.5630 h1        1 0XZ      0.088200
     39 H9          8.0100    1.6890   -1.2000 h1        1 0XZ      0.088200
     40 H10         7.3540    0.7690   -3.7500 ho        1 0XZ      0.453000
     41 H11         6.0520   -1.8180   -0.2250 hn        1 0XZ      0.475300
     42 H12         9.8990   -2.9420   -0.0520 hc        1 0XZ      0.095450
     43 H13         8.3380   -3.7990   -0.4080 hc        1 0XZ      0.095450
     44 H14        10.9750   -3.8340   -2.0480 h1        1 0XZ      0.081200
     45 H15        10.1920   -5.2040   -1.1530 h1        1 0XZ      0.081200
     46 H16         9.4930   -0.4920   -2.8070 hn        1 0XZ      0.485800
     47 H17        10.4480   -0.9510   -1.5000 hn        1 0XZ      0.485800
     48 H19         7.4560   -1.8100   -3.5030 hc        1 0XZ      0.095450
     49 H20         6.9510   -3.1830   -2.4020 hc        1 0XZ      0.095450
     50 H21         9.3750   -3.0690   -4.3220 h1        1 0XZ      0.081200
     51 H22         7.8990   -4.1140   -4.4320 h1        1 0XZ      0.081200
     52 H23        12.6250   -5.6570   -5.7420 h5        1 0XZ      0.074100
     53 H24         7.7390   -7.5070   -2.6390 ha        1 0XZ      0.167000
     54 H25         8.1550  -10.0060   -3.6680 h4        1 0XZ      0.196000
     55 H26        10.2040   -9.9010   -5.1630 hn        1 0XZ      0.337700
     56 H192        6.1730   -1.1750   -1.7700 hn        1 0XZ      0.475300
     57 H163       10.4080   -1.9070   -2.8810 hn        1 0XZ      0.485800
@<TRIPOS>BOND
     1    1    2 1   
     2    2    3 ar  
     3    2    5 ar  
     4    3    4 ar  
     5    3   31 1   
     6    4    7 ar  
     7    4   32 1   
     8    5    6 ar  
     9    5   33 1   
    10    6    7 ar  
    11    6   34 1   
    12    7    8 1   
    13    8    9 1   
    14    8   12 1   
    15    8   35 1   
    16    9   10 1   
    17    9   36 1   
    18    9   37 1   
    19   10   11 1   
    20   10   38 1   
    21   10   39 1   
    22   11   40 1   
    23   12   13 1   
    24   12   41 1   
    25   12   56 1   
    26   13   14 2   
    27   13   15 1   
    28   15   16 1   
    29   15   18 1   
    30   15   19 1   
    31   16   17 1   
    32   16   42 1   
    33   16   43 1   
    34   17   21 1   
    35   17   44 1   
    36   17   45 1   
    37   18   46 1   
    38   18   47 1   
    39   18   57 1   
    40   19   20 1   
    41   19   48 1   
    42   19   49 1   
    43   20   21 1   
    44   20   50 1   
    45   20   51 1   
    46   21   22 1   
    47   22   23 ar  
    48   22   26 ar  
    49   23   24 ar  
    50   24   25 ar  
    51   24   52 1   
    52   25   30 ar  
    53   26   27 1   
    54   26   30 ar  
    55   27   28 2   
    56   27   53 1   
    57   28   29 1   
    58   28   54 1   
    59   29   30 1   
    60   29   55 1   
@<TRIPOS>SUBSTRUCTURE
     1 0XZ         1 TEMP              0 ****  ****    0 ROOT
