@<TRIPOS>MOLECULE
0XZ
   57    60     1     0     0
SMALL
bcc


@<TRIPOS>ATOM
      1 CL3         0.4670   -0.7130    2.1020 cl        1 0XZ      0.009600
      2 C27         1.9870   -0.4600    1.4280 ca        1 0XZ      0.071400
      3 C26         3.0790   -0.1470    2.2510 ca        1 0XZ     -0.117000
      4 C25         4.3350    0.0610    1.6890 ca        1 0XZ     -0.086500
      5 C28         2.1630   -0.5610    0.0370 ca        1 0XZ     -0.117000
      6 C29         3.4180   -0.3460   -0.5190 ca        1 0XZ     -0.086500
      7 C24         4.5120   -0.0310    0.3010 ca        1 0XZ     -0.227300
      8 C20         5.8580    0.2510   -0.2770 c3        1 0XZ      0.221800
      9 C21         5.8070    1.2900   -1.3950 c3        1 0XZ     -0.144400
     10 C22         7.1680    1.6160   -1.9840 c3        1 0XZ      0.109400
     11 O23         7.6030    0.5590   -2.8400 oh        1 0XZ     -0.712800
     12 N19         6.4470   -1.0800   -0.7900 n4        1 0XZ     -0.665800
     13 C17         7.9240   -1.1620   -0.7120 c         1 0XZ      0.521100
     14 O18         8.5150   -0.5140    0.1450 o         1 0XZ     -0.403100
     15 C13         8.6900   -2.0800   -1.6960 c3        1 0XZ      0.088200
     16 C12         9.2280   -3.2730   -0.8740 c3        1 0XZ     -0.115400
     17 C11         9.9950   -4.2480   -1.7650 c3        1 0XZ      0.145800
     18 N16         9.8370   -1.2620   -2.2530 n4        1 0XZ     -0.846600
     19 C14         7.8330   -2.6330   -2.8450 c3        1 0XZ     -0.115400
     20 C15         8.6370   -3.6150   -3.7030 c3        1 0XZ      0.145800
     21 N10         9.2260   -4.6960   -2.9210 nh        1 0XZ     -0.704300
     22 C3         10.0120   -5.5880   -3.7590 ca        1 0XZ      0.597200
     23 N5         11.0970   -5.1110   -4.4300 nb        1 0XZ     -0.779000
     24 C6         11.7950   -5.9960   -5.2000 ca        1 0XZ      0.657900
     25 N4         11.5590   -7.3120   -5.3970 nb        1 0XZ     -0.649000
     26 C1          9.6290   -6.9400   -3.8570 ca        1 0XZ     -0.267400
     27 C9          8.6010   -7.7950   -3.3330 cc        1 0XZ     -0.182200
     28 C8          8.8220   -9.0690   -3.8560 cd        1 0XZ     -0.055100
     29 N7          9.9410   -9.0740   -4.6920 na        1 0XZ     -0.266100
     30 C2         10.4720   -7.7840   -4.7230 ca        1 0XZ      0.453800
     31 H1          2.9420   -0.0590    3.3430 ha        1 0XZ      0.183000
     32 H2          5.1810    0.3190    2.3470 ha        1 0XZ      0.142000
     33 H3          1.3030   -0.8000   -0.6120 ha        1 0XZ      0.183000
     34 H4          3.5350   -0.4090   -1.6110 ha        1 0XZ      0.142000
     35 H5          6.5610    0.6120    0.5370 hx        1 0XZ      0.127700
     36 H6          5.3790    2.2270   -0.9340 hc        1 0XZ      0.111200
     37 H7          5.1020    0.9750   -2.2090 hc        1 0XZ      0.111200
     38 H8          7.1230    2.5870   -2.5470 h1        1 0XZ      0.088200
     39 H9          7.9540    1.6920   -1.1840 h1        1 0XZ      0.088200
     40 H10         7.3190    0.7720   -3.7390 ho        1 0XZ      0.453000
     41 H11         6.1550   -1.1930   -1.7700 hn        1 0XZ      0.475300
     42 H12         9.8970   -2.9200   -0.0450 hc        1 0XZ      0.095450
     43 H13         8.3480   -3.7950   -0.4100 hc        1 0XZ      0.095450
     44 H14        10.2220   -5.1730   -1.1530 h1        1 0XZ      0.081200
     45 H15        10.9910   -3.7910   -2.0400 h1        1 0XZ      0.081200
     46 H16        10.4260   -0.9170   -1.4840 hn        1 0XZ      0.485800
     47 H17         9.4700   -0.4640   -2.7930 hn        1 0XZ      0.485800
     48 H19         6.9610   -3.1880   -2.4060 hc        1 0XZ      0.095450
     49 H20         7.4520   -1.8050   -3.5000 hc        1 0XZ      0.095450
     50 H21         7.9260   -4.1010   -4.4360 h1        1 0XZ      0.081200
     51 H22         9.3890   -3.0380   -4.3180 h1        1 0XZ      0.081200
     52 H23        12.6760   -5.5780   -5.7360 h5        1 0XZ      0.074100
     53 H24         7.8040   -7.5020   -2.6560 ha        1 0XZ      0.167000
     54 H25         8.2550   -9.9920   -3.6930 h4        1 0XZ      0.196000
     55 H26        10.3080   -9.8550   -5.1800 hn        1 0XZ      0.337700
     56 H192        6.0370   -1.8430   -0.2270 hn        1 0XZ      0.475300
     57 H163       10.4020   -1.8680   -2.8680 hn        1 0XZ      0.485800
@<TRIPOS>BOND
     1    1    2 1   
     2    2    3 ar  
     3    2    5 ar  
     4    3    4 ar  
     5    3   31 1   
     6    4    7 ar  
     7    4   32 1   
     8    5    6 ar  
     9    5   33 1   
    10    6    7 ar  
    11    6   34 1   
    12    7    8 1   
    13    8    9 1   
    14    8   12 1   
    15    8   35 1   
    16    9   10 1   
    17    9   36 1   
    18    9   37 1   
    19   10   11 1   
    20   10   38 1   
    21   10   39 1   
    22   11   40 1   
    23   12   13 1   
    24   12   41 1   
    25   12   56 1   
    26   13   14 2   
    27   13   15 1   
    28   15   16 1   
    29   15   18 1   
    30   15   19 1   
    31   16   17 1   
    32   16   42 1   
    33   16   43 1   
    34   17   21 1   
    35   17   44 1   
    36   17   45 1   
    37   18   46 1   
    38   18   47 1   
    39   18   57 1   
    40   19   20 1   
    41   19   48 1   
    42   19   49 1   
    43   20   21 1   
    44   20   50 1   
    45   20   51 1   
    46   21   22 1   
    47   22   23 ar  
    48   22   26 ar  
    49   23   24 ar  
    50   24   25 ar  
    51   24   52 1   
    52   25   30 ar  
    53   26   27 1   
    54   26   30 ar  
    55   27   28 2   
    56   27   53 1   
    57   28   29 1   
    58   28   54 1   
    59   29   30 1   
    60   29   55 1   
@<TRIPOS>SUBSTRUCTURE
     1 0XZ         1 TEMP              0 ****  ****    0 ROOT
