@<TRIPOS>MOLECULE
0XZ
   57    60     1     0     0
SMALL
bcc


@<TRIPOS>ATOM
      1 CL3         0.4290   -0.6030    1.9800 cl        1 0XZ      0.009600
      2 C27         1.9630   -0.3740    1.3290 ca        1 0XZ      0.071400
      3 C26         3.0450   -0.0710    2.1680 ca        1 0XZ     -0.117000
      4 C25         4.3120    0.1190    1.6250 ca        1 0XZ     -0.086500
      5 C28         2.1590   -0.4830   -0.0580 ca        1 0XZ     -0.117000
      6 C29         3.4260   -0.2870   -0.5950 ca        1 0XZ     -0.086500
      7 C24         4.5110    0.0180    0.2410 ca        1 0XZ     -0.227300
      8 C20         5.8690    0.2800   -0.3170 c3        1 0XZ      0.221800
      9 C21         5.8500    1.3150   -1.4400 c3        1 0XZ     -0.144400
     10 C22         7.2230    1.6200   -2.0090 c3        1 0XZ      0.109400
     11 O23         7.6580    0.5530   -2.8530 oh        1 0XZ     -0.712800
     12 N19         6.4490   -1.0610   -0.8140 n4        1 0XZ     -0.665800
     13 C17         7.9240   -1.1610   -0.7120 c         1 0XZ      0.521100
     14 O18         8.5100   -0.5170    0.1500 o         1 0XZ     -0.403100
     15 C13         8.6930   -2.0940   -1.6800 c3        1 0XZ      0.088200
     16 C12         9.2030   -3.2900   -0.8440 c3        1 0XZ     -0.115400
     17 C11         9.9720   -4.2790   -1.7180 c3        1 0XZ      0.145800
     18 N16         9.8600   -1.2930   -2.2230 n4        1 0XZ     -0.846600
     19 C14         7.8470   -2.6420   -2.8400 c3        1 0XZ     -0.115400
     20 C15         8.6520   -3.6380   -3.6810 c3        1 0XZ      0.145800
     21 N10         9.2150   -4.7220   -2.8840 nh        1 0XZ     -0.704300
     22 C3         10.0020   -5.6280   -3.7060 ca        1 0XZ      0.597200
     23 N5         11.1040   -5.1690   -4.3620 nb        1 0XZ     -0.779000
     24 C6         11.8030   -6.0660   -5.1170 ca        1 0XZ      0.657900
     25 N4         11.5530   -7.3800   -5.3110 nb        1 0XZ     -0.649000
     26 C1          9.6040   -6.9760   -3.8030 ca        1 0XZ     -0.267400
     27 C9          8.5570   -7.8150   -3.2910 cc        1 0XZ     -0.182200
     28 C8          8.7700   -9.0940   -3.8040 cd        1 0XZ     -0.055100
     29 N7          9.9020   -9.1180   -4.6230 na        1 0XZ     -0.266100
     30 C2         10.4500   -7.8350   -4.6520 ca        1 0XZ      0.453800
     31 H1          2.8930    0.0240    3.2580 ha        1 0XZ      0.183000
     32 H2          5.1520    0.3690    2.2950 ha        1 0XZ      0.142000
     33 H3          1.3070   -0.7150   -0.7200 ha        1 0XZ      0.183000
     34 H4          3.5600   -0.3570   -1.6850 ha        1 0XZ      0.142000
     35 H5          6.5640    0.6360    0.5070 hx        1 0XZ      0.127700
     36 H6          5.1530    1.0040   -2.2640 hc        1 0XZ      0.111200
     37 H7          5.4260    2.2590   -0.9910 hc        1 0XZ      0.111200
     38 H8          7.9980    1.6890   -1.1970 h1        1 0XZ      0.088200
     39 H9          7.2000    2.5890   -2.5770 h1        1 0XZ      0.088200
     40 H10         7.3910    0.7660   -3.7580 ho        1 0XZ      0.453000
     41 H11         6.0210   -1.8160   -0.2550 hn        1 0XZ      0.475300
     42 H12         8.3090   -3.7980   -0.3920 hc        1 0XZ      0.095450
     43 H13         9.8630   -2.9410   -0.0060 hc        1 0XZ      0.095450
     44 H14        10.1760   -5.2040   -1.0980 h1        1 0XZ      0.081200
     45 H15        10.9770   -3.8350   -1.9800 h1        1 0XZ      0.081200
     46 H16        10.4410   -0.9520   -1.4470 hn        1 0XZ      0.485800
     47 H17         9.5110   -0.4930   -2.7720 hn        1 0XZ      0.485800
     48 H19         7.4870   -1.8120   -3.5050 hc        1 0XZ      0.095450
     49 H20         6.9610   -3.1830   -2.4120 hc        1 0XZ      0.095450
     50 H21         9.4210   -3.0730   -4.2860 h1        1 0XZ      0.081200
     51 H22         7.9470   -4.1180   -4.4230 h1        1 0XZ      0.081200
     52 H23        12.6970   -5.6620   -5.6400 h5        1 0XZ      0.074100
     53 H24         7.7530   -7.5090   -2.6280 ha        1 0XZ      0.167000
     54 H25         8.1900  -10.0090   -3.6460 h4        1 0XZ      0.196000
     55 H26        10.2660   -9.9060   -5.1010 hn        1 0XZ      0.337700
     56 H192        6.1710   -1.1750   -1.7980 hn        1 0XZ      0.475300
     57 H163       10.4260   -1.9090   -2.8270 hn        1 0XZ      0.485800
@<TRIPOS>BOND
     1    1    2 1   
     2    2    3 ar  
     3    2    5 ar  
     4    3    4 ar  
     5    3   31 1   
     6    4    7 ar  
     7    4   32 1   
     8    5    6 ar  
     9    5   33 1   
    10    6    7 ar  
    11    6   34 1   
    12    7    8 1   
    13    8    9 1   
    14    8   12 1   
    15    8   35 1   
    16    9   10 1   
    17    9   36 1   
    18    9   37 1   
    19   10   11 1   
    20   10   38 1   
    21   10   39 1   
    22   11   40 1   
    23   12   13 1   
    24   12   41 1   
    25   12   56 1   
    26   13   14 2   
    27   13   15 1   
    28   15   16 1   
    29   15   18 1   
    30   15   19 1   
    31   16   17 1   
    32   16   42 1   
    33   16   43 1   
    34   17   21 1   
    35   17   44 1   
    36   17   45 1   
    37   18   46 1   
    38   18   47 1   
    39   18   57 1   
    40   19   20 1   
    41   19   48 1   
    42   19   49 1   
    43   20   21 1   
    44   20   50 1   
    45   20   51 1   
    46   21   22 1   
    47   22   23 ar  
    48   22   26 ar  
    49   23   24 ar  
    50   24   25 ar  
    51   24   52 1   
    52   25   30 ar  
    53   26   27 1   
    54   26   30 ar  
    55   27   28 2   
    56   27   53 1   
    57   28   29 1   
    58   28   54 1   
    59   29   30 1   
    60   29   55 1   
@<TRIPOS>SUBSTRUCTURE
     1 0XZ         1 TEMP              0 ****  ****    0 ROOT
