@<TRIPOS>MOLECULE
0XZ
   55    58     1     0     0
SMALL
bcc


@<TRIPOS>ATOM
      1 CL3        -5.7970   -3.9670    0.9990 cl        1 0XZ     -0.089400
      2 C27        -5.0410   -2.4570    0.8190 ca        1 0XZ      0.021400
      3 C26        -4.6740   -1.7240    1.9520 ca        1 0XZ     -0.124000
      4 C25        -4.0510   -0.4860    1.7990 ca        1 0XZ     -0.111500
      5 C28        -4.7890   -1.9560   -0.4630 ca        1 0XZ     -0.124000
      6 C29        -4.1680   -0.7170   -0.6050 ca        1 0XZ     -0.111500
      7 C24        -3.7980    0.0250    0.5220 ca        1 0XZ     -0.107300
      8 C20        -3.1270    1.3710    0.3710 c3        1 0XZ      0.144000
      9 C21        -4.0540    2.3040   -0.4300 c3        1 0XZ     -0.092400
     10 C22        -3.6890    3.7590   -0.1870 c3        1 0XZ      0.130400
     11 O23        -4.3590    4.5210   -1.1800 oh        1 0XZ     -0.606800
     12 N19        -1.8110    1.2400   -0.2220 n         1 0XZ     -0.569900
     13 C17        -0.6920    1.8400    0.3150 c         1 0XZ      0.611100
     14 O18        -0.7810    2.6310    1.2730 o         1 0XZ     -0.606100
     15 C13         0.6790    1.5440   -0.3750 c3        1 0XZ      0.129200
     16 C12         1.7640    2.1960    0.5090 c3        1 0XZ     -0.070400
     17 C11         3.1700    1.7850    0.0790 c3        1 0XZ      0.188800
     18 N16         0.7220    2.0560   -1.7340 n3        1 0XZ     -0.907800
     19 C14         0.9070    0.0180   -0.3380 c3        1 0XZ     -0.070400
     20 C15         2.3340   -0.3440   -0.7440 c3        1 0XZ      0.188800
     21 N10         3.3340    0.3350    0.0730 nh        1 0XZ     -0.732300
     22 C3          4.6590   -0.1530   -0.0990 ca        1 0XZ      0.699200
     23 N5          5.6690    0.6600   -0.5240 nb        1 0XZ     -0.769000
     24 C6          6.9260    0.1340   -0.5920 ca        1 0XZ      0.663900
     25 N4          7.3500   -1.1140   -0.3080 nb        1 0XZ     -0.718000
     26 C1          4.9520   -1.5050    0.2550 ca        1 0XZ     -0.329400
     27 C9          4.2240   -2.6340    0.7700 cc        1 0XZ     -0.150200
     28 C8          5.1330   -3.6770    0.9210 cd        1 0XZ     -0.121100
     29 N7          6.4140   -3.2690    0.5300 na        1 0XZ     -0.283100
     30 C2          6.3400   -1.9340    0.1240 ca        1 0XZ      0.450800
     31 H1         -4.8740   -2.1190    2.9590 ha        1 0XZ      0.150500
     32 H2         -3.7590    0.0890    2.6920 ha        1 0XZ      0.141500
     33 H3         -5.0810   -2.5330   -1.3530 ha        1 0XZ      0.150500
     34 H4         -3.9800   -0.3150   -1.6120 ha        1 0XZ      0.141500
     35 H5         -2.9900    1.8290    1.4020 h1        1 0XZ      0.091700
     36 H6         -4.0030    2.0820   -1.5260 hc        1 0XZ      0.062700
     37 H7         -5.1110    2.1270   -0.1020 hc        1 0XZ      0.062700
     38 H8         -4.0210    4.0820    0.8360 h1        1 0XZ      0.031200
     39 H9         -2.5790    3.9150   -0.2680 h1        1 0XZ      0.031200
     40 H10        -4.1630    5.4470   -0.9930 ho        1 0XZ      0.402000
     41 H11        -1.7060    0.5490   -0.9250 hn        1 0XZ      0.308500
     42 H12         1.6850    3.3120    0.4630 hc        1 0XZ      0.061450
     43 H13         1.5740    1.8900    1.5720 hc        1 0XZ      0.061450
     44 H14         3.3910    2.2300   -0.9330 h1        1 0XZ      0.056200
     45 H15         3.9040    2.2150    0.8180 h1        1 0XZ      0.056200
     46 H16        -0.0200    1.6850   -2.2900 hn        1 0XZ      0.362800
     47 H17         0.6920    3.0560   -1.7400 hn        1 0XZ      0.362800
     48 H19         0.6960   -0.3400    0.7030 hc        1 0XZ      0.061450
     49 H20         0.2140   -0.5140   -1.0390 hc        1 0XZ      0.061450
     50 H21         2.4690   -1.4560   -0.6240 h1        1 0XZ      0.056200
     51 H22         2.4730   -0.0930   -1.8360 h1        1 0XZ      0.056200
     52 H23         7.7090    0.8410   -0.9420 h5        1 0XZ      0.051100
     53 H24         3.1670   -2.6580    1.0180 ha        1 0XZ      0.162000
     54 H25         4.9710   -4.6940    1.2840 h4        1 0XZ      0.170000
     55 H26         7.2350   -3.8150    0.5510 hn        1 0XZ      0.311700
@<TRIPOS>BOND
     1    1    2 1   
     2    2    3 ar  
     3    2    5 ar  
     4    3    4 ar  
     5    3   31 1   
     6    4    7 ar  
     7    4   32 1   
     8    5    6 ar  
     9    5   33 1   
    10    6    7 ar  
    11    6   34 1   
    12    7    8 1   
    13    8    9 1   
    14    8   12 1   
    15    8   35 1   
    16    9   10 1   
    17    9   36 1   
    18    9   37 1   
    19   10   11 1   
    20   10   38 1   
    21   10   39 1   
    22   11   40 1   
    23   12   13 1   
    24   12   41 1   
    25   13   14 2   
    26   13   15 1   
    27   15   16 1   
    28   15   18 1   
    29   15   19 1   
    30   16   17 1   
    31   16   42 1   
    32   16   43 1   
    33   17   21 1   
    34   17   44 1   
    35   17   45 1   
    36   18   46 1   
    37   18   47 1   
    38   19   20 1   
    39   19   48 1   
    40   19   49 1   
    41   20   21 1   
    42   20   50 1   
    43   20   51 1   
    44   21   22 1   
    45   22   23 ar  
    46   22   26 ar  
    47   23   24 ar  
    48   24   25 ar  
    49   24   52 1   
    50   25   30 ar  
    51   26   27 1   
    52   26   30 ar  
    53   27   28 2   
    54   27   53 1   
    55   28   29 1   
    56   28   54 1   
    57   29   30 1   
    58   29   55 1   
@<TRIPOS>SUBSTRUCTURE
     1 0XZ         1 TEMP              0 ****  ****    0 ROOT
