@<TRIPOS>MOLECULE
0Y0
   49    50     1     0     0
SMALL
bcc


@<TRIPOS>ATOM
      1 OXT        -0.5510    1.9280    1.5440 o         1 0Y0     -0.245500
      2 C          -0.3170    1.1370    0.6830 c1        1 0Y0      0.466000
      3 O          -0.2090    0.3770   -0.2310 o         1 0Y0     -0.245500
      4 CA          1.9620    0.4840    1.5700 c2        1 0Y0     -0.778000
      5 N           2.5000   -0.2620    0.4870 n4        1 0Y0      0.102000
      6 CB          2.5030    1.7630    1.9980 c3        1 0Y0     -0.023000
      7 CAS         3.1680    1.6000    3.3820 c3        1 0Y0     -0.160000
      8 NAR         3.3530    2.9090    4.0880 n4        1 0Y0     -0.032000
      9 CAF         3.8210    2.7420    5.4900 c3        1 0Y0     -0.136000
     10 CAA         4.0180    4.0810    6.2030 c3        1 0Y0     -0.038000
     11 OAE         2.7530    4.7500    6.2670 os        1 0Y0     -0.303000
     12 CAB         4.5390    3.8950    7.6450 c3        1 0Y0     -0.008000
     13 OAH         5.9220    4.0960    7.7240 oh        1 0Y0     -0.286000
     14 CAC         3.7280    4.9110    8.4830 c3        1 0Y0     -0.031000
     15 OAI         4.5400    6.0110    8.8290 oh        1 0Y0     -0.308000
     16 CAD         2.6450    5.4850    7.5110 c3        1 0Y0      0.159000
     17 N9          1.2930    5.4000    8.0020 na        1 0Y0     -0.187000
     18 C8          0.6300    4.3040    8.6090 c2        1 0Y0      0.039000
     19 N7         -0.6440    4.5530    8.9520 n2        1 0Y0     -0.130000
     20 C5         -0.8750    5.8770    8.5550 c2        1 0Y0     -0.151000
     21 C4          0.3420    6.4370    7.9300 c2        1 0Y0      0.079000
     22 N3          0.4120    7.7000    7.4440 n2        1 0Y0     -0.094000
     23 C2         -0.7370    8.4110    7.5870 c2        1 0Y0      0.028000
     24 N1         -1.9170    8.0160    8.1500 n2        1 0Y0     -0.139000
     25 C6         -1.9750    6.7520    8.6340 c2        1 0Y0      0.020000
     26 N6         -3.2190    6.2790    9.2700 n4        1 0Y0     -0.012000
     27 H2          1.2770   -0.0710    2.2140 hx        1 0Y0      0.158000
     28 H3          1.7170   -0.6850   -0.0300 hn        1 0Y0      0.207000
     29 H4          3.1240   -1.0160    0.7940 hn        1 0Y0      0.207000
     30 H6          3.2490    2.1970    1.2810 hc        1 0Y0      0.080500
     31 H7          1.6530    2.4990    2.0980 hc        1 0Y0      0.080500
     32 H8          4.1770    1.1160    3.2830 hx        1 0Y0      0.133500
     33 H9          2.5130    0.9530    4.0310 hx        1 0Y0      0.133500
     34 H10         4.0250    3.4820    3.5670 hn        1 0Y0      0.247500
     35 H12         4.8080    2.1930    5.4820 hx        1 0Y0      0.156000
     36 H13         3.0590    2.1170    6.0370 hx        1 0Y0      0.156000
     37 H14         4.7240    4.7450    5.6250 h1        1 0Y0      0.133000
     38 H15         4.3790    2.8430    8.0100 h1        1 0Y0      0.146000
     39 H16         6.1090    5.0450    7.6290 ho        1 0Y0      0.236000
     40 H17         3.2890    4.4230    9.3910 h1        1 0Y0      0.123000
     41 H18         5.0160    5.7840    9.6420 ho        1 0Y0      0.250000
     42 H19         2.8720    6.5720    7.2710 h2        1 0Y0      0.191000
     43 H20         1.1430    3.3450    8.7840 h5        1 0Y0      0.229000
     44 H21        -0.7210    9.4590    7.1980 h5        1 0Y0      0.250000
     45 H22        -3.0540    6.1770   10.2800 hn        1 0Y0      0.280000
     46 H23        -3.4670    5.3630    8.8730 hn        1 0Y0      0.280000
     47 HN3         3.0180    0.3460   -0.1480 hn        1 0Y0      0.207000
     48 HAR2        2.4560    3.4150    4.0970 hn        1 0Y0      0.247500
     49 H63        -3.9920    6.9440    9.1170 hn        1 0Y0      0.280000
@<TRIPOS>BOND
     1    1    2 1   
     2    2    3 1   
     3    4    5 1   
     4    4    6 1   
     5    4   27 1   
     6    5   28 1   
     7    5   29 1   
     8    5   47 1   
     9    6    7 1   
    10    6   30 1   
    11    6   31 1   
    12    7    8 1   
    13    7   32 1   
    14    7   33 1   
    15    8    9 1   
    16    8   34 1   
    17    8   48 1   
    18    9   10 1   
    19    9   35 1   
    20    9   36 1   
    21   10   11 1   
    22   10   12 1   
    23   10   37 1   
    24   11   16 1   
    25   12   13 1   
    26   12   14 1   
    27   12   38 1   
    28   13   39 1   
    29   14   15 1   
    30   14   16 1   
    31   14   40 1   
    32   15   41 1   
    33   16   17 1   
    34   16   42 1   
    35   17   18 1   
    36   17   21 1   
    37   18   19 1   
    38   18   43 1   
    39   19   20 1   
    40   20   21 1   
    41   20   25 1   
    42   21   22 1   
    43   22   23 1   
    44   23   24 1   
    45   23   44 1   
    46   24   25 1   
    47   25   26 1   
    48   26   45 1   
    49   26   46 1   
    50   26   49 1   
@<TRIPOS>SUBSTRUCTURE
     1 0Y0         1 TEMP              0 ****  ****    0 ROOT
