@<TRIPOS>MOLECULE
0Y0
   48    50     1     0     0
SMALL
bcc


@<TRIPOS>ATOM
      1 OXT         1.9100    3.9080    3.0110 o         1 0Y0     -0.743800
      2 C           1.4080    2.9120    2.4380 c         1 0Y0      0.936600
      3 O           1.2660    2.6700    1.2250 o         1 0Y0     -0.743800
      4 CA          0.8640    1.7700    3.4370 c3        1 0Y0     -0.092500
      5 N          -0.2250    1.0350    2.7280 n4        1 0Y0     -0.821600
      6 CB          2.0270    0.8710    3.8410 c3        1 0Y0     -0.107400
      7 CAS         2.7360    1.3670    5.0970 c3        1 0Y0      0.120800
      8 NAR         3.4810    2.6390    4.9110 n4        1 0Y0     -0.780000
      9 CAF         4.0650    3.1420    6.1860 c3        1 0Y0      0.083800
     10 CAA         4.5920    4.5840    6.0540 c3        1 0Y0      0.076100
     11 OAE         3.7930    5.3250    5.1360 os        1 0Y0     -0.413600
     12 CAB         4.5600    5.3250    7.4140 c3        1 0Y0      0.107100
     13 OAH         5.8370    5.7830    7.7700 oh        1 0Y0     -0.572800
     14 CAC         3.5490    6.4860    7.2130 c3        1 0Y0      0.091100
     15 OAI         4.2500    7.7050    7.0550 oh        1 0Y0     -0.588800
     16 CAD         2.8860    6.2070    5.8310 c3        1 0Y0      0.247800
     17 N9          1.5660    5.6360    5.8700 na        1 0Y0     -0.308000
     18 C8          0.6670    5.6410    4.7620 cc        1 0Y0      0.475700
     19 N7         -0.4850    5.0080    5.0050 nd        1 0Y0     -0.561100
     20 C5         -0.3770    4.5320    6.3230 ca        1 0Y0     -0.231200
     21 C4          0.9230    4.8940    6.8790 ca        1 0Y0      0.433800
     22 N3          1.3240    4.5330    8.1330 nb        1 0Y0     -0.767000
     23 C2          0.3730    3.8510    8.8190 ca        1 0Y0      0.683900
     24 N1         -0.8750    3.4790    8.4380 nb        1 0Y0     -0.765000
     25 C6         -1.2830    3.8130    7.1680 ca        1 0Y0      0.726200
     26 N6         -2.5060    3.3940    6.6760 nh        1 0Y0     -0.926500
     27 H2          0.4110    2.2750    4.3360 hx        1 0Y0      0.108700
     28 H3         -1.1050    1.5400    2.8540 hn        1 0Y0      0.460467
     29 H4          0.0120    1.0450    1.7140 hn        1 0Y0      0.460467
     30 H6          1.6820   -0.1740    4.0810 hc        1 0Y0      0.086700
     31 H7          2.7480    0.7920    2.9810 hc        1 0Y0      0.086700
     32 H8          1.9820    1.5260    5.9220 hx        1 0Y0      0.100200
     33 H9          3.4710    0.5790    5.4360 hx        1 0Y0      0.100200
     34 H10         2.8340    3.3820    4.5230 hn        1 0Y0      0.485300
     35 H12         3.2600    3.0980    6.9740 hx        1 0Y0      0.105200
     36 H13         4.9110    2.4680    6.4970 hx        1 0Y0      0.105200
     37 H14         5.6290    4.5790    5.6170 h1        1 0Y0      0.109700
     38 H15         4.2440    4.6540    8.2580 h1        1 0Y0      0.111700
     39 H16         6.0830    6.5020    7.1660 ho        1 0Y0      0.431000
     40 H17         2.8190    6.5540    8.0590 h1        1 0Y0      0.109700
     41 H18         4.4010    8.0650    7.9400 ho        1 0Y0      0.436000
     42 H19         2.8580    7.1400    5.1870 h2        1 0Y0      0.145700
     43 H20         0.9630    6.0900    3.7990 h5        1 0Y0      0.112800
     44 H21         0.6510    3.5580    9.8570 h5        1 0Y0      0.067100
     45 H22        -2.8720    3.9360    5.9250 hn        1 0Y0      0.436300
     46 H23        -3.1760    3.0660    7.3380 hn        1 0Y0      0.436300
     47 HN3        -0.3230    0.0760    3.0560 hn        1 0Y0      0.460467
     48 HAR2        4.2220    2.5150    4.2140 hn        1 0Y0      0.485300
@<TRIPOS>BOND
     1    1    2 1   
     2    2    3 1   
     3    2    4 1   
     4    4    5 1   
     5    4    6 1   
     6    4   27 1   
     7    5   28 1   
     8    5   29 1   
     9    5   47 1   
    10    6    7 1   
    11    6   30 1   
    12    6   31 1   
    13    7    8 1   
    14    7   32 1   
    15    7   33 1   
    16    8    9 1   
    17    8   34 1   
    18    8   48 1   
    19    9   10 1   
    20    9   35 1   
    21    9   36 1   
    22   10   11 1   
    23   10   12 1   
    24   10   37 1   
    25   11   16 1   
    26   12   13 1   
    27   12   14 1   
    28   12   38 1   
    29   13   39 1   
    30   14   15 1   
    31   14   16 1   
    32   14   40 1   
    33   15   41 1   
    34   16   17 1   
    35   16   42 1   
    36   17   18 1   
    37   17   21 1   
    38   18   19 2   
    39   18   43 1   
    40   19   20 1   
    41   20   21 ar  
    42   20   25 ar  
    43   21   22 ar  
    44   22   23 ar  
    45   23   24 ar  
    46   23   44 1   
    47   24   25 ar  
    48   25   26 1   
    49   26   45 1   
    50   26   46 1   
@<TRIPOS>SUBSTRUCTURE
     1 0Y0         1 TEMP              0 ****  ****    0 ROOT
