@<TRIPOS>MOLECULE
0Y0
   48    50     1     0     0
SMALL
bcc


@<TRIPOS>ATOM
      1 OXT         1.8690    3.8680    3.0090 o         1 0Y0     -0.743800
      2 C           1.3510    2.8670    2.4600 c         1 0Y0      0.936600
      3 O           1.1880    2.6070    1.2530 o         1 0Y0     -0.743800
      4 CA          0.8170    1.7430    3.4840 c3        1 0Y0     -0.092500
      5 N          -0.2870    1.0040    2.8040 nz        1 0Y0     -0.821600
      6 CB          1.9810    0.8430    3.8830 c3        1 0Y0     -0.106400
      7 CAS         2.7130    1.3530    5.1200 c3        1 0Y0      0.120800
      8 NAR         3.4630    2.6170    4.9020 ny        1 0Y0     -0.780000
      9 CAF         4.0700    3.1350    6.1600 c3        1 0Y0      0.083800
     10 CAA         4.6040    4.5720    5.9980 c3        1 0Y0      0.076100
     11 OAE         3.7950    5.3040    5.0820 os        1 0Y0     -0.413600
     12 CAB         4.5980    5.3340    7.3470 c3        1 0Y0      0.107100
     13 OAH         5.8830    5.7890    7.6750 oh        1 0Y0     -0.572800
     14 CAC         3.5920    6.4980    7.1450 c3        1 0Y0      0.091100
     15 OAI         4.2980    7.7100    6.9570 oh        1 0Y0     -0.588800
     16 CAD         2.9050    6.2030    5.7780 c3        1 0Y0      0.247800
     17 N9          1.5820    5.6410    5.8460 na        1 0Y0     -0.308000
     18 C8          0.6650    5.6350    4.7530 cc        1 0Y0      0.475700
     19 N7         -0.4870    5.0140    5.0240 nd        1 0Y0     -0.561100
     20 C5         -0.3600    4.5570    6.3470 ca        1 0Y0     -0.231200
     21 C4          0.9510    4.9190    6.8770 ca        1 0Y0      0.433800
     22 N3          1.3690    4.5740    8.1300 nb        1 0Y0     -0.767000
     23 C2          0.4260    3.9090    8.8410 ca        1 0Y0      0.683900
     24 N1         -0.8310    3.5390    8.4860 nb        1 0Y0     -0.765000
     25 C6         -1.2570    3.8570    7.2180 ca        1 0Y0      0.726200
     26 N6         -2.4910    3.4390    6.7520 nv        1 0Y0     -0.926500
     27 H2          0.3820    2.2640    4.3820 hx        1 0Y0      0.108700
     28 H3         -0.0670    0.9980    1.7860 hn        1 0Y0      0.460467
     29 H4         -1.1630    1.5170    2.9370 hn        1 0Y0      0.460467
     30 H6          2.6870    0.7470    3.0130 hc        1 0Y0      0.086700
     31 H7          1.6330   -0.1960    4.1440 hc        1 0Y0      0.086700
     32 H8          1.9740    1.5300    5.9540 hx        1 0Y0      0.100200
     33 H9          3.4480    0.5660    5.4580 hx        1 0Y0      0.100200
     34 H10         4.1920    2.4780    4.1960 hn        1 0Y0      0.485300
     35 H12         3.2770    3.1090    6.9610 hx        1 0Y0      0.105200
     36 H13         4.9170    2.4610    6.4680 hx        1 0Y0      0.105200
     37 H14         5.6340    4.5540    5.5450 h1        1 0Y0      0.109700
     38 H15         4.2920    4.6780    8.2060 h1        1 0Y0      0.111700
     39 H16         6.1250    6.4970    7.0570 ho        1 0Y0      0.431000
     40 H17         2.8750    6.5840    8.0000 h1        1 0Y0      0.109700
     41 H18         4.4650    8.0820    7.8340 ho        1 0Y0      0.436000
     42 H19         2.8720    7.1260    5.1200 h2        1 0Y0      0.144700
     43 H20         0.9480    6.0680    3.7790 h5        1 0Y0      0.112800
     44 H21         0.7180    3.6300    9.8790 h5        1 0Y0      0.067100
     45 H22        -3.1520    3.1250    7.4300 hn        1 0Y0      0.436300
     46 H23        -2.8660    3.9710    5.9990 hn        1 0Y0      0.436300
     47 HN3        -0.3860    0.0510    3.1480 hn        1 0Y0      0.460467
     48 HAR2        2.8140    3.3590    4.5140 hn        1 0Y0      0.485300
@<TRIPOS>BOND
     1    1    2 1   
     2    2    3 1   
     3    2    4 1   
     4    4    5 1   
     5    4    6 1   
     6    4   27 1   
     7    5   28 1   
     8    5   29 1   
     9    5   47 1   
    10    6    7 1   
    11    6   30 1   
    12    6   31 1   
    13    7    8 1   
    14    7   32 1   
    15    7   33 1   
    16    8    9 1   
    17    8   34 1   
    18    8   48 1   
    19    9   10 1   
    20    9   35 1   
    21    9   36 1   
    22   10   11 1   
    23   10   12 1   
    24   10   37 1   
    25   11   16 1   
    26   12   13 1   
    27   12   14 1   
    28   12   38 1   
    29   13   39 1   
    30   14   15 1   
    31   14   16 1   
    32   14   40 1   
    33   15   41 1   
    34   16   17 1   
    35   16   42 1   
    36   17   18 1   
    37   17   21 1   
    38   18   19 2   
    39   18   43 1   
    40   19   20 1   
    41   20   21 ar  
    42   20   25 ar  
    43   21   22 ar  
    44   22   23 ar  
    45   23   24 ar  
    46   23   44 1   
    47   24   25 ar  
    48   25   26 1   
    49   26   45 1   
    50   26   46 1   
@<TRIPOS>SUBSTRUCTURE
     1 0Y0         1 TEMP              0 ****  ****    0 ROOT
