@<TRIPOS>MOLECULE
0Y1
   69    73     1     0     0
SMALL
bcc


@<TRIPOS>ATOM
      1 CBC        -0.2990   -0.2310   -0.2660 ca        1 0Y1     -0.089800
      2 CBG         0.9530   -0.8220   -0.0800 ca        1 0Y1     -0.119000
      3 CBH         1.3510   -1.1640    1.2020 ca        1 0Y1     -0.124000
      4 CBI         0.5190   -0.9270    2.3140 ca        1 0Y1     -0.103000
      5 CBJ        -0.7280   -0.3400    2.1770 ca        1 0Y1     -0.116000
      6 CBD        -1.1420    0.0130    0.8820 ca        1 0Y1     -0.047200
      7 NBE        -2.3260    0.6110    0.4320 na        1 0Y1     -0.166400
      8 CBF        -2.2520    0.7590   -0.9450 cc        1 0Y1     -0.055100
      9 CBB        -1.0340    0.2510   -1.4170 cd        1 0Y1     -0.223400
     10 CBA        -0.5610    0.2440   -2.8030 c3        1 0Y1      0.004800
     11 CAZ        -0.5230   -1.2010   -3.3060 c3        1 0Y1      0.092800
     12 NAR         0.0420   -1.3780   -4.6820 n4        1 0Y1     -0.675400
     13 CAS         1.4300   -0.8190   -4.8050 c3        1 0Y1      0.129800
     14 CB          1.5010    0.6280   -5.2950 c3        1 0Y1     -0.110400
     15 CA          1.6230    0.6970   -6.8170 c3        1 0Y1     -0.051500
     16 C           0.2920    0.1410   -7.4660 c         1 0Y1      0.916600
     17 O           0.1600   -1.1100   -7.4310 o         1 0Y1     -0.780800
     18 OXT        -0.5200    0.9810   -7.9110 o         1 0Y1     -0.780800
     19 N           1.8600    2.0910   -7.3060 n4        1 0Y1     -0.828600
     20 CAF         0.0480   -2.8250   -5.0800 c3        1 0Y1      0.105800
     21 CAA        -1.3200   -3.5080   -5.0110 c3        1 0Y1      0.086100
     22 OAE        -2.3010   -2.6990   -5.6720 os        1 0Y1     -0.431600
     23 CAB        -1.2740   -4.8910   -5.6990 c3        1 0Y1      0.101100
     24 OAH        -1.1980   -5.9300   -4.7610 oh        1 0Y1     -0.563800
     25 CAC        -2.5560   -4.9450   -6.5570 c3        1 0Y1      0.076100
     26 OAI        -3.4920   -5.8250   -5.9720 oh        1 0Y1     -0.582800
     27 CAD        -3.1950   -3.5220   -6.4480 c3        1 0Y1      0.261800
     28 N9         -3.4600   -2.8880   -7.7210 na        1 0Y1     -0.282000
     29 C8         -2.6400   -2.0460   -8.5110 cc        1 0Y1      0.521700
     30 N7         -3.2270   -1.6300   -9.6490 nd        1 0Y1     -0.583100
     31 C5         -4.5050   -2.1960   -9.6320 ca        1 0Y1     -0.127200
     32 C4         -4.6880   -2.9990   -8.4020 ca        1 0Y1      0.452800
     33 N3         -5.8340   -3.6560   -8.1100 nb        1 0Y1     -0.619000
     34 C2         -6.8080   -3.5140   -9.0500 ca        1 0Y1      0.675900
     35 N1         -6.7680   -2.8110  -10.2170 nb        1 0Y1     -0.670000
     36 C6         -5.6120   -2.1570  -10.4980 ca        1 0Y1      0.517200
     37 N6         -5.5060   -1.3830  -11.7480 n4        1 0Y1     -0.815300
     38 H1          1.6130   -1.0010   -0.9390 ha        1 0Y1      0.107000
     39 H2          2.3360   -1.6270    1.3660 ha        1 0Y1      0.143000
     40 H3          0.8760   -1.2140    3.3170 ha        1 0Y1      0.153000
     41 H4         -1.3700   -0.1540    3.0500 ha        1 0Y1      0.153000
     42 H5         -3.0640    0.9220    1.0100 hn        1 0Y1      0.318700
     43 H6         -3.0690    1.2210   -1.5050 h4        1 0Y1      0.173000
     44 H7         -1.2370    0.8610   -3.4550 hc        1 0Y1      0.052700
     45 H8          0.4700    0.6930   -2.8400 hc        1 0Y1      0.052700
     46 H9         -1.5790   -1.6010   -3.3280 hx        1 0Y1      0.108700
     47 H10         0.0890   -1.8250   -2.5910 hx        1 0Y1      0.108700
     48 H12         2.0080   -1.4720   -5.5250 hx        1 0Y1      0.111200
     49 H13         1.9160   -0.8890   -3.7890 hx        1 0Y1      0.111200
     50 H14         2.4070    1.0860   -4.8090 hc        1 0Y1      0.084700
     51 H15         0.6060    1.2200   -4.9600 hc        1 0Y1      0.084700
     52 H16         2.4830    0.0570   -7.1660 hx        1 0Y1      0.115700
     53 H18         0.9340    2.4930   -7.5590 hn        1 0Y1      0.464467
     54 H19         2.4390    2.0660   -8.1480 hn        1 0Y1      0.464467
     55 H21         0.4290   -2.8670   -6.1460 hx        1 0Y1      0.123700
     56 H22         0.7500   -3.3840   -4.3980 hx        1 0Y1      0.123700
     57 H23        -1.6560   -3.6250   -3.9410 h1        1 0Y1      0.091700
     58 H24        -0.3530   -5.0110   -6.3350 h1        1 0Y1      0.109700
     59 H25        -2.0580   -6.0130   -4.3160 ho        1 0Y1      0.434000
     60 H26        -2.3210   -5.2400   -7.6120 h1        1 0Y1      0.088700
     61 H27        -3.2770   -6.7210   -6.2680 ho        1 0Y1      0.444000
     62 H28        -4.1730   -3.5790   -5.8730 h2        1 0Y1      0.137700
     63 H29        -1.6150   -1.7470   -8.1870 h5        1 0Y1      0.153800
     64 H30        -7.7710   -4.0400   -8.8420 h5        1 0Y1      0.106100
     65 H31        -5.0790   -0.4720  -11.5350 hn        1 0Y1      0.480467
     66 H32        -4.9000   -1.8960  -12.4020 hn        1 0Y1      0.480467
     67 HAR1       -0.5690   -0.8930   -5.3650 hn        1 0Y1      0.474800
     68 HN3         2.3100    2.6710   -6.5970 hn        1 0Y1      0.464467
     69 H63        -6.4310   -1.2440  -12.1780 hn        1 0Y1      0.480467
@<TRIPOS>BOND
     1    1    2 ar  
     2    1    6 ar  
     3    1    9 1   
     4    2    3 ar  
     5    2   38 1   
     6    3    4 ar  
     7    3   39 1   
     8    4    5 ar  
     9    4   40 1   
    10    5    6 ar  
    11    5   41 1   
    12    6    7 1   
    13    7    8 1   
    14    7   42 1   
    15    8    9 2   
    16    8   43 1   
    17    9   10 1   
    18   10   11 1   
    19   10   44 1   
    20   10   45 1   
    21   11   12 1   
    22   11   46 1   
    23   11   47 1   
    24   12   13 1   
    25   12   20 1   
    26   12   67 1   
    27   13   14 1   
    28   13   48 1   
    29   13   49 1   
    30   14   15 1   
    31   14   50 1   
    32   14   51 1   
    33   15   16 1   
    34   15   19 1   
    35   15   52 1   
    36   16   17 1   
    37   16   18 1   
    38   19   53 1   
    39   19   54 1   
    40   19   68 1   
    41   20   21 1   
    42   20   55 1   
    43   20   56 1   
    44   21   22 1   
    45   21   23 1   
    46   21   57 1   
    47   22   27 1   
    48   23   24 1   
    49   23   25 1   
    50   23   58 1   
    51   24   59 1   
    52   25   26 1   
    53   25   27 1   
    54   25   60 1   
    55   26   61 1   
    56   27   28 1   
    57   27   62 1   
    58   28   29 1   
    59   28   32 1   
    60   29   30 2   
    61   29   63 1   
    62   30   31 1   
    63   31   32 ar  
    64   31   36 ar  
    65   32   33 ar  
    66   33   34 ar  
    67   34   35 ar  
    68   34   64 1   
    69   35   36 ar  
    70   36   37 1   
    71   37   65 1   
    72   37   66 1   
    73   37   69 1   
@<TRIPOS>SUBSTRUCTURE
     1 0Y1         1 TEMP              0 ****  ****    0 ROOT
