@<TRIPOS>MOLECULE
0Y1
   68    72     1     0     0
SMALL
bcc


@<TRIPOS>ATOM
      1 CBC        -1.4910    0.1840   -1.2300 ca        1 0Y1     -0.087800
      2 CBG        -0.1620    0.2790   -0.8130 ca        1 0Y1     -0.113000
      3 CBH         0.1060    0.6060    0.5070 ca        1 0Y1     -0.134000
      4 CBI        -0.9320    0.8440    1.4270 ca        1 0Y1     -0.109000
      5 CBJ        -2.2650    0.7630    1.0560 ca        1 0Y1     -0.122000
      6 CBD        -2.5510    0.4320   -0.2790 ca        1 0Y1     -0.047200
      7 NBE        -3.7740    0.2790   -0.9420 na        1 0Y1     -0.173400
      8 CBF        -3.5200   -0.0540   -2.2670 cc        1 0Y1     -0.052100
      9 CBB        -2.1400   -0.1250   -2.4870 cd        1 0Y1     -0.206400
     10 CBA        -1.4670   -0.4240   -3.7550 c3        1 0Y1     -0.003200
     11 CAZ        -0.8330   -1.8140   -3.6710 c3        1 0Y1      0.095800
     12 NAR         0.0490   -2.1590   -4.8350 n4        1 0Y1     -0.664400
     13 CAS         1.2290   -1.2340   -4.9220 c3        1 0Y1      0.138800
     14 CB          1.0240   -0.0380   -5.8570 c3        1 0Y1     -0.100400
     15 CA          1.8450   -0.1930   -7.1330 c3        1 0Y1     -0.066500
     16 C           1.3310   -1.4170   -8.0210 c         1 0Y1      0.941600
     17 O           0.9770   -2.4360   -7.3800 o         1 0Y1     -0.777300
     18 OXT         1.3350   -1.2360   -9.2550 o         1 0Y1     -0.777300
     19 N           1.8290    1.0430   -7.9760 n4        1 0Y1     -0.829600
     20 CAF         0.4860   -3.5910   -4.7510 c3        1 0Y1      0.109800
     21 CAA        -0.5470   -4.6360   -5.2170 c3        1 0Y1      0.090100
     22 OAE        -1.8770   -4.1280   -5.1810 os        1 0Y1     -0.442600
     23 CAB        -0.2630   -5.1840   -6.6350 c3        1 0Y1      0.082100
     24 OAH         0.2390   -6.4940   -6.5820 oh        1 0Y1     -0.572800
     25 CAC        -1.6140   -5.1030   -7.3800 c3        1 0Y1      0.084100
     26 OAI        -2.1970   -6.3880   -7.4720 oh        1 0Y1     -0.586800
     27 CAD        -2.5540   -4.2760   -6.4540 c3        1 0Y1      0.249800
     28 N9         -2.9000   -2.9800   -6.9690 na        1 0Y1     -0.291000
     29 C8         -2.0650   -2.0540   -7.6530 cc        1 0Y1      0.369700
     30 N7         -2.6180   -0.8440   -7.8050 nd        1 0Y1     -0.553100
     31 C5         -3.8790   -0.9310   -7.1930 ca        1 0Y1     -0.245200
     32 C4         -4.0730   -2.2690   -6.6430 ca        1 0Y1      0.468800
     33 N3         -5.1980   -2.6620   -5.9830 nb        1 0Y1     -0.722000
     34 C2         -6.1310   -1.6800   -5.9120 ca        1 0Y1      0.691900
     35 N1         -6.0960   -0.4080   -6.3850 nb        1 0Y1     -0.775000
     36 C6         -4.9600    0.0010   -7.0450 ca        1 0Y1      0.746200
     37 N6         -4.8300    1.2940   -7.4990 nh        1 0Y1     -0.932500
     38 H1          0.6540    0.1000   -1.5260 ha        1 0Y1      0.108000
     39 H2          1.1490    0.6860    0.8510 ha        1 0Y1      0.137000
     40 H3         -0.6750    1.1010    2.4670 ha        1 0Y1      0.145000
     41 H4         -3.0700    0.9510    1.7790 ha        1 0Y1      0.147000
     42 H5         -4.6640    0.4000   -0.5350 hn        1 0Y1      0.313700
     43 H6         -4.3410   -0.2150   -2.9710 h4        1 0Y1      0.178000
     44 H7         -2.1950   -0.3850   -4.6090 hc        1 0Y1      0.055200
     45 H8         -0.6740    0.3530   -3.9390 hc        1 0Y1      0.055200
     46 H9         -0.2140   -1.8870   -2.7310 hx        1 0Y1      0.114700
     47 H10        -1.6510   -2.5930   -3.6250 hx        1 0Y1      0.114700
     48 H12         1.4450   -0.8600   -3.8800 hx        1 0Y1      0.103200
     49 H13         2.1190   -1.8300   -5.2790 hx        1 0Y1      0.103200
     50 H14         1.3460    0.8830   -5.2970 hc        1 0Y1      0.075700
     51 H15        -0.0600    0.0970   -6.1250 hc        1 0Y1      0.075700
     52 H16         2.9220   -0.4140   -6.8830 hx        1 0Y1      0.105700
     53 H18         1.9260    0.7250   -8.9660 hn        1 0Y1      0.460800
     54 H19         2.5890    1.6730   -7.7310 hn        1 0Y1      0.460800
     55 H21         1.4030   -3.7180   -5.4030 hx        1 0Y1      0.109200
     56 H22         0.7620   -3.7980   -3.6790 hx        1 0Y1      0.109200
     57 H23        -0.5160   -5.4820   -4.4680 h1        1 0Y1      0.099700
     58 H24         0.5290   -4.5870   -7.1730 h1        1 0Y1      0.142700
     59 H25        -0.4720   -7.0810   -6.2790 ho        1 0Y1      0.424000
     60 H26        -1.4880   -4.6430   -8.3960 h1        1 0Y1      0.092700
     61 H27        -1.8170   -6.8170   -8.2510 ho        1 0Y1      0.435000
     62 H28        -3.5070   -4.8440   -6.2170 h2        1 0Y1      0.153700
     63 H29        -1.0830   -2.3600   -8.0600 h5        1 0Y1      0.112800
     64 H30        -7.0770   -1.9600   -5.3940 h5        1 0Y1      0.067100
     65 H31        -5.6400    1.8720   -7.5220 hn        1 0Y1      0.439800
     66 H32        -4.1390    1.4570   -8.1930 hn        1 0Y1      0.439800
     67 HAR1       -0.4900   -2.0690   -5.7160 hn        1 0Y1      0.470800
     68 HN3         0.9350    1.5270   -7.8820 hn        1 0Y1      0.460800
@<TRIPOS>BOND
     1    1    2 ar  
     2    1    6 ar  
     3    1    9 1   
     4    2    3 ar  
     5    2   38 1   
     6    3    4 ar  
     7    3   39 1   
     8    4    5 ar  
     9    4   40 1   
    10    5    6 ar  
    11    5   41 1   
    12    6    7 1   
    13    7    8 1   
    14    7   42 1   
    15    8    9 2   
    16    8   43 1   
    17    9   10 1   
    18   10   11 1   
    19   10   44 1   
    20   10   45 1   
    21   11   12 1   
    22   11   46 1   
    23   11   47 1   
    24   12   13 1   
    25   12   20 1   
    26   12   67 1   
    27   13   14 1   
    28   13   48 1   
    29   13   49 1   
    30   14   15 1   
    31   14   50 1   
    32   14   51 1   
    33   15   16 1   
    34   15   19 1   
    35   15   52 1   
    36   16   17 1   
    37   16   18 1   
    38   19   53 1   
    39   19   54 1   
    40   19   68 1   
    41   20   21 1   
    42   20   55 1   
    43   20   56 1   
    44   21   22 1   
    45   21   23 1   
    46   21   57 1   
    47   22   27 1   
    48   23   24 1   
    49   23   25 1   
    50   23   58 1   
    51   24   59 1   
    52   25   26 1   
    53   25   27 1   
    54   25   60 1   
    55   26   61 1   
    56   27   28 1   
    57   27   62 1   
    58   28   29 1   
    59   28   32 1   
    60   29   30 2   
    61   29   63 1   
    62   30   31 1   
    63   31   32 ar  
    64   31   36 ar  
    65   32   33 ar  
    66   33   34 ar  
    67   34   35 ar  
    68   34   64 1   
    69   35   36 ar  
    70   36   37 1   
    71   37   65 1   
    72   37   66 1   
@<TRIPOS>SUBSTRUCTURE
     1 0Y1         1 TEMP              0 ****  ****    0 ROOT
