@<TRIPOS>MOLECULE
0Y1
   68    72     1     0     0
SMALL
bcc


@<TRIPOS>ATOM
      1 CBC        -1.4260    0.1780   -1.2240 ca        1 0Y1     -0.087800
      2 CBG        -0.0890    0.2820   -0.8350 ca        1 0Y1     -0.113000
      3 CBH         0.2050    0.6100    0.4790 ca        1 0Y1     -0.134000
      4 CBI        -0.8160    0.8390    1.4210 ca        1 0Y1     -0.109000
      5 CBJ        -2.1550    0.7480    1.0780 ca        1 0Y1     -0.122000
      6 CBD        -2.4670    0.4170   -0.2510 ca        1 0Y1     -0.047200
      7 NBE        -3.7020    0.2550   -0.8890 na        1 0Y1     -0.173400
      8 CBF        -3.4740   -0.0740   -2.2190 cc        1 0Y1     -0.052100
      9 CBB        -2.0980   -0.1350   -2.4680 cd        1 0Y1     -0.206400
     10 CBA        -1.4500   -0.4270   -3.7500 c3        1 0Y1     -0.003200
     11 CAZ        -0.8040   -1.8120   -3.6810 c3        1 0Y1      0.095800
     12 NAR         0.0560   -2.1490   -4.8640 nx        1 0Y1     -0.664400
     13 CAS         1.2270   -1.2140   -4.9740 c3        1 0Y1      0.138800
     14 CB          0.9930   -0.0180   -5.9040 c3        1 0Y1     -0.100400
     15 CA          1.7870   -0.1660   -7.1970 c3        1 0Y1     -0.066500
     16 C           1.2640   -1.3930   -8.0750 c         1 0Y1      0.941600
     17 O           0.9330   -2.4160   -7.4280 o         1 0Y1     -0.777300
     18 OXT         1.2390   -1.2100   -9.3090 o         1 0Y1     -0.777300
     19 N           1.7430    1.0710   -8.0380 nz        1 0Y1     -0.829600
     20 CAF         0.5070   -3.5770   -4.7910 c3        1 0Y1      0.109800
     21 CAA        -0.5280   -4.6300   -5.2360 c3        1 0Y1      0.090100
     22 OAE        -1.8600   -4.1330   -5.1710 os        1 0Y1     -0.442600
     23 CAB        -0.2700   -5.1740   -6.6600 c3        1 0Y1      0.082100
     24 OAH         0.2440   -6.4800   -6.6200 oh        1 0Y1     -0.572800
     25 CAC        -1.6370   -5.1030   -7.3770 c3        1 0Y1      0.084100
     26 OAI        -2.2110   -6.3920   -7.4590 oh        1 0Y1     -0.586800
     27 CAD        -2.5630   -4.2850   -6.4300 c3        1 0Y1      0.249800
     28 N9         -2.9310   -2.9910   -6.9350 na        1 0Y1     -0.291000
     29 C8         -2.1180   -2.0570   -7.6360 cc        1 0Y1      0.369700
     30 N7         -2.6830   -0.8520   -7.7740 nd        1 0Y1     -0.553100
     31 C5         -3.9300   -0.9500   -7.1350 ca        1 0Y1     -0.245200
     32 C4         -4.1010   -2.2890   -6.5830 ca        1 0Y1      0.468800
     33 N3         -5.2090   -2.6930   -5.9000 nb        1 0Y1     -0.722000
     34 C2         -6.1480   -1.7180   -5.8070 ca        1 0Y1      0.691900
     35 N1         -6.1330   -0.4450   -6.2790 nb        1 0Y1     -0.775000
     36 C6         -5.0140   -0.0260   -6.9620 ca        1 0Y1      0.746200
     37 N6         -4.9050    1.2690   -7.4160 nv        1 0Y1     -0.932500
     38 H1          0.7130    0.1100   -1.5650 ha        1 0Y1      0.108000
     39 H2          1.2530    0.6970    0.8020 ha        1 0Y1      0.137000
     40 H3         -0.5390    1.0970    2.4560 ha        1 0Y1      0.145000
     41 H4         -2.9470    0.9290    1.8180 ha        1 0Y1      0.147000
     42 H5         -4.5850    0.3690   -0.4620 hn        1 0Y1      0.313700
     43 H6         -4.3080   -0.2410   -2.9060 h4        1 0Y1      0.178000
     44 H7         -0.6670    0.3560   -3.9500 hc        1 0Y1      0.055200
     45 H8         -2.1970   -0.3930   -4.5880 hc        1 0Y1      0.055200
     46 H9         -1.6140   -2.5980   -3.6190 hx        1 0Y1      0.114700
     47 H10        -0.1650   -1.8810   -2.7540 hx        1 0Y1      0.114700
     48 H12         1.4620   -0.8390   -3.9370 hx        1 0Y1      0.103200
     49 H13         2.1140   -1.8020   -5.3510 hx        1 0Y1      0.103200
     50 H14        -0.0980    0.1080   -6.1480 hc        1 0Y1      0.075700
     51 H15         1.3190    0.9040   -5.3500 hc        1 0Y1      0.075700
     52 H16         2.8710   -0.3780   -6.9710 hx        1 0Y1      0.105700
     53 H18         2.5030    1.7070   -7.8090 hn        1 0Y1      0.460800
     54 H19         0.8470    1.5470   -7.9240 hn        1 0Y1      0.460800
     55 H21         0.8070   -3.7830   -3.7250 hx        1 0Y1      0.109200
     56 H22         1.4100   -3.6960   -5.4620 hx        1 0Y1      0.109200
     57 H23        -0.4740   -5.4770   -4.4900 h1        1 0Y1      0.099700
     58 H24         0.5060   -4.5700   -7.2140 h1        1 0Y1      0.142700
     59 H25        -0.4550   -7.0730   -6.3030 ho        1 0Y1      0.424000
     60 H26        -1.5350   -4.6410   -8.3940 h1        1 0Y1      0.092700
     61 H27        -1.8430   -6.8170   -8.2460 ho        1 0Y1      0.435000
     62 H28        -3.5060   -4.8600   -6.1730 h2        1 0Y1      0.153700
     63 H29        -1.1420   -2.3550   -8.0650 h5        1 0Y1      0.112800
     64 H30        -7.0800   -2.0060   -5.2690 h5        1 0Y1      0.067100
     65 H31        -5.7190    1.8400   -7.4210 hn        1 0Y1      0.439800
     66 H32        -4.2300    1.4380   -8.1250 hn        1 0Y1      0.439800
     67 HAR1       -0.5010   -2.0620   -5.7330 hn        1 0Y1      0.470800
     68 HN3         1.8210    0.7550   -9.0310 hn        1 0Y1      0.460800
@<TRIPOS>BOND
     1    1    2 ar  
     2    1    6 ar  
     3    1    9 1   
     4    2    3 ar  
     5    2   38 1   
     6    3    4 ar  
     7    3   39 1   
     8    4    5 ar  
     9    4   40 1   
    10    5    6 ar  
    11    5   41 1   
    12    6    7 1   
    13    7    8 1   
    14    7   42 1   
    15    8    9 2   
    16    8   43 1   
    17    9   10 1   
    18   10   11 1   
    19   10   44 1   
    20   10   45 1   
    21   11   12 1   
    22   11   46 1   
    23   11   47 1   
    24   12   13 1   
    25   12   20 1   
    26   12   67 1   
    27   13   14 1   
    28   13   48 1   
    29   13   49 1   
    30   14   15 1   
    31   14   50 1   
    32   14   51 1   
    33   15   16 1   
    34   15   19 1   
    35   15   52 1   
    36   16   17 1   
    37   16   18 1   
    38   19   53 1   
    39   19   54 1   
    40   19   68 1   
    41   20   21 1   
    42   20   55 1   
    43   20   56 1   
    44   21   22 1   
    45   21   23 1   
    46   21   57 1   
    47   22   27 1   
    48   23   24 1   
    49   23   25 1   
    50   23   58 1   
    51   24   59 1   
    52   25   26 1   
    53   25   27 1   
    54   25   60 1   
    55   26   61 1   
    56   27   28 1   
    57   27   62 1   
    58   28   29 1   
    59   28   32 1   
    60   29   30 2   
    61   29   63 1   
    62   30   31 1   
    63   31   32 ar  
    64   31   36 ar  
    65   32   33 ar  
    66   33   34 ar  
    67   34   35 ar  
    68   34   64 1   
    69   35   36 ar  
    70   36   37 1   
    71   37   65 1   
    72   37   66 1   
@<TRIPOS>SUBSTRUCTURE
     1 0Y1         1 TEMP              0 ****  ****    0 ROOT
