@<TRIPOS>MOLECULE
0Y2
   68    72     1     0     0
SMALL
bcc


@<TRIPOS>ATOM
      1 CBC        -0.3140   -0.0350   -0.2810 ca        1 0Y2     -0.072800
      2 CBG         0.9980   -0.4600   -0.0180 ca        1 0Y2     -0.130000
      3 CBH         1.3890   -0.6820    1.2900 ca        1 0Y2     -0.102000
      4 CBI         0.4860   -0.4880    2.3540 ca        1 0Y2     -0.113000
      5 CBJ        -0.8100   -0.0660    2.1150 ca        1 0Y2     -0.069000
      6 CBD        -1.2230    0.1660    0.7960 ca        1 0Y2     -0.101100
      7 S1E        -2.7190    0.6910    0.2260 ss        1 0Y2      0.159500
      8 CBF        -2.2500    0.6640   -1.3720 cc        1 0Y2     -0.151400
      9 CBB        -0.9450    0.2620   -1.5450 cd        1 0Y2     -0.153400
     10 CBA        -0.2440    0.1720   -2.8390 c3        1 0Y2     -0.013200
     11 CAZ        -0.1190   -1.3000   -3.2360 c3        1 0Y2      0.094800
     12 NAR         0.6110   -1.5410   -4.5210 n4        1 0Y2     -0.674400
     13 CAS         1.9990   -0.9670   -4.5070 c3        1 0Y2      0.129800
     14 CB          2.1160    0.4490   -5.0720 c3        1 0Y2     -0.111400
     15 CA          2.4090    0.4310   -6.5720 c3        1 0Y2     -0.050500
     16 C           1.1620   -0.1760   -7.3330 c         1 0Y2      0.914600
     17 O           1.0360   -1.4250   -7.2520 o         1 0Y2     -0.779800
     18 OXT         0.3950    0.6280   -7.9050 o         1 0Y2     -0.779800
     19 N           2.6920    1.7970   -7.1130 n4        1 0Y2     -0.828600
     20 CAF         0.6750   -3.0060   -4.8370 c3        1 0Y2      0.102800
     21 CAA        -0.6920   -3.6960   -4.9150 c3        1 0Y2      0.121100
     22 OAE        -1.5920   -2.8980   -5.6950 os        1 0Y2     -0.434600
     23 CAB        -0.5590   -5.0850   -5.5720 c3        1 0Y2      0.091100
     24 OAH        -0.9320   -6.0300   -4.5900 oh        1 0Y2     -0.588800
     25 CAC        -1.5680   -5.0870   -6.7410 c3        1 0Y2      0.083100
     26 OAI        -2.4420   -6.1790   -6.6940 oh        1 0Y2     -0.556800
     27 CAD        -2.3460   -3.7350   -6.5990 c3        1 0Y2      0.229800
     28 N9         -2.5710   -3.0350   -7.8420 na        1 0Y2     -0.274000
     29 C8         -1.6900   -2.2350   -8.6100 cc        1 0Y2      0.520700
     30 N7         -2.2180   -1.8120   -9.7740 nd        1 0Y2     -0.582100
     31 C5         -3.5140   -2.3380   -9.8030 ca        1 0Y2     -0.127200
     32 C4         -3.7720   -3.1190   -8.5720 ca        1 0Y2      0.457800
     33 N3         -4.9510   -3.7350   -8.3180 nb        1 0Y2     -0.622000
     34 C2         -5.8790   -3.5780   -9.3000 ca        1 0Y2      0.678900
     35 N1         -5.7670   -2.8950  -10.4750 nb        1 0Y2     -0.671000
     36 C6         -4.5810   -2.2810  -10.7160 ca        1 0Y2      0.519200
     37 N6         -4.3970   -1.5360  -11.9750 n4        1 0Y2     -0.815300
     38 H1          1.7050   -0.5990   -0.8480 ha        1 0Y2      0.105000
     39 H2          2.4160   -1.0110    1.5130 ha        1 0Y2      0.144000
     40 H3          0.8240   -0.6730    3.3860 ha        1 0Y2      0.156000
     41 H4         -1.5130    0.0900    2.9500 ha        1 0Y2      0.157000
     42 H5         -2.9290    0.9550   -2.1760 h4        1 0Y2      0.174000
     43 H6         -0.8120    0.7370   -3.6270 hc        1 0Y2      0.058200
     44 H7          0.7750    0.6360   -2.7370 hc        1 0Y2      0.058200
     45 H8         -1.1560   -1.7290   -3.3590 hx        1 0Y2      0.110200
     46 H9          0.4150   -1.8630   -2.4160 hx        1 0Y2      0.110200
     47 H11         2.3550   -0.9670   -3.4360 hx        1 0Y2      0.110200
     48 H12         2.6680   -1.6510   -5.1080 hx        1 0Y2      0.110200
     49 H13         2.9600    0.9460   -4.5160 hc        1 0Y2      0.085700
     50 H14         1.1860    1.0490   -4.8740 hc        1 0Y2      0.085700
     51 H15         3.3050   -0.2180   -6.7840 hx        1 0Y2      0.115700
     52 H17         3.3540    1.7270   -7.8890 hn        1 0Y2      0.465133
     53 H18         1.7970    2.1780   -7.4820 hn        1 0Y2      0.465133
     54 H20         1.1960   -3.1000   -5.8390 hx        1 0Y2      0.122700
     55 H21         1.2810   -3.5190   -4.0380 hx        1 0Y2      0.122700
     56 H22        -1.1510   -3.8020   -3.8890 h1        1 0Y2      0.107700
     57 H23         0.4820   -5.2840   -5.9410 h1        1 0Y2      0.080700
     58 H24        -0.7480   -6.9110   -4.9500 ho        1 0Y2      0.446000
     59 H25        -1.0440   -5.1780   -7.7310 h1        1 0Y2      0.117700
     60 H26        -2.8360   -6.2260   -5.8070 ho        1 0Y2      0.430000
     61 H27        -3.3560   -3.9130   -6.1140 h2        1 0Y2      0.120700
     62 H28        -0.6710   -1.9650   -8.2450 h5        1 0Y2      0.151800
     63 H29        -6.8650   -4.0730   -9.1270 h5        1 0Y2      0.106100
     64 H30        -3.9300   -0.6440  -11.7640 hn        1 0Y2      0.480467
     65 H31        -3.8010   -2.0910  -12.6010 hn        1 0Y2      0.480467
     66 HAR1        0.0820   -1.1030   -5.2990 hn        1 0Y2      0.477800
     67 HN3         3.0660    2.4200   -6.3960 hn        1 0Y2      0.465133
     68 H63        -5.3010   -1.3570  -12.4350 hn        1 0Y2      0.480467
@<TRIPOS>BOND
     1    1    2 ar  
     2    1    6 ar  
     3    1    9 1   
     4    2    3 ar  
     5    2   38 1   
     6    3    4 ar  
     7    3   39 1   
     8    4    5 ar  
     9    4   40 1   
    10    5    6 ar  
    11    5   41 1   
    12    6    7 1   
    13    7    8 1   
    14    8    9 2   
    15    8   42 1   
    16    9   10 1   
    17   10   11 1   
    18   10   43 1   
    19   10   44 1   
    20   11   12 1   
    21   11   45 1   
    22   11   46 1   
    23   12   13 1   
    24   12   20 1   
    25   12   66 1   
    26   13   14 1   
    27   13   47 1   
    28   13   48 1   
    29   14   15 1   
    30   14   49 1   
    31   14   50 1   
    32   15   16 1   
    33   15   19 1   
    34   15   51 1   
    35   16   17 1   
    36   16   18 1   
    37   19   52 1   
    38   19   53 1   
    39   19   67 1   
    40   20   21 1   
    41   20   54 1   
    42   20   55 1   
    43   21   22 1   
    44   21   23 1   
    45   21   56 1   
    46   22   27 1   
    47   23   24 1   
    48   23   25 1   
    49   23   57 1   
    50   24   58 1   
    51   25   26 1   
    52   25   27 1   
    53   25   59 1   
    54   26   60 1   
    55   27   28 1   
    56   27   61 1   
    57   28   29 1   
    58   28   32 1   
    59   29   30 2   
    60   29   62 1   
    61   30   31 1   
    62   31   32 ar  
    63   31   36 ar  
    64   32   33 ar  
    65   33   34 ar  
    66   34   35 ar  
    67   34   63 1   
    68   35   36 ar  
    69   36   37 1   
    70   37   64 1   
    71   37   65 1   
    72   37   68 1   
@<TRIPOS>SUBSTRUCTURE
     1 0Y2         1 TEMP              0 ****  ****    0 ROOT
