@<TRIPOS>MOLECULE
0Y2
   67    71     1     0     0
SMALL
bcc


@<TRIPOS>ATOM
      1 CBC        -0.0430   -0.1910   -0.2030 ca        1 0Y2     -0.071800
      2 CBG         1.2080   -0.7900    0.0130 ca        1 0Y2     -0.122000
      3 CBH         1.5650   -1.1700    1.2950 ca        1 0Y2     -0.109000
      4 CBI         0.6870   -0.9630    2.3770 ca        1 0Y2     -0.116000
      5 CBJ        -0.5500   -0.3720    2.1840 ca        1 0Y2     -0.074000
      6 CBD        -0.9260    0.0210    0.8920 ca        1 0Y2     -0.098100
      7 S1E        -2.3510    0.7600    0.3770 ss        1 0Y2      0.133500
      8 CBF        -1.8780    0.8180   -1.2220 cc        1 0Y2     -0.145400
      9 CBB        -0.6280    0.2840   -1.4340 cd        1 0Y2     -0.142400
     10 CBA         0.0590    0.2210   -2.7380 c3        1 0Y2     -0.018200
     11 CAZ        -0.0320   -1.2040   -3.2830 c3        1 0Y2      0.094800
     12 NAR         0.6090   -1.4160   -4.6170 nx        1 0Y2     -0.676400
     13 CAS         2.0480   -0.9940   -4.6440 c3        1 0Y2      0.130800
     14 CB          2.3010    0.4640   -5.0300 c3        1 0Y2     -0.106400
     15 CA          2.4820    0.6150   -6.5380 c3        1 0Y2     -0.077500
     16 C           1.0970    0.2450   -7.2450 c         1 0Y2      0.921600
     17 O           0.8680   -0.9830   -7.3240 o         1 0Y2     -0.758300
     18 OXT         0.3830    1.2130   -7.5800 o         1 0Y2     -0.758300
     19 N           2.8630    2.0030   -6.9370 nz        1 0Y2     -0.826600
     20 CAF         0.5070   -2.8550   -5.0440 c3        1 0Y2      0.106800
     21 CAA        -0.9040   -3.4370   -4.9500 c3        1 0Y2      0.083100
     22 OAE        -1.8210   -2.5710   -5.6210 os        1 0Y2     -0.432600
     23 CAB        -0.9710   -4.8380   -5.6040 c3        1 0Y2      0.136100
     24 OAH        -0.7920   -5.8460   -4.6480 oh        1 0Y2     -0.578800
     25 CAC        -2.3320   -4.8430   -6.3260 c3        1 0Y2      0.084100
     26 OAI        -3.2680   -5.4960   -5.4960 oh        1 0Y2     -0.604800
     27 CAD        -2.7340   -3.3330   -6.4420 c3        1 0Y2      0.249800
     28 N9         -2.7450   -2.8500   -7.7950 na        1 0Y2     -0.312000
     29 C8         -2.0080   -1.8180   -8.4380 cc        1 0Y2      0.431700
     30 N7         -2.3940   -1.6070   -9.7010 nd        1 0Y2     -0.534100
     31 C5         -3.4360   -2.5210   -9.9370 ca        1 0Y2     -0.227200
     32 C4         -3.6760   -3.3160   -8.7450 ca        1 0Y2      0.447800
     33 N3         -4.6170   -4.3010   -8.6510 nb        1 0Y2     -0.773000
     34 C2         -5.3210   -4.4490   -9.8030 ca        1 0Y2      0.697900
     35 N1         -5.2180   -3.7840  -10.9800 nb        1 0Y2     -0.786000
     36 C6         -4.2610   -2.7960  -11.0800 ca        1 0Y2      0.771200
     37 N6         -4.0900   -2.0960  -12.2400 nv        1 0Y2     -0.951500
     38 H1          1.8940   -0.9440   -0.8310 ha        1 0Y2      0.111000
     39 H2          2.5430   -1.6390    1.4820 ha        1 0Y2      0.141000
     40 H3          0.9960   -1.2760    3.3870 ha        1 0Y2      0.150000
     41 H4         -1.2330   -0.2080    3.0320 ha        1 0Y2      0.151000
     42 H5         -2.5180    1.2480   -1.9960 h4        1 0Y2      0.179000
     43 H6          1.1350    0.5170   -2.6010 hc        1 0Y2      0.059200
     44 H7         -0.4180    0.9410   -3.4570 hc        1 0Y2      0.059200
     45 H8         -1.1250   -1.4690   -3.3970 hx        1 0Y2      0.110200
     46 H9          0.4430   -1.9170   -2.5490 hx        1 0Y2      0.110200
     47 H11         2.5860   -1.6570   -5.3850 hx        1 0Y2      0.105200
     48 H12         2.4720   -1.1820   -3.6160 hx        1 0Y2      0.105200
     49 H13         1.4660    1.1330   -4.6860 hc        1 0Y2      0.077200
     50 H14         3.2350    0.7820   -4.4890 hc        1 0Y2      0.077200
     51 H15         3.2750   -0.0900   -6.9140 hx        1 0Y2      0.109700
     52 H17         1.9780    2.5070   -7.1630 hn        1 0Y2      0.460133
     53 H18         3.3640    2.4910   -6.1970 hn        1 0Y2      0.460133
     54 H20         0.8540   -2.8910   -6.1220 hx        1 0Y2      0.120200
     55 H21         1.1870   -3.4730   -4.3940 hx        1 0Y2      0.120200
     56 H22        -1.2380   -3.5130   -3.8760 h1        1 0Y2      0.080700
     57 H23        -0.1360   -4.9800   -6.3460 h1        1 0Y2      0.097700
     58 H24        -1.6460   -6.0450   -4.2330 ho        1 0Y2      0.442000
     59 H25        -2.2570   -5.3480   -7.3250 h1        1 0Y2      0.102700
     60 H26        -4.0080   -5.7670   -6.0570 ho        1 0Y2      0.451000
     61 H27        -3.7590   -3.1690   -5.9840 h2        1 0Y2      0.107700
     62 H28        -1.1950   -1.2820   -7.9200 h5        1 0Y2      0.108800
     63 H29        -6.1080   -5.2350   -9.7820 h5        1 0Y2      0.057100
     64 H30        -3.4160   -1.3720  -12.2700 hn        1 0Y2      0.454800
     65 H31        -4.6690   -2.2650  -13.0260 hn        1 0Y2      0.454800
     66 HAR1        0.0860   -0.8700   -5.3330 hn        1 0Y2      0.486800
     67 HN3         3.4360    1.9700   -7.7820 hn        1 0Y2      0.460133
@<TRIPOS>BOND
     1    1    2 ar  
     2    1    6 ar  
     3    1    9 1   
     4    2    3 ar  
     5    2   38 1   
     6    3    4 ar  
     7    3   39 1   
     8    4    5 ar  
     9    4   40 1   
    10    5    6 ar  
    11    5   41 1   
    12    6    7 1   
    13    7    8 1   
    14    8    9 2   
    15    8   42 1   
    16    9   10 1   
    17   10   11 1   
    18   10   43 1   
    19   10   44 1   
    20   11   12 1   
    21   11   45 1   
    22   11   46 1   
    23   12   13 1   
    24   12   20 1   
    25   12   66 1   
    26   13   14 1   
    27   13   47 1   
    28   13   48 1   
    29   14   15 1   
    30   14   49 1   
    31   14   50 1   
    32   15   16 1   
    33   15   19 1   
    34   15   51 1   
    35   16   17 1   
    36   16   18 1   
    37   19   52 1   
    38   19   53 1   
    39   19   67 1   
    40   20   21 1   
    41   20   54 1   
    42   20   55 1   
    43   21   22 1   
    44   21   23 1   
    45   21   56 1   
    46   22   27 1   
    47   23   24 1   
    48   23   25 1   
    49   23   57 1   
    50   24   58 1   
    51   25   26 1   
    52   25   27 1   
    53   25   59 1   
    54   26   60 1   
    55   27   28 1   
    56   27   61 1   
    57   28   29 1   
    58   28   32 1   
    59   29   30 2   
    60   29   62 1   
    61   30   31 1   
    62   31   32 ar  
    63   31   36 ar  
    64   32   33 ar  
    65   33   34 ar  
    66   34   35 ar  
    67   34   63 1   
    68   35   36 ar  
    69   36   37 1   
    70   37   64 1   
    71   37   65 1   
@<TRIPOS>SUBSTRUCTURE
     1 0Y2         1 TEMP              0 ****  ****    0 ROOT
