@<TRIPOS>MOLECULE
0Y2
   67    71     1     0     0
SMALL
bcc


@<TRIPOS>ATOM
      1 CBC        -1.3050    0.2340   -1.3460 ca        1 0Y2     -0.071800
      2 CBG         0.0340    0.3730   -0.9510 ca        1 0Y2     -0.124000
      3 CBH         0.3220    0.7640    0.3440 ca        1 0Y2     -0.111000
      4 CBI        -0.7120    1.0220    1.2650 ca        1 0Y2     -0.118000
      5 CBJ        -2.0390    0.8930    0.8930 ca        1 0Y2     -0.073000
      6 CBD        -2.3490    0.4990   -0.4150 ca        1 0Y2     -0.097100
      7 S1E        -3.8590    0.2720   -1.1300 ss        1 0Y2      0.130500
      8 CBF        -3.2200   -0.1650   -2.6090 cc        1 0Y2     -0.137400
      9 CBB        -1.8450   -0.1570   -2.6270 cd        1 0Y2     -0.138400
     10 CBA        -1.0060   -0.4740   -3.7980 c3        1 0Y2     -0.020200
     11 CAZ        -0.4100   -1.8710   -3.6260 c3        1 0Y2      0.096800
     12 NAR         0.5740   -2.2540   -4.6900 n4        1 0Y2     -0.663400
     13 CAS         1.7640   -1.3370   -4.6950 c3        1 0Y2      0.137800
     14 CB          1.6510   -0.1650   -5.6760 c3        1 0Y2     -0.100400
     15 CA          2.5840   -0.3560   -6.8670 c3        1 0Y2     -0.066500
     16 C           2.1640   -1.6150   -7.7560 c         1 0Y2      0.941600
     17 O           1.7530   -2.6140   -7.1170 o         1 0Y2     -0.776300
     18 OXT         2.2880   -1.4770   -8.9900 o         1 0Y2     -0.776300
     19 N           2.6360    0.8500   -7.7500 n4        1 0Y2     -0.829600
     20 CAF         0.9910   -3.6850   -4.5240 c3        1 0Y2      0.109800
     21 CAA        -0.0040   -4.7370   -5.0550 c3        1 0Y2      0.090100
     22 OAE        -1.3240   -4.2170   -5.1660 os        1 0Y2     -0.443600
     23 CAB         0.4110   -5.3330   -6.4210 c3        1 0Y2      0.082100
     24 OAH         0.9000   -6.6410   -6.2760 oh        1 0Y2     -0.572800
     25 CAC        -0.8630   -5.2740   -7.2940 c3        1 0Y2      0.084100
     26 OAI        -1.4460   -6.5580   -7.3890 oh        1 0Y2     -0.586800
     27 CAD        -1.8770   -4.4050   -6.4930 c3        1 0Y2      0.249800
     28 N9         -2.1540   -3.1250   -7.0850 na        1 0Y2     -0.292000
     29 C8         -1.2430   -2.2320   -7.7150 cc        1 0Y2      0.368700
     30 N7         -1.7640   -1.0260   -7.9680 nd        1 0Y2     -0.553100
     31 C5         -3.0820   -1.0810   -7.4880 ca        1 0Y2     -0.246200
     32 C4         -3.3460   -2.3940   -6.9100 ca        1 0Y2      0.468800
     33 N3         -4.5380   -2.7540   -6.3560 nb        1 0Y2     -0.723000
     34 C2         -5.4640   -1.7640   -6.4210 ca        1 0Y2      0.693900
     35 N1         -5.3660   -0.5130   -6.9390 nb        1 0Y2     -0.773000
     36 C6         -4.1640   -0.1370   -7.4900 ca        1 0Y2      0.747200
     37 N6         -3.9750    1.1360   -7.9790 nh        1 0Y2     -0.932500
     38 H1          0.8400    0.1770   -1.6720 ha        1 0Y2      0.107000
     39 H2          1.3680    0.8790    0.6680 ha        1 0Y2      0.139000
     40 H3         -0.4550    1.3320    2.2900 ha        1 0Y2      0.149000
     41 H4         -2.8460    1.0980    1.6130 ha        1 0Y2      0.151000
     42 H5         -3.8580   -0.4200   -3.4580 h4        1 0Y2      0.181000
     43 H6         -1.6190   -0.4300   -4.7380 hc        1 0Y2      0.059700
     44 H7         -0.1870    0.2930   -3.8800 hc        1 0Y2      0.059700
     45 H8          0.1130   -1.9360   -2.6280 hx        1 0Y2      0.116200
     46 H9         -1.2430   -2.6360   -3.6460 hx        1 0Y2      0.116200
     47 H11         1.8890   -0.9360   -3.6480 hx        1 0Y2      0.103700
     48 H12         2.6790   -1.9460   -4.9560 hx        1 0Y2      0.103700
     49 H13         1.9250    0.7690   -5.1140 hc        1 0Y2      0.075700
     50 H14         0.5960   -0.0350   -6.0440 hc        1 0Y2      0.075700
     51 H15         3.6350   -0.5570   -6.5130 hx        1 0Y2      0.105700
     52 H17         3.3620    1.5000   -7.4560 hn        1 0Y2      0.461467
     53 H18         2.8330    0.5000   -8.7150 hn        1 0Y2      0.461467
     54 H20         1.1640   -3.8630   -3.4260 hx        1 0Y2      0.109200
     55 H21         1.9630   -3.8360   -5.0840 hx        1 0Y2      0.109200
     56 H22        -0.0550   -5.5590   -4.2810 h1        1 0Y2      0.099700
     57 H23         1.2540   -4.7560   -6.9000 h1        1 0Y2      0.141700
     58 H24         0.1600   -7.2170   -6.0280 ho        1 0Y2      0.424000
     59 H25        -0.6360   -4.8560   -8.3100 h1        1 0Y2      0.093700
     60 H26        -1.0100   -7.0150   -8.1210 ho        1 0Y2      0.435000
     61 H27        -2.8560   -4.9540   -6.3300 h2        1 0Y2      0.154700
     62 H28        -0.2280   -2.5610   -8.0060 h5        1 0Y2      0.112800
     63 H29        -6.4600   -2.0170   -5.9920 h5        1 0Y2      0.068100
     64 H30        -3.2160    1.2660   -8.6050 hn        1 0Y2      0.439800
     65 H31        -4.7720    1.7190   -8.1050 hn        1 0Y2      0.439800
     66 HAR1        0.1210   -2.1890   -5.6210 hn        1 0Y2      0.471800
     67 HN3         1.7310    1.3230   -7.7610 hn        1 0Y2      0.461467
@<TRIPOS>BOND
     1    1    2 ar  
     2    1    6 ar  
     3    1    9 1   
     4    2    3 ar  
     5    2   38 1   
     6    3    4 ar  
     7    3   39 1   
     8    4    5 ar  
     9    4   40 1   
    10    5    6 ar  
    11    5   41 1   
    12    6    7 1   
    13    7    8 1   
    14    8    9 2   
    15    8   42 1   
    16    9   10 1   
    17   10   11 1   
    18   10   43 1   
    19   10   44 1   
    20   11   12 1   
    21   11   45 1   
    22   11   46 1   
    23   12   13 1   
    24   12   20 1   
    25   12   66 1   
    26   13   14 1   
    27   13   47 1   
    28   13   48 1   
    29   14   15 1   
    30   14   49 1   
    31   14   50 1   
    32   15   16 1   
    33   15   19 1   
    34   15   51 1   
    35   16   17 1   
    36   16   18 1   
    37   19   52 1   
    38   19   53 1   
    39   19   67 1   
    40   20   21 1   
    41   20   54 1   
    42   20   55 1   
    43   21   22 1   
    44   21   23 1   
    45   21   56 1   
    46   22   27 1   
    47   23   24 1   
    48   23   25 1   
    49   23   57 1   
    50   24   58 1   
    51   25   26 1   
    52   25   27 1   
    53   25   59 1   
    54   26   60 1   
    55   27   28 1   
    56   27   61 1   
    57   28   29 1   
    58   28   32 1   
    59   29   30 2   
    60   29   62 1   
    61   30   31 1   
    62   31   32 ar  
    63   31   36 ar  
    64   32   33 ar  
    65   33   34 ar  
    66   34   35 ar  
    67   34   63 1   
    68   35   36 ar  
    69   36   37 1   
    70   37   64 1   
    71   37   65 1   
@<TRIPOS>SUBSTRUCTURE
     1 0Y2         1 TEMP              0 ****  ****    0 ROOT
