@<TRIPOS>MOLECULE
0Y4
   49    52     1     0     0
SMALL
bcc


@<TRIPOS>ATOM
      1 C1         -0.1870   -0.8490    0.0860 c3        1 0Y4     -0.051800
      2 C2          1.2690   -0.5750    0.0590 ca        1 0Y4     -0.135300
      3 C3          1.9560   -0.4170    1.2630 ca        1 0Y4     -0.092000
      4 C7          1.9880   -0.4650   -1.1630 ca        1 0Y4      0.085600
      5 C9          1.8380   -0.8450   -3.6360 c         1 0Y4      0.666100
      6 C11         0.8430   -0.9880   -4.7660 c3        1 0Y4     -0.179100
      7 C13         6.1010    1.1570    0.7890 cc        1 0Y4      0.727200
      8 C14         7.5130    1.3320    0.5050 cc        1 0Y4     -0.419300
      9 C15         8.2710    2.2910    1.1900 cd        1 0Y4      0.303300
     10 N18         5.4540    1.9000    1.7200 nd        1 0Y4     -0.727000
     11 C19         5.8490    3.7380    3.4240 cc        1 0Y4     -0.229300
     12 C20         7.0660    4.4540    3.7250 cc        1 0Y4      0.429500
     13 C22         4.5980    3.9100    4.0140 cg        1 0Y4      0.258500
     14 N23         3.5550    4.0580    4.5110 n1        1 0Y4     -0.396800
     15 N29        11.2980    2.1240    2.6120 nc        1 0Y4     -0.673000
     16 C30        12.5480    5.4170    3.5710 c3        1 0Y4      0.023600
     17 C4          3.3220   -0.1660    1.3080 ca        1 0Y4     -0.128000
     18 C5          4.0410   -0.0450    0.1060 ca        1 0Y4      0.149600
     19 C6          3.3670   -0.1890   -1.1250 ca        1 0Y4     -0.191000
     20 N8          1.2970   -0.6060   -2.3790 n         1 0Y4     -0.475100
     21 O10         3.0610   -0.9350   -3.8480 o         1 0Y4     -0.596100
     22 N12         5.4440    0.1410    0.0920 nh        1 0Y4     -0.719300
     23 N16         7.6160    3.0510    2.1670 na        1 0Y4      0.004200
     24 C17         6.2010    2.8140    2.3950 cd        1 0Y4      0.483500
     25 N21         8.1000    4.0320    2.9630 nd        1 0Y4     -0.567100
     26 N24         9.6050    2.5450    0.8100 nh        1 0Y4     -0.653300
     27 C25        10.5380    2.9810    1.7760 cc        1 0Y4      0.433200
     28 C26        10.8990    4.3290    2.0180 cd        1 0Y4     -0.160600
     29 N27        11.8780    4.2930    3.0060 na        1 0Y4     -0.207900
     30 C28        12.0890    2.9390    3.3290 cd        1 0Y4      0.403400
     31 H1         -0.4240   -1.8050   -0.4460 hc        1 0Y4      0.042367
     32 H2         -0.5570   -0.9420    1.1370 hc        1 0Y4      0.042367
     33 H3         -0.7570   -0.0180   -0.4030 hc        1 0Y4      0.042367
     34 H4          1.4000   -0.4980    2.2110 ha        1 0Y4      0.139000
     35 H5          1.4060   -1.1690   -5.7140 hc        1 0Y4      0.069033
     36 H6          0.2370   -0.0570   -4.8770 hc        1 0Y4      0.069033
     37 H7          0.1590   -1.8510   -4.5810 hc        1 0Y4      0.069033
     38 H8          7.9970    0.7000   -0.2510 ha        1 0Y4      0.160000
     39 H9          7.1870    5.2470    4.4670 h4        1 0Y4      0.057800
     40 H10        13.3600    5.7740    2.8800 h1        1 0Y4      0.057367
     41 H11        11.8180    6.2540    3.7360 h1        1 0Y4      0.057367
     42 H12        13.0060    5.1270    4.5530 h1        1 0Y4      0.057367
     43 H13         3.8200   -0.0600    2.2840 ha        1 0Y4      0.160000
     44 H14         3.9300   -0.0930   -2.0700 ha        1 0Y4      0.168000
     45 H15         0.3030   -0.5950   -2.3130 hn        1 0Y4      0.318500
     46 H16         5.8910   -0.1290   -0.7610 hn        1 0Y4      0.437800
     47 H17         9.9710    1.7960    0.2460 hn        1 0Y4      0.427800
     48 H18        10.5140    5.2540    1.5910 h4        1 0Y4      0.194000
     49 H19        12.8150    2.6210    4.0840 h5        1 0Y4      0.065100
@<TRIPOS>BOND
     1    1    2 1   
     2    1   31 1   
     3    1   32 1   
     4    1   33 1   
     5    2    3 ar  
     6    2    4 ar  
     7    3   17 ar  
     8    3   34 1   
     9    4   19 ar  
    10    4   20 1   
    11    5    6 1   
    12    5   20 1   
    13    5   21 2   
    14    6   35 1   
    15    6   36 1   
    16    6   37 1   
    17    7    8 1   
    18    7   10 2   
    19    7   22 1   
    20    8    9 2   
    21    8   38 1   
    22    9   23 1   
    23    9   26 1   
    24   10   24 1   
    25   11   12 1   
    26   11   13 1   
    27   11   24 2   
    28   12   25 2   
    29   12   39 1   
    30   13   14 3   
    31   15   27 1   
    32   15   30 2   
    33   16   29 1   
    34   16   40 1   
    35   16   41 1   
    36   16   42 1   
    37   17   18 ar  
    38   17   43 1   
    39   18   19 ar  
    40   18   22 1   
    41   19   44 1   
    42   20   45 1   
    43   22   46 1   
    44   23   24 1   
    45   23   25 1   
    46   26   27 1   
    47   26   47 1   
    48   27   28 2   
    49   28   29 1   
    50   28   48 1   
    51   29   30 1   
    52   30   49 1   
@<TRIPOS>SUBSTRUCTURE
     1 0Y4         1 TEMP              0 ****  ****    0 ROOT
