@<TRIPOS>MOLECULE
0Y4
   49    52     1     0     0
SMALL
bcc


@<TRIPOS>ATOM
      1 C1         -0.2280   -0.7550    0.1070 c3        1 0Y4     -0.051800
      2 C2          1.2330   -0.5110    0.0610 ca        1 0Y4     -0.135300
      3 C3          1.9370   -0.3540    1.2550 ca        1 0Y4     -0.092000
      4 C7          1.9400   -0.4280   -1.1700 ca        1 0Y4      0.085600
      5 C9          1.7540   -0.8310   -3.6370 c         1 0Y4      0.666100
      6 C11         0.7430   -0.9660   -4.7540 c3        1 0Y4     -0.179100
      7 C13         6.1070    1.1300    0.7190 cc        1 0Y4      0.727200
      8 C14         7.5190    1.2730    0.4180 cc        1 0Y4     -0.419300
      9 C15         8.3050    2.2220    1.0850 cd        1 0Y4      0.303300
     10 N18         5.4860    1.8960    1.6490 nd        1 0Y4     -0.727000
     11 C19         5.9380    3.7420    3.3290 cc        1 0Y4     -0.229300
     12 C20         7.1720    4.4360    3.6100 cc        1 0Y4      0.429500
     13 C22         4.6970    3.9470    3.9310 cg        1 0Y4      0.258500
     14 N23         3.6630    4.1210    4.4370 n1        1 0Y4     -0.396800
     15 N29        11.3420    2.0030    2.4760 nc        1 0Y4     -0.673000
     16 C30        12.6740    5.2750    3.3910 c3        1 0Y4      0.023600
     17 C4          3.3080   -0.1300    1.2830 ca        1 0Y4     -0.128000
     18 C5          4.0160   -0.0370    0.0710 ca        1 0Y4      0.149600
     19 C6          3.3240   -0.1800   -1.1510 ca        1 0Y4     -0.191000
     20 N8          1.2320   -0.5680   -2.3770 ns        1 0Y4     -0.475100
     21 O10         2.9720   -0.9480   -3.8610 o         1 0Y4     -0.596100
     22 N12         5.4210    0.1200    0.0390 nu        1 0Y4     -0.719300
     23 N16         7.6760    3.0060    2.0610 na        1 0Y4      0.004200
     24 C17         6.2590    2.8010    2.3060 cd        1 0Y4      0.483500
     25 N21         8.1890    3.9840    2.8420 nd        1 0Y4     -0.567100
     26 N24         9.6390    2.4440    0.6890 nu        1 0Y4     -0.653300
     27 C25        10.5920    2.8680    1.6400 cc        1 0Y4      0.433200
     28 C26        10.9850    4.2110    1.8660 cd        1 0Y4     -0.160600
     29 N27        11.9730    4.1620    2.8440 na        1 0Y4     -0.207900
     30 C28        12.1590    2.8070    3.1770 cd        1 0Y4      0.403400
     31 H1         -0.4900   -1.7110   -0.4110 hc        1 0Y4      0.042367
     32 H2         -0.7860    0.0820   -0.3840 hc        1 0Y4      0.042367
     33 H3         -0.5870   -0.8290    1.1640 hc        1 0Y4      0.042367
     34 H4          1.3910   -0.4140    2.2110 ha        1 0Y4      0.139000
     35 H5          1.2920   -1.1680   -5.7060 hc        1 0Y4      0.069033
     36 H6          0.0440   -1.8130   -4.5520 hc        1 0Y4      0.069033
     37 H7          0.1550   -0.0240   -4.8680 hc        1 0Y4      0.069033
     38 H8          7.9820    0.6230   -0.3360 ha        1 0Y4      0.160000
     39 H9          7.3180    5.2340    4.3420 h4        1 0Y4      0.057800
     40 H10        13.1280    4.9870    4.3760 h1        1 0Y4      0.057367
     41 H11        13.4920    5.6020    2.6930 h1        1 0Y4      0.057367
     42 H12        11.9660    6.1330    3.5470 h1        1 0Y4      0.057367
     43 H13         3.8190   -0.0250    2.2520 ha        1 0Y4      0.160000
     44 H14         3.8780   -0.1050   -2.1020 ha        1 0Y4      0.168000
     45 H15         0.2400   -0.5360   -2.3000 hn        1 0Y4      0.318500
     46 H16         5.8530   -0.1670   -0.8150 hn        1 0Y4      0.437800
     47 H17         9.9840    1.6830    0.1280 hn        1 0Y4      0.427800
     48 H18        10.6150    5.1400    1.4350 h4        1 0Y4      0.194000
     49 H19        12.8850    2.4790    3.9280 h5        1 0Y4      0.065100
@<TRIPOS>BOND
     1    1    2 1   
     2    1   31 1   
     3    1   32 1   
     4    1   33 1   
     5    2    3 ar  
     6    2    4 ar  
     7    3   17 ar  
     8    3   34 1   
     9    4   19 ar  
    10    4   20 1   
    11    5    6 1   
    12    5   20 1   
    13    5   21 2   
    14    6   35 1   
    15    6   36 1   
    16    6   37 1   
    17    7    8 1   
    18    7   10 2   
    19    7   22 1   
    20    8    9 2   
    21    8   38 1   
    22    9   23 1   
    23    9   26 1   
    24   10   24 1   
    25   11   12 1   
    26   11   13 1   
    27   11   24 2   
    28   12   25 2   
    29   12   39 1   
    30   13   14 3   
    31   15   27 1   
    32   15   30 2   
    33   16   29 1   
    34   16   40 1   
    35   16   41 1   
    36   16   42 1   
    37   17   18 ar  
    38   17   43 1   
    39   18   19 ar  
    40   18   22 1   
    41   19   44 1   
    42   20   45 1   
    43   22   46 1   
    44   23   24 1   
    45   23   25 1   
    46   26   27 1   
    47   26   47 1   
    48   27   28 2   
    49   28   29 1   
    50   28   48 1   
    51   29   30 1   
    52   30   49 1   
@<TRIPOS>SUBSTRUCTURE
     1 0Y4         1 TEMP              0 ****  ****    0 ROOT
