@<TRIPOS>MOLECULE
0Y4
   52    55     1     0     0
SMALL
bcc


@<TRIPOS>ATOM
      1 C1          0.8410   -2.0720   -0.5940 c3        1 0Y4     -0.118800
      2 C2          2.1590   -1.4050   -0.4900 ca        1 0Y4      0.036700
      3 C3          3.2410   -2.1030    0.0720 ca        1 0Y4     -0.089000
      4 C7          2.3760   -0.0790   -0.9320 ca        1 0Y4     -0.037400
      5 C9          1.4920    1.0180   -3.0200 c         1 0Y4      0.584100
      6 C11         0.3520    0.6600   -3.9010 c3        1 0Y4     -0.193100
      7 C13         6.2790    1.2570    0.9830 cc        1 0Y4      0.485200
      8 C14         7.5740    1.1840    1.6300 cc        1 0Y4     -0.224300
      9 C15         7.8230    2.0360    2.7010 cd        1 0Y4      0.163300
     10 N18         5.2980    2.0840    1.3470 nd        1 0Y4     -0.547000
     11 C19         4.7670    3.8950    3.0660 cc        1 0Y4     -0.023300
     12 C20         5.6140    4.4190    4.1130 cc        1 0Y4      0.479500
     13 C22         3.4530    4.2490    2.7460 cg        1 0Y4      0.179500
     14 N23         2.3580    4.5300    2.4670 n1        1 0Y4     -0.239800
     15 N29        10.4250    2.3110    1.2530 nc        1 0Y4     -0.675000
     16 C30        13.0230    4.8100    1.9120 c3        1 0Y4     -0.010400
     17 C4          4.5000   -1.5310    0.1920 ca        1 0Y4     -0.049000
     18 C5          4.7030   -0.2130   -0.2660 ca        1 0Y4     -0.045400
     19 C6          3.6430    0.5250   -0.8140 ca        1 0Y4     -0.040000
     20 N8          1.2780    0.6930   -1.5180 n4        1 0Y4     -0.576200
     21 O10         2.5580    1.5450   -3.2760 o         1 0Y4     -0.407100
     22 N12         6.0490    0.3780   -0.1950 n4        1 0Y4     -0.612100
     23 N16         6.8290    2.9150    3.1250 na        1 0Y4      0.033200
     24 C17         5.5480    2.9070    2.4050 cd        1 0Y4      0.366500
     25 N21         6.8340    3.8130    4.1160 nd        1 0Y4     -0.511100
     26 N24         9.1380    2.0320    3.3900 n4        1 0Y4     -0.562100
     27 C25        10.1670    2.6690    2.5980 cc        1 0Y4      0.226200
     28 C26        11.0800    3.6730    3.0320 cd        1 0Y4     -0.104600
     29 N27        11.9020    3.9100    1.9510 na        1 0Y4     -0.146900
     30 C28        11.4760    3.0710    0.8990 cd        1 0Y4      0.470400
     31 H1          0.4870   -2.1070   -1.6560 hc        1 0Y4      0.097367
     32 H2          0.8930   -3.1340   -0.2300 hc        1 0Y4      0.097367
     33 H3          0.0750   -1.5480    0.0360 hc        1 0Y4      0.097367
     34 H4          3.0840   -3.1430    0.4260 ha        1 0Y4      0.210000
     35 H5          0.6360    0.9020   -4.9640 hc        1 0Y4      0.134700
     36 H6         -0.5620    1.2580   -3.6390 hc        1 0Y4      0.134700
     37 H7          0.1110   -0.4330   -3.8370 hc        1 0Y4      0.134700
     38 H8          8.3590    0.4990    1.2630 ha        1 0Y4      0.215000
     39 H9          5.3620    5.2070    4.8430 h4        1 0Y4      0.128800
     40 H10        13.1290    5.2230    0.8710 h1        1 0Y4      0.100367
     41 H11        13.9620    4.2570    2.1910 h1        1 0Y4      0.100367
     42 H12        12.8590    5.6550    2.6330 h1        1 0Y4      0.100367
     43 H13         5.3190   -2.1260    0.6350 ha        1 0Y4      0.184000
     44 H14         3.7980    1.5640   -1.1660 ha        1 0Y4      0.189000
     45 H15         0.3960    0.1740   -1.4100 hn        1 0Y4      0.475300
     46 H16         6.2110    0.9420   -1.0480 hn        1 0Y4      0.487300
     47 H17         9.0900    2.5150    4.3060 hn        1 0Y4      0.497300
     48 H18        11.1830    4.1890    3.9930 h4        1 0Y4      0.228000
     49 H19        11.9720    3.0580   -0.0860 h5        1 0Y4      0.115100
     50 H82         1.1940    1.5820   -1.0050 hn        1 0Y4      0.475300
     51 H122        6.7440   -0.3850   -0.1650 hn        1 0Y4      0.487300
     52 H242        9.4040    1.0430    3.5470 hn        1 0Y4      0.497300
@<TRIPOS>BOND
     1    1    2 1   
     2    1   31 1   
     3    1   32 1   
     4    1   33 1   
     5    2    3 ar  
     6    2    4 ar  
     7    3   17 ar  
     8    3   34 1   
     9    4   19 ar  
    10    4   20 1   
    11    5    6 1   
    12    5   20 1   
    13    5   21 2   
    14    6   35 1   
    15    6   36 1   
    16    6   37 1   
    17    7    8 1   
    18    7   10 2   
    19    7   22 1   
    20    8    9 2   
    21    8   38 1   
    22    9   23 1   
    23    9   26 1   
    24   10   24 1   
    25   11   12 1   
    26   11   13 1   
    27   11   24 2   
    28   12   25 2   
    29   12   39 1   
    30   13   14 3   
    31   15   27 1   
    32   15   30 2   
    33   16   29 1   
    34   16   40 1   
    35   16   41 1   
    36   16   42 1   
    37   17   18 ar  
    38   17   43 1   
    39   18   19 ar  
    40   18   22 1   
    41   19   44 1   
    42   20   45 1   
    43   20   50 1   
    44   22   46 1   
    45   22   51 1   
    46   23   24 1   
    47   23   25 1   
    48   26   27 1   
    49   26   47 1   
    50   26   52 1   
    51   27   28 2   
    52   28   29 1   
    53   28   48 1   
    54   29   30 1   
    55   30   49 1   
@<TRIPOS>SUBSTRUCTURE
     1 0Y4         1 TEMP              0 ****  ****    0 ROOT
