@<TRIPOS>MOLECULE
0Y4
   49    52     1     0     0
SMALL
bcc


@<TRIPOS>ATOM
      1 C1          6.3240    2.0660   -0.5700 c3        1 0Y4     -0.051800
      2 C2          5.0550    1.3020   -0.6060 ca        1 0Y4     -0.135300
      3 C3          3.8900    1.9330   -1.0400 ca        1 0Y4     -0.092000
      4 C7          4.9900   -0.0610   -0.2040 ca        1 0Y4      0.085600
      5 C9          6.3800   -2.0610    0.3850 c         1 0Y4      0.666100
      6 C11         7.7570   -2.4610    0.8690 c3        1 0Y4     -0.179100
      7 C13         0.1700   -0.4020   -0.2740 cc        1 0Y4      0.727200
      8 C14        -0.9110   -1.3700   -0.2970 cc        1 0Y4     -0.419300
      9 C15        -2.1890   -1.0340    0.1700 cd        1 0Y4      0.303300
     10 N18        -0.0020    0.8600    0.1920 nd        1 0Y4     -0.727000
     11 C19        -1.7700    2.4000    1.1590 cc        1 0Y4     -0.229300
     12 C20        -3.1560    2.1240    1.4530 cc        1 0Y4      0.429500
     13 C22        -1.0870    3.6000    1.3530 cg        1 0Y4      0.258500
     14 N23        -0.5210    4.6040    1.5170 n1        1 0Y4     -0.396800
     15 N29        -5.2310   -1.5740   -1.1180 nc        1 0Y4     -0.673000
     16 C30        -7.8880   -0.8080    1.2650 c3        1 0Y4      0.023600
     17 C4          2.6690    1.2720   -1.1040 ca        1 0Y4     -0.128000
     18 C5          2.5910   -0.0720   -0.7000 ca        1 0Y4      0.149600
     19 C6          3.7530   -0.7300   -0.2450 ca        1 0Y4     -0.191000
     20 N8          6.1580   -0.6970    0.2520 n         1 0Y4     -0.475100
     21 O10         5.5170   -2.9220    0.1340 o         1 0Y4     -0.596100
     22 N12         1.3910   -0.8150   -0.8090 nh        1 0Y4     -0.719300
     23 N16        -2.3800    0.2720    0.6360 na        1 0Y4      0.004200
     24 C17        -1.2500    1.1840    0.6250 cd        1 0Y4      0.483500
     25 N21        -3.4940    0.8530    1.1380 nd        1 0Y4     -0.567100
     26 N24        -3.1910   -2.0210    0.2690 nh        1 0Y4     -0.653300
     27 C25        -4.5470   -1.6600    0.1210 cc        1 0Y4      0.433200
     28 C26        -5.4440   -1.3860    1.1830 cd        1 0Y4     -0.160600
     29 N27        -6.6750   -1.1290    0.5880 na        1 0Y4     -0.207900
     30 C28        -6.4980   -1.2600   -0.8020 cd        1 0Y4      0.403400
     31 H1          6.7070    2.1520    0.4780 hc        1 0Y4      0.042367
     32 H2          7.1070    1.5690   -1.1970 hc        1 0Y4      0.042367
     33 H3          6.1770    3.1020   -0.9640 hc        1 0Y4      0.042367
     34 H4          3.9360    2.9910   -1.3480 ha        1 0Y4      0.139000
     35 H5          7.7980   -3.5760    0.9370 hc        1 0Y4      0.069033
     36 H6          8.5410   -2.1130    0.1540 hc        1 0Y4      0.069033
     37 H7          7.9600   -2.0280    1.8770 hc        1 0Y4      0.069033
     38 H8         -0.7280   -2.3770   -0.6940 ha        1 0Y4      0.160000
     39 H9         -3.8820    2.8210    1.8780 h4        1 0Y4      0.057800
     40 H10        -8.5980   -0.3120    0.5510 h1        1 0Y4      0.057367
     41 H11        -8.3670   -1.7420    1.6680 h1        1 0Y4      0.057367
     42 H12        -7.6760   -0.1100    2.1190 h1        1 0Y4      0.057367
     43 H13         1.7800    1.8120   -1.4650 ha        1 0Y4      0.160000
     44 H14         3.6930   -1.7850    0.0740 ha        1 0Y4      0.168000
     45 H15         6.9310   -0.0970    0.4380 hn        1 0Y4      0.318500
     46 H16         1.5160   -1.8060   -0.8330 hn        1 0Y4      0.437800
     47 H17        -2.9570   -2.8330   -0.2790 hn        1 0Y4      0.427800
     48 H18        -5.2760   -1.3320    2.2570 h4        1 0Y4      0.194000
     49 H19        -7.3150   -1.1090   -1.5160 h5        1 0Y4      0.065100
@<TRIPOS>BOND
     1    1    2 1   
     2    1   31 1   
     3    1   32 1   
     4    1   33 1   
     5    2    3 ar  
     6    2    4 ar  
     7    3   17 ar  
     8    3   34 1   
     9    4   19 ar  
    10    4   20 1   
    11    5    6 1   
    12    5   20 1   
    13    5   21 2   
    14    6   35 1   
    15    6   36 1   
    16    6   37 1   
    17    7    8 1   
    18    7   10 2   
    19    7   22 1   
    20    8    9 2   
    21    8   38 1   
    22    9   23 1   
    23    9   26 1   
    24   10   24 1   
    25   11   12 1   
    26   11   13 1   
    27   11   24 2   
    28   12   25 2   
    29   12   39 1   
    30   13   14 3   
    31   15   27 1   
    32   15   30 2   
    33   16   29 1   
    34   16   40 1   
    35   16   41 1   
    36   16   42 1   
    37   17   18 ar  
    38   17   43 1   
    39   18   19 ar  
    40   18   22 1   
    41   19   44 1   
    42   20   45 1   
    43   22   46 1   
    44   23   24 1   
    45   23   25 1   
    46   26   27 1   
    47   26   47 1   
    48   27   28 2   
    49   28   29 1   
    50   28   48 1   
    51   29   30 1   
    52   30   49 1   
@<TRIPOS>SUBSTRUCTURE
     1 0Y4         1 TEMP              0 ****  ****    0 ROOT
