@<TRIPOS>MOLECULE
0Y4
   49    39     1     0     0
SMALL
bcc


@<TRIPOS>ATOM
      1 C1         -4.1530   -4.5330    1.0350 c3        1 0Y4     -0.176000
      2 C2         -3.2130   -3.4630    0.4950 c1        1 0Y4     -0.128000
      3 C3         -1.9130   -3.3310    1.0270 c1        1 0Y4     -0.110000
      4 C7         -3.6280   -2.6300   -0.5600 c1        1 0Y4      0.092000
      5 C9         -5.3580   -2.6510   -2.3920 c1        1 0Y4      0.310000
      6 C11        -6.8090   -2.7240   -2.8440 c2        1 0Y4     -0.247000
      7 C13         0.2540    0.2730   -0.2440 c1        1 0Y4      0.201000
      8 C14         1.6150    0.3700   -0.3670 c1        1 0Y4     -0.325000
      9 C15         2.3050    1.2350    0.4130 c1        1 0Y4      0.247000
     10 N18        -0.3950    1.0370    0.6500 n1        1 0Y4     -0.201000
     11 C19        -0.1000    2.7700    2.4410 c1        1 0Y4     -0.178000
     12 C20         1.0110    3.3980    2.9370 c1        1 0Y4     -0.064000
     13 C22        -1.3940    3.2100    2.9930 c1        1 0Y4     -0.034000
     14 N23        -2.4350    3.5640    3.4380 n1        1 0Y4     -0.072000
     15 N29         4.2390    2.9460   -0.9520 n2        1 0Y4     -0.139000
     16 C30         7.6880    3.7760   -0.4030 c3        1 0Y4     -0.077000
     17 C4         -1.0300   -2.3630    0.5010 c1        1 0Y4     -0.110000
     18 C5         -1.4470   -1.5280   -0.5570 c1        1 0Y4      0.067000
     19 C6         -2.7420   -1.6590   -1.0880 c1        1 0Y4     -0.190000
     20 N8         -5.0380   -2.6920   -0.9960 n3        1 0Y4     -0.329000
     21 O10        -4.4740   -2.5650   -3.2120 o         1 0Y4     -0.358000
     22 N12        -0.5420   -0.5760   -1.1170 n2        1 0Y4     -0.238000
     23 N16         1.6400    2.0120    1.3230 n2        1 0Y4     -0.127000
     24 C17         0.3030    1.9140    1.4410 c1        1 0Y4      0.135000
     25 N21         2.0860    2.9400    2.2580 n1        1 0Y4     -0.117000
     26 N24         3.7490    1.0840    0.5290 n2        1 0Y4     -0.187000
     27 C25         4.5830    2.0200   -0.0230 c2        1 0Y4     -0.082000
     28 C26         5.8990    2.2050    0.2890 c1        1 0Y4     -0.111000
     29 N27         6.3610    3.2420   -0.4460 n3        1 0Y4     -0.162000
     30 C28         5.3360    3.7030   -1.2150 c1        1 0Y4     -0.085000
     31 H1         -4.5820   -4.2060    1.8690 hc        1 0Y4      0.081333
     32 H2         -4.8390   -4.7260    0.3710 hc        1 0Y4      0.081333
     33 H3         -3.6350   -5.3640    1.2300 hc        1 0Y4      0.081333
     34 H4         -1.6320   -3.8940    1.7420 ha        1 0Y4      0.149500
     35 H5         -6.8630   -3.2170   -3.6940 ha        1 0Y4      0.108000
     36 H6         -7.3470   -3.1920   -2.1560 ha        1 0Y4      0.108000
     37 H7         -7.1600   -1.8110   -2.9710 ha        1 0Y4      0.108000
     38 H8          2.0760   -0.1700   -1.0020 ha        1 0Y4      0.169000
     39 H9          1.0330    3.9900    3.6990 DU        1 0Y4      0.196333
     40 H10         8.2640    3.2760   -1.0300 h1        1 0Y4      0.099000
     41 H11         7.6690    4.7380   -0.6650 h1        1 0Y4      0.099000
     42 H12         8.0430    3.6920    0.5000 h1        1 0Y4      0.099000
     43 H13        -0.1340   -2.2720    0.8680 ha        1 0Y4      0.149500
     44 H14        -3.0350   -1.0730   -1.8300 ha        1 0Y4      0.167000
     45 H15        -5.7140   -2.7070   -0.3690 hn        1 0Y4      0.232000
     46 H16        -0.4510   -0.5160   -2.0000 hn        1 0Y4      0.232000
     47 H17         4.1010    0.3620    0.9730 hn        1 0Y4      0.240000
     48 H18         6.4270    1.6700    0.9450 DU        1 0Y4      0.196333
     49 H19         5.3810    4.4360   -1.8360 DU        1 0Y4      0.196333
@<TRIPOS>BOND
     1    1    2 1   
     2    1   31 1   
     3    1   32 1   
     4    1   33 1   
     5    2    4 1   
     6    3   17 1   
     7    3   34 1   
     8    4   20 1   
     9    5   20 1   
    10    5   21 1   
    11    6   35 1   
    12    6   36 1   
    13    6   37 1   
    14    7   10 1   
    15    7   22 1   
    16    8    9 1   
    17    8   38 1   
    18    9   23 1   
    19   11   12 1   
    20   11   24 1   
    21   12   25 1   
    22   13   14 1   
    23   15   27 1   
    24   15   30 1   
    25   16   29 1   
    26   16   40 1   
    27   16   41 1   
    28   16   42 1   
    29   17   43 1   
    30   18   19 1   
    31   19   44 1   
    32   20   45 1   
    33   22   46 1   
    34   23   24 1   
    35   26   27 1   
    36   26   47 1   
    37   27   28 1   
    38   28   29 1   
    39   29   30 1   
@<TRIPOS>SUBSTRUCTURE
     1 0Y4         1 TEMP              0 ****  ****    0 ROOT
