@<TRIPOS>MOLECULE
0Y5
   59    62     1     0     0
SMALL
bcc


@<TRIPOS>ATOM
      1 C26        -5.8940    0.3310   -2.5920 ca        1 0Y5     -0.128000
      2 C19        -1.8420   -3.0970    0.0200 ca        1 0Y5     -0.120000
      3 C27        -6.0690    1.7150   -2.5710 ca        1 0Y5     -0.114000
      4 C18        -0.6110   -2.4890   -0.1980 ca        1 0Y5     -0.123000
      5 C25        -5.1730   -0.3110   -1.5870 ca        1 0Y5     -0.112000
      6 C22        -1.6520   -0.3170   -0.0250 ca        1 0Y5     -0.141000
      7 C29        -4.7870    1.8490   -0.5130 ca        1 0Y5     -0.112000
      8 C20        -3.0090   -2.3420    0.2120 ca        1 0Y5     -0.087600
      9 C17        -0.5090   -1.0920   -0.2230 ca        1 0Y5     -0.126300
     10 C28        -5.5190    2.4640   -1.5290 ca        1 0Y5     -0.173300
     11 C24        -4.6190    0.4580   -0.5530 ca        1 0Y5      0.112100
     12 C21        -2.8870   -0.9480    0.1940 ca        1 0Y5      0.078100
     13 C3          6.5250   -1.1810    0.0650 cc        1 0Y5      0.051600
     14 C2          7.7700   -0.8300   -0.3670 cd        1 0Y5     -0.274400
     15 C8          8.1750    0.5850   -0.3530 c         1 0Y5      0.718700
     16 C5          5.9290    1.1170    0.5380 c         1 0Y5      0.805500
     17 C12         2.6150   -0.9300    2.8000 c3        1 0Y5     -0.076400
     18 C11         3.9560   -0.3360    2.4240 c3        1 0Y5     -0.097400
     19 C13         1.5210   -0.5090    1.8210 c3        1 0Y5      0.157800
     20 C15         3.1410   -0.2010    0.0500 c3        1 0Y5      0.150800
     21 C10         4.2810   -0.7190    0.9730 c3        1 0Y5      0.116700
     22 C1          8.7500   -1.8130   -0.8670 c3        1 0Y5     -0.025900
     23 C30        -5.7320    3.9690   -1.4970 c3        1 0Y5      0.688200
     24 N7          7.2110    1.4980    0.1040 n         1 0Y5     -0.588500
     25 N4          5.5980   -0.2630    0.5290 n         1 0Y5     -0.365000
     26 N14         1.8660   -0.7920    0.4340 n3        1 0Y5     -0.729600
     27 O23        -3.9690   -0.1200    0.5330 os        1 0Y5     -0.250200
     28 F31        -6.8940    4.3730   -0.8800 f         1 0Y5     -0.248967
     29 F32        -4.7550    4.6840   -0.8460 f         1 0Y5     -0.248967
     30 F33        -5.8020    4.5700   -2.7330 f         1 0Y5     -0.248967
     31 H1         -6.3380   -0.2640   -3.4030 ha        1 0Y5      0.137000
     32 H2         -1.9210   -4.1950    0.0480 ha        1 0Y5      0.142000
     33 H3         -6.6360    2.2180   -3.3670 ha        1 0Y5      0.133000
     34 H4          0.2900   -3.0990   -0.3480 ha        1 0Y5      0.123000
     35 H5         -5.0550   -1.4180   -1.5660 ha        1 0Y5      0.231000
     36 H6         -1.5990    0.7810   -0.0330 ha        1 0Y5      0.127000
     37 H7         -4.3560    2.4360    0.3120 ha        1 0Y5      0.152000
     38 H8          6.1960   -2.2400    0.0650 h4        1 0Y5      0.166000
     39 H9          2.6880   -2.0480    2.8300 hc        1 0Y5      0.049700
     40 H10         2.3260   -0.5800    3.8250 hc        1 0Y5      0.049700
     41 H11         3.9230    0.7810    2.5220 hc        1 0Y5      0.058200
     42 H12         4.7500   -0.7200    3.1140 hc        1 0Y5      0.058200
     43 H13         0.5780   -1.0820    2.0540 h1        1 0Y5      0.051700
     44 H14         1.3070    0.5890    1.9770 h1        1 0Y5      0.051700
     45 H15         3.1260    0.9280    0.0980 h1        1 0Y5      0.047700
     46 H16         3.3570   -0.5050   -1.0110 h1        1 0Y5      0.047700
     47 H17         4.2950   -1.8500    0.9090 h1        1 0Y5      0.071700
     48 H18         8.8350   -1.7380   -1.9800 hc        1 0Y5      0.047367
     49 H19         9.7590   -1.6030   -0.4310 hc        1 0Y5      0.047367
     50 H20         8.4500   -2.8560   -0.6010 hc        1 0Y5      0.047367
     51 H21         1.1500   -0.7530   -1.5280 h1        1 0Y5      0.032700
     52 H22         0.6580    0.6920   -0.5340 h1        1 0Y5      0.032700
     53 H23         7.4230    2.4720    0.1240 hn        1 0Y5      0.348500
     54 C34        -4.3190   -3.0980    0.4180 c         1 0Y5      0.921200
     55 O9          9.2870    1.0170   -0.7070 o         1 0Y5     -0.626500
     56 O35        -4.5280   -3.6110    1.5460 o         1 0Y5     -0.814300
     57 O36        -5.0880   -3.2010   -0.5810 o         1 0Y5     -0.814300
     58 C16         0.8050   -0.4290   -0.5030 c3        1 0Y5      0.228100
     59 O6          5.1270    1.9960    0.9200 o         1 0Y5     -0.638500
@<TRIPOS>BOND
     1    1    3 ar  
     2    1    5 ar  
     3    1   31 1   
     4    2    4 ar  
     5    2    8 ar  
     6    2   32 1   
     7    3   10 ar  
     8    3   33 1   
     9    4    9 ar  
    10    4   34 1   
    11    5   11 ar  
    12    5   35 1   
    13    6    9 ar  
    14    6   12 ar  
    15    6   36 1   
    16    7   10 ar  
    17    7   11 ar  
    18    7   37 1   
    19    8   12 ar  
    20    8   54 1   
    21    9   58 1   
    22   10   23 1   
    23   11   27 1   
    24   12   27 1   
    25   13   14 2   
    26   13   25 1   
    27   13   38 1   
    28   14   15 1   
    29   14   22 1   
    30   15   24 1   
    31   15   55 2   
    32   16   24 1   
    33   16   25 1   
    34   16   59 2   
    35   17   18 1   
    36   17   19 1   
    37   17   39 1   
    38   17   40 1   
    39   18   21 1   
    40   18   41 1   
    41   18   42 1   
    42   19   26 1   
    43   19   43 1   
    44   19   44 1   
    45   20   21 1   
    46   20   26 1   
    47   20   45 1   
    48   20   46 1   
    49   21   25 1   
    50   21   47 1   
    51   22   48 1   
    52   22   49 1   
    53   22   50 1   
    54   23   28 1   
    55   23   29 1   
    56   23   30 1   
    57   24   53 1   
    58   26   58 1   
    59   51   58 1   
    60   52   58 1   
    61   54   56 1   
    62   54   57 1   
@<TRIPOS>SUBSTRUCTURE
     1 0Y5         1 TEMP              0 ****  ****    0 ROOT
