@<TRIPOS>MOLECULE
0Y5
   59    59     1     0     0
SMALL
bcc


@<TRIPOS>ATOM
      1 C26         1.9670    0.2670    5.4820 c1        1 0Y5      0.159000
      2 C19        -3.1470   -1.9170    3.2580 c1        1 0Y5     -0.049000
      3 C27         1.2930    0.3430    4.3720 c2        1 0Y5     -0.480000
      4 C18        -2.9530   -3.2850    2.7830 c3        1 0Y5     -0.185000
      5 C25        -0.8300    2.2840    0.9030 c3        1 0Y5     -0.198000
      6 C22        -1.5380   -2.3860    0.9810 c2        1 0Y5     -0.137000
      7 C29         0.6240    0.6370    2.0730 c1        1 0Y5     -0.227000
      8 C20        -2.3700   -0.8560    2.7330 c2        1 0Y5     -0.190000
      9 C17        -2.0850   -3.4610    1.5910 c2        1 0Y5     -0.135000
     10 C28         1.5520    0.3810    2.9570 c2        1 0Y5      0.041000
     11 C24        -0.4080    0.9230    1.3130 c2        1 0Y5      0.180000
     12 C21        -1.7000   -1.0590    1.5490 c2        1 0Y5      0.101000
     13 C3          0.2060   -9.7990    3.8520 c2        1 0Y5      0.056000
     14 C2          0.0650  -11.1250    4.1410 c2        1 0Y5     -0.259000
     15 C8         -0.7630  -11.9770    3.2760 c2        1 0Y5      0.357000
     16 C5         -1.2480   -9.9660    1.9190 c2        1 0Y5      0.390000
     17 C12         3.5040   -7.1500    2.9050 c2        1 0Y5     -0.222000
     18 C11         4.3050   -7.2000    3.9600 c2        1 0Y5     -0.222000
     19 C13         0.4360   -5.0590    2.0420 c3        1 0Y5     -0.096000
     20 C15        -1.0990   -6.9480    2.0910 c2        1 0Y5      0.034000
     21 C10        -0.1400   -7.8350    2.4920 c2        1 0Y5     -0.233000
     22 C1          0.7050  -11.7580    5.3100 c3        1 0Y5     -0.146000
     23 C30         2.9830    0.0730    2.4920 c3        1 0Y5      0.449000
     24 N7         -1.3930  -11.3360    2.1960 n         1 0Y5     -0.367000
     25 N4         -0.4030   -9.1980    2.7630 n         1 0Y5     -0.183000
     26 N14        -0.8910   -5.5960    1.9200 n3        1 0Y5     -0.262000
     27 O23        -1.1850   -0.0740    0.7170 os        1 0Y5     -0.177000
     28 F31         3.2930   -1.2680    2.4670 f         1 0Y5     -0.176000
     29 F32         3.2960    0.4990    1.2240 f         1 0Y5     -0.176000
     30 F33         3.9780    0.6230    3.2650 f         1 0Y5     -0.176000
     31 H1         -0.0210    3.0250    1.1000 hc        1 0Y5      0.115000
     32 H2         -2.5500   -3.8890    3.6490 hc        1 0Y5      0.144000
     33 H3          0.1600    0.4100    4.6100 ha        1 0Y5      0.316000
     34 H4         -3.9800   -3.6970    2.5560 hc        1 0Y5      0.144000
     35 H5         -1.7450    2.5470    1.5080 hc        1 0Y5      0.115000
     36 H6         -0.9160   -2.4700    0.0760 ha        1 0Y5      0.137000
     37 H7         -1.0970    2.2970   -0.1820 hc        1 0Y5      0.115000
     38 H8          0.8250   -9.1270    4.4790 h4        1 0Y5      0.171000
     39 H9          3.3850   -7.9900    2.2070 ha        1 0Y5      0.111000
     40 H10         2.9100   -6.2580    2.6530 ha        1 0Y5      0.111000
     41 H11         4.9020   -8.0870    4.2100 ha        1 0Y5      0.111000
     42 H12         1.1380   -5.5110    1.2880 h1        1 0Y5      0.086333
     43 H13         0.4070   -3.9460    1.8910 h1        1 0Y5      0.086333
     44 H14         0.8300   -5.2740    3.0720 h1        1 0Y5      0.086333
     45 H15         0.9170   -7.5570    2.6520 h4        1 0Y5      0.153000
     46 H16        -2.1380   -7.2900    1.8940 h4        1 0Y5      0.163000
     47 H17         4.4270   -6.3560    4.6530 ha        1 0Y5      0.111000
     48 H18         1.1270  -12.7540    5.0240 hc        1 0Y5      0.085667
     49 H19         1.5260  -11.1180    5.7170 hc        1 0Y5      0.085667
     50 H20        -0.0510  -11.9250    6.1190 hc        1 0Y5      0.085667
     51 H21        -1.4520   -4.8140    0.0350 h1        1 0Y5      0.086500
     52 H22        -2.8190   -5.4080    1.0880 h1        1 0Y5      0.086500
     53 H23        -1.9800  -11.8600    1.5830 hn        1 0Y5      0.260000
     54 C34        -2.3900    0.4750    3.4750 c2        1 0Y5      0.391000
     55 O9         -0.9410  -13.2000    3.4250 o         1 0Y5     -0.356000
     56 O35        -1.7650    0.5440    4.5740 o         1 0Y5     -0.555000
     57 O36        -3.0120    1.4390    2.9540 o         1 0Y5     -0.555000
     58 C16        -1.8340   -4.8560    1.0990 c3        1 0Y5      0.010000
     59 O6         -1.8680   -9.4630    0.9560 o         1 0Y5     -0.372000
@<TRIPOS>BOND
     1    1    3 1   
     2    2    4 1   
     3    2    8 1   
     4    3   10 1   
     5    3   33 1   
     6    4    9 1   
     7    4   32 1   
     8    4   34 1   
     9    5   11 1   
    10    5   31 1   
    11    5   35 1   
    12    5   37 1   
    13    6    9 1   
    14    6   12 1   
    15    6   36 1   
    16    7   10 1   
    17    7   11 1   
    18    8   12 1   
    19    8   54 1   
    20    9   58 1   
    21   10   23 1   
    22   11   27 1   
    23   12   27 1   
    24   13   14 1   
    25   13   25 1   
    26   13   38 1   
    27   14   15 1   
    28   14   22 1   
    29   15   24 1   
    30   15   55 1   
    31   16   24 1   
    32   16   25 1   
    33   16   59 1   
    34   17   18 1   
    35   17   39 1   
    36   17   40 1   
    37   18   41 1   
    38   18   47 1   
    39   19   26 1   
    40   19   42 1   
    41   19   43 1   
    42   19   44 1   
    43   20   21 1   
    44   20   26 1   
    45   20   46 1   
    46   21   25 1   
    47   21   45 1   
    48   22   48 1   
    49   22   49 1   
    50   22   50 1   
    51   23   28 1   
    52   23   29 1   
    53   23   30 1   
    54   24   53 1   
    55   26   58 1   
    56   51   58 1   
    57   52   58 1   
    58   54   56 1   
    59   54   57 1   
@<TRIPOS>SUBSTRUCTURE
     1 0Y5         1 TEMP              0 ****  ****    0 ROOT
