@<TRIPOS>MOLECULE
0Y5
   59    58     1     0     0
SMALL
bcc


@<TRIPOS>ATOM
      1 C26         2.5970    2.3480    4.5990 c1        1 0Y5      0.246000
      2 C19        -2.7980   -0.2320    4.0780 c1        1 0Y5     -0.008000
      3 C27         2.8310    2.4970    3.3100 c2        1 0Y5     -0.452000
      4 C18        -2.9880   -3.7100    3.9400 c2        1 0Y5     -0.174000
      5 C25        -1.0590    0.8580    1.5150 c3        1 0Y5     -0.217000
      6 C22        -0.9950   -2.9950    2.6400 c2        1 0Y5     -0.191000
      7 C29         1.3130    0.9560    2.1740 c1        1 0Y5     -0.226000
      8 C20        -1.9450   -0.8850    3.5320 c1        1 0Y5     -0.339000
      9 C17        -2.0190   -3.9330    3.0400 c2        1 0Y5     -0.097000
     10 C28         2.4170    1.6420    2.2150 c2        1 0Y5      0.009000
     11 C24         0.1820    0.2810    2.0870 c2        1 0Y5      0.191000
     12 C21        -0.9750   -1.6630    2.8950 c2        1 0Y5      0.204000
     13 C3          0.6880   -9.5980    3.8350 c2        1 0Y5      0.051000
     14 C2          0.2160  -10.8260    4.2050 c2        1 0Y5     -0.261000
     15 C8         -0.5160  -11.6470    3.2290 c2        1 0Y5      0.358000
     16 C5         -0.1590   -9.8330    1.5840 c2        1 0Y5      0.399000
     17 C12         3.2300   -7.3330    1.2470 c2        1 0Y5     -0.214000
     18 C11         1.9570   -7.6880    1.1020 c2        1 0Y5     -0.160000
     19 C13        -0.8360   -6.3470    4.1580 c2        1 0Y5     -0.380000
     20 C15        -0.1450   -6.7920    1.9260 c2        1 0Y5     -0.454000
     21 C10         0.9840   -7.7030    2.2550 c3        1 0Y5      0.160000
     22 C1          0.4100  -11.3820    5.5580 c3        1 0Y5     -0.146000
     23 C30         3.4170    1.5940    1.0460 c3        1 0Y5      0.451000
     24 N7         -0.6630  -11.0970    1.9460 ns        1 0Y5     -0.370000
     25 N4          0.5370   -9.0810    2.5640 n         1 0Y5     -0.260000
     26 N14        -0.9180   -6.1770    2.8460 n3        1 0Y5      0.168000
     27 O23         0.2270   -1.0440    2.4960 os        1 0Y5     -0.176000
     28 F31         4.5110    0.7940    1.2720 f         1 0Y5     -0.173000
     29 F32         2.9120    1.1390   -0.1460 f         1 0Y5     -0.173000
     30 F33         3.9660    2.8130    0.7210 f         1 0Y5     -0.173000
     31 H1         -0.8080    1.6430    0.7610 hc        1 0Y5      0.119667
     32 H2         -3.7290   -4.4780    4.1980 ha        1 0Y5      0.139000
     33 H3          3.4210    3.3930    3.0100 ha        1 0Y5      0.198000
     34 H4         -3.1080   -2.7490    4.4650 ha        1 0Y5      0.139000
     35 H5         -1.6780    1.3250    2.3290 hc        1 0Y5      0.119667
     36 H6         -0.1390   -3.4260    2.0880 ha        1 0Y5      0.140000
     37 H7         -1.6690    0.0580    1.0270 hc        1 0Y5      0.119667
     38 H8          1.2310   -8.9570    4.5560 h4        1 0Y5      0.159000
     39 H9          3.9210   -7.2920    0.3940 ha        1 0Y5      0.111000
     40 H10         3.6700   -7.0460    2.2110 ha        1 0Y5      0.111000
     41 H11        -0.3950   -7.6110   -1.2270 ha        1 0Y5      0.001500
     42 H12        -0.1180   -8.0760   -1.6340 ha        1 0Y5      0.001500
     43 H13        -1.4730   -5.7540    4.8250 h4        1 0Y5      0.147000
     44 H14        -0.1170   -7.0520    4.5870 h4        1 0Y5      0.147000
     45 H15         1.5210   -7.3440    3.1890 h1        1 0Y5      0.095000
     46 H16        -0.3820   -6.6510    0.8630 h4        1 0Y5      0.171000
     47 H17         1.5230   -7.9700    0.1260 ha        1 0Y5      0.156000
     48 H18         1.2380  -12.1360    5.5500 hc        1 0Y5      0.084000
     49 H19         0.6670  -10.5790    6.2920 hc        1 0Y5      0.084000
     50 H20        -0.5230  -11.8990    5.8960 hc        1 0Y5      0.084000
     51 H21        -1.7690   -5.0780    1.2320 h1        1 0Y5      0.118000
     52 H22        -2.9430   -5.8020    2.4330 h1        1 0Y5      0.118000
     53 H23        -1.1570  -11.6040    1.2450 hn        1 0Y5      0.258000
     54 C34        -3.8580    0.6140    4.6890 c2        1 0Y5      0.408000
     55 O9         -1.0040  -12.7690    3.4570 o         1 0Y5     -0.361000
     56 O35        -4.6000    0.0750    5.5490 o         1 0Y5     -0.524500
     57 O36        -3.9270    1.8010    4.2760 o         1 0Y5     -0.524500
     58 C16        -1.9600   -5.2600    2.3290 c3        1 0Y5     -0.040000
     59 O6         -0.3230   -9.4290    0.4120 o         1 0Y5     -0.372000
@<TRIPOS>BOND
     1    1    3 1   
     2    2    8 1   
     3    2   54 1   
     4    3   10 1   
     5    3   33 1   
     6    4    9 1   
     7    4   32 1   
     8    4   34 1   
     9    5   11 1   
    10    5   31 1   
    11    5   35 1   
    12    5   37 1   
    13    6    9 1   
    14    6   12 1   
    15    6   36 1   
    16    7   10 1   
    17    7   11 1   
    18    8   12 1   
    19    9   58 1   
    20   10   23 1   
    21   11   27 1   
    22   12   27 1   
    23   13   14 1   
    24   13   25 1   
    25   13   38 1   
    26   14   15 1   
    27   14   22 1   
    28   15   24 1   
    29   15   55 1   
    30   16   24 1   
    31   16   25 1   
    32   16   59 1   
    33   17   18 1   
    34   17   39 1   
    35   17   40 1   
    36   18   21 1   
    37   18   47 1   
    38   19   26 1   
    39   19   43 1   
    40   19   44 1   
    41   20   21 1   
    42   20   26 1   
    43   20   46 1   
    44   21   25 1   
    45   21   45 1   
    46   22   48 1   
    47   22   49 1   
    48   22   50 1   
    49   23   28 1   
    50   23   29 1   
    51   23   30 1   
    52   24   53 1   
    53   26   58 1   
    54   41   42 1   
    55   51   58 1   
    56   52   58 1   
    57   54   56 1   
    58   54   57 1   
@<TRIPOS>SUBSTRUCTURE
     1 0Y5         1 TEMP              0 ****  ****    0 ROOT
