@<TRIPOS>MOLECULE
0Y5
   59    57     1     0     0
SMALL
bcc


@<TRIPOS>ATOM
      1 C26         3.6550    1.5400    2.6800 c1        1 0Y5      0.243000
      2 C19        -1.2910   -0.3110    5.9490 c1        1 0Y5     -0.013000
      3 C27         3.0710    1.5930    1.4980 c2        1 0Y5     -0.451000
      4 C18        -2.2470   -3.7080    5.8700 c2        1 0Y5     -0.180000
      5 C25        -1.2520    0.6930    2.7730 c3        1 0Y5     -0.219000
      6 C22        -1.2060   -3.1350    3.6970 c2        1 0Y5     -0.173000
      7 C29         0.9730    0.3700    1.7610 c1        1 0Y5     -0.243000
      8 C20        -1.0470   -1.0290    5.0130 c1        1 0Y5     -0.329000
      9 C17        -1.9720   -3.9800    4.5860 c2        1 0Y5     -0.117000
     10 C28         1.9360    0.8330    1.0180 c2        1 0Y5      0.010000
     11 C24        -0.0290   -0.0950    2.4860 c2        1 0Y5      0.197000
     12 C21        -0.7840   -1.8670    3.9270 c2        1 0Y5      0.184000
     13 C3         -0.6480   -9.7850    2.3970 c2        1 0Y5      0.040000
     14 C2         -1.5240  -10.7940    2.1730 c2        1 0Y5     -0.200000
     15 C8         -1.0810  -12.0480    1.5300 c2        1 0Y5      0.351000
     16 C5          1.1910  -11.0910    1.4410 c2        1 0Y5      0.334000
     17 C12         1.9300   -3.6240    1.0560 c2        1 0Y5     -0.226000
     18 C11         2.1180   -4.9350    1.1270 c2        1 0Y5     -0.226000
     19 C13        -0.2980   -6.1600    3.6990 c2        1 0Y5     -0.136000
     20 C15         2.8770   -8.5780    1.9460 c3        1 0Y5     -0.270000
     21 C10         1.4630   -8.7650    2.2730 c1        1 0Y5     -0.040000
     22 C1         -2.9500  -10.7050    2.5500 c3        1 0Y5     -0.162000
     23 C30         1.9330    0.5670   -0.4980 c3        1 0Y5      0.451000
     24 N7          0.2800  -12.1240    1.1930 n         1 0Y5     -0.370000
     25 N4          0.7230   -9.8520    2.0430 n         1 0Y5     -0.140000
     26 N14        -1.5630   -6.2790    3.5880 n2        1 0Y5     -0.218000
     27 O23         0.1070   -1.3970    2.9350 os        1 0Y5     -0.183000
     28 F31         2.5270   -0.6190   -0.8610 f         1 0Y5     -0.174333
     29 F32         0.6920    0.5100   -1.0800 f         1 0Y5     -0.174333
     30 F33         2.5970    1.5080   -1.2510 f         1 0Y5     -0.174333
     31 H1         -1.3840    1.4980    2.0100 hc        1 0Y5      0.120667
     32 H2         -2.8320   -4.3980    6.4940 ha        1 0Y5      0.132000
     33 H3          3.5010    2.3170    0.7680 ha        1 0Y5      0.198000
     34 H4         -1.9160   -2.7890    6.3750 ha        1 0Y5      0.132000
     35 H5         -1.1720    1.1660    3.7900 hc        1 0Y5      0.120667
     36 H6         -0.9190   -3.5980    2.7330 ha        1 0Y5      0.132000
     37 H7         -2.1510    0.0270    2.7690 hc        1 0Y5      0.120667
     38 H8         -0.9450   -8.8210    2.8670 h4        1 0Y5      0.220000
     39 H9          2.4120   -2.9900    0.2970 ha        1 0Y5      0.112750
     40 H10         1.2780   -3.0780    1.7560 ha        1 0Y5      0.112750
     41 H11         2.7690   -5.4810    0.4310 ha        1 0Y5      0.112750
     42 H12         3.0290   -7.4830    1.7490 hc        1 0Y5      0.120333
     43 H13         0.2480   -5.2790    4.0900 h4        1 0Y5      0.130000
     44 H14         0.3350   -7.0110    3.3670 h4        1 0Y5      0.130000
     45 H15         3.4850   -8.8610    2.8460 hc        1 0Y5      0.120333
     46 H16         3.2600   -9.1650    1.0710 hc        1 0Y5      0.120333
     47 H17         1.6290   -5.5630    1.8870 ha        1 0Y5      0.112750
     48 H18        -3.1830  -11.4650    3.3370 hc        1 0Y5      0.097667
     49 H19        -3.5920  -10.9230    1.6600 hc        1 0Y5      0.097667
     50 H20        -3.2030   -9.6880    2.9400 hc        1 0Y5      0.097667
     51 H21        -3.2350   -5.7330    4.6560 h1        1 0Y5      0.099500
     52 H22        -3.0520   -4.9710    3.0140 h1        1 0Y5      0.099500
     53 H23         0.6340  -12.9540    0.7650 hn        1 0Y5      0.260000
     54 C34        -1.6260    0.6300    7.0490 c2        1 0Y5      0.408000
     55 O9         -1.8140  -13.0170    1.2730 o         1 0Y5     -0.328000
     56 O35        -1.7780    0.1480    8.2000 o         1 0Y5     -0.527500
     57 O36        -1.7400    1.8420    6.7250 o         1 0Y5     -0.527500
     58 C16        -2.4930   -5.2490    3.9560 c3        1 0Y5     -0.070000
     59 O6          2.3930  -11.2540    1.1480 o         1 0Y5     -0.347000
@<TRIPOS>BOND
     1    1    3 1   
     2    2    8 1   
     3    2   54 1   
     4    3   10 1   
     5    3   33 1   
     6    4    9 1   
     7    4   32 1   
     8    4   34 1   
     9    5   11 1   
    10    5   31 1   
    11    5   35 1   
    12    5   37 1   
    13    6    9 1   
    14    6   12 1   
    15    6   36 1   
    16    7   10 1   
    17    7   11 1   
    18    8   12 1   
    19    9   58 1   
    20   10   23 1   
    21   11   27 1   
    22   12   27 1   
    23   13   14 1   
    24   13   25 1   
    25   13   38 1   
    26   14   15 1   
    27   14   22 1   
    28   15   24 1   
    29   15   55 1   
    30   16   24 1   
    31   16   25 1   
    32   16   59 1   
    33   17   18 1   
    34   17   39 1   
    35   17   40 1   
    36   18   41 1   
    37   18   47 1   
    38   19   26 1   
    39   19   43 1   
    40   19   44 1   
    41   20   21 1   
    42   20   42 1   
    43   20   45 1   
    44   20   46 1   
    45   21   25 1   
    46   22   48 1   
    47   22   49 1   
    48   22   50 1   
    49   23   28 1   
    50   23   29 1   
    51   23   30 1   
    52   24   53 1   
    53   26   58 1   
    54   51   58 1   
    55   52   58 1   
    56   54   56 1   
    57   54   57 1   
@<TRIPOS>SUBSTRUCTURE
     1 0Y5         1 TEMP              0 ****  ****    0 ROOT
