@<TRIPOS>MOLECULE
0Y5
   59    49     1     0     0
SMALL
bcc


@<TRIPOS>ATOM
      1 C26        -3.9350    5.1800   -1.6230 c1        1 0Y5     -0.120750
      2 C19         0.8050    2.9610    1.2800 c1        1 0Y5     -0.120750
      3 C27        -4.1900    5.2740   -2.9860 c1        1 0Y5     -0.128000
      4 C18         0.9180    1.6250    0.8820 c1        1 0Y5     -0.120750
      5 C25        -2.6580    4.8560   -1.1750 c1        1 0Y5     -0.120750
      6 C22         0.2030    2.2300   -1.3430 c1        1 0Y5     -0.128000
      7 C29        -1.8950    4.7220   -3.4520 c1        1 0Y5     -0.112000
      8 C20         0.3910    3.9270    0.3670 c1        1 0Y5     -0.067000
      9 C17         0.6180    1.2610   -0.4270 c1        1 0Y5     -0.142000
     10 C28        -3.1710    5.0450   -3.9000 c1        1 0Y5     -0.142000
     11 C24        -1.6400    4.6270   -2.0880 c1        1 0Y5      0.068000
     12 C21         0.0900    3.5630   -0.9450 c1        1 0Y5      0.033000
     13 C3          1.0290   -4.2250    3.3770 c1        1 0Y5      0.049000
     14 C2          0.3570   -5.3790    3.9900 c1        1 0Y5     -0.251000
     15 C8         -0.3900   -6.3270    3.1450 c1        1 0Y5      0.357000
     16 C5          0.2710   -5.0080    1.1250 c1        1 0Y5      0.396000
     17 C34         0.3150    5.3960    0.7910 c2        1 0Y5      0.370000
     18 C12         3.4560   -2.5370   -0.3900 c3        1 0Y5     -0.155000
     19 C11         2.7620   -3.5680    0.4090 c3        1 0Y5     -0.176000
     20 C13         2.4870   -1.5860   -1.0770 c3        1 0Y5     -0.079000
     21 C15         0.8140   -2.0300    0.6510 c3        1 0Y5     -0.086000
     22 C10         1.7780   -2.9830    1.3450 c3        1 0Y5      0.040000
     23 C1          0.5220   -5.6520    5.4700 c3        1 0Y5     -0.148000
     24 C16         0.5410   -0.2320   -0.8820 c2        1 0Y5     -0.016000
     25 C30        -3.4640    5.0940   -5.3960 c2        1 0Y5      0.467000
     26 N7         -0.4500   -6.1280    1.7400 n1        1 0Y5     -0.368000
     27 N4          1.0140   -4.0640    1.9630 n2        1 0Y5     -0.258000
     28 N14         1.5080   -1.0110   -0.1450 n3        1 0Y5     -0.255000
     29 O9         -0.9490   -7.2840    3.6490 o         1 0Y5     -0.350000
     30 O6          0.2520   -4.8650   -0.0790 o         1 0Y5     -0.363000
     31 O35        -0.6640    5.8040    1.4810 o         1 0Y5     -0.549000
     32 O36         1.2800    6.1720    0.5490 o         1 0Y5     -0.549000
     33 O23        -0.2820    4.7360   -1.6720 o         1 0Y5     -0.159000
     34 F31        -4.3430    4.1310   -5.7120 f         1 0Y5     -0.177333
     35 F32        -3.9800    6.2950   -5.7120 f         1 0Y5     -0.177333
     36 F33        -2.3260    4.9030   -6.0800 f         1 0Y5     -0.177333
     37 H1         -4.6690    5.2730   -0.9800 ha        1 0Y5      0.158250
     38 H2          1.0170    3.2170    2.2010 ha        1 0Y5      0.158250
     39 H3         -5.1000    5.4490   -3.3020 ha        1 0Y5      0.130000
     40 H4          1.2090    0.9470    1.5230 ha        1 0Y5      0.158250
     41 H5         -2.4790    4.7900   -0.2180 ha        1 0Y5      0.158250
     42 H6         -0.0590    1.9660   -2.2460 ha        1 0Y5      0.130000
     43 H7         -1.1810    4.5620   -4.0930 ha        1 0Y5      0.153000
     44 H8          1.5230   -3.5970    3.9340 ha        1 0Y5      0.166000
     45 H9          4.0020   -2.9790   -1.0720 hc        1 0Y5      0.089000
     46 H10         4.0440   -2.0190    0.2020 hc        1 0Y5      0.089000
     47 H11         3.4270   -4.0720    0.9220 hc        1 0Y5      0.097500
     48 H12         2.3000   -4.1770   -0.1950 hc        1 0Y5      0.097500
     49 H13         2.9970   -0.8590   -1.4890 h1        1 0Y5      0.091000
     50 H14         2.0090   -2.0730   -1.7760 h1        1 0Y5      0.091000
     51 H15         0.2250   -2.5480    0.0600 h1        1 0Y5      0.087000
     52 H16         0.2690   -1.5850    1.3270 h1        1 0Y5      0.087000
     53 H17         2.2560   -2.4980    2.0400 h1        1 0Y5      0.111000
     54 H18        -0.3440   -5.9040    5.8550 hc        1 0Y5      0.086667
     55 H19         1.1580   -6.3810    5.5980 hc        1 0Y5      0.086667
     56 H20         0.8560   -4.8460    5.9160 hc        1 0Y5      0.086667
     57 H21        -0.3600   -0.5810   -0.7090 h4        1 0Y5      0.072000
     58 H22         0.7370   -0.2920   -1.8430 h4        1 0Y5      0.072000
     59 H23        -0.9140   -6.7170    1.2160 hn        1 0Y5      0.262000
@<TRIPOS>BOND
     1    1    5 1   
     2    1   37 1   
     3    2    4 1   
     4    2   38 1   
     5    3   10 1   
     6    3   39 1   
     7    4   40 1   
     8    5   41 1   
     9    6    9 1   
    10    6   42 1   
    11    7   11 1   
    12    7   43 1   
    13    8   12 1   
    14    8   17 1   
    15   11   33 1   
    16   13   14 1   
    17   13   44 1   
    18   14   23 1   
    19   15   29 1   
    20   16   27 1   
    21   16   30 1   
    22   17   31 1   
    23   17   32 1   
    24   18   19 1   
    25   18   20 1   
    26   18   45 1   
    27   18   46 1   
    28   19   22 1   
    29   19   47 1   
    30   19   48 1   
    31   20   28 1   
    32   20   49 1   
    33   20   50 1   
    34   21   22 1   
    35   21   28 1   
    36   21   51 1   
    37   21   52 1   
    38   22   27 1   
    39   22   53 1   
    40   23   54 1   
    41   23   55 1   
    42   23   56 1   
    43   24   28 1   
    44   24   57 1   
    45   24   58 1   
    46   25   34 1   
    47   25   35 1   
    48   25   36 1   
    49   26   59 1   
@<TRIPOS>SUBSTRUCTURE
     1 0Y5         1 TEMP              0 ****  ****    0 ROOT
