@<TRIPOS>MOLECULE
0Y7
   54    56     1     0     0
SMALL
bcc


@<TRIPOS>ATOM
      1 CL1         0.1110   -0.4120    1.9690 cl        1 0Y7     -0.130400
      2 C1          1.7500   -0.2860    1.5080 ca        1 0Y7      0.015400
      3 C2          2.7550   -0.4040    2.4690 ca        1 0Y7     -0.136000
      4 C3          4.0930   -0.2960    2.0890 ca        1 0Y7     -0.107000
      5 C4          2.0710   -0.0700    0.1650 ca        1 0Y7     -0.136000
      6 C5          3.4090    0.0360   -0.2060 ca        1 0Y7     -0.107000
      7 C6          4.4280   -0.0720    0.7490 ca        1 0Y7     -0.101300
      8 C7          5.8720    0.0380    0.2890 c3        1 0Y7      0.177000
      9 N1          6.4610    1.3340    0.6000 n         1 0Y7     -0.475800
     10 C8          5.8310    2.4820   -0.0380 c3        1 0Y7      0.080700
     11 C9          6.6790    3.0640   -1.1950 c3        1 0Y7      0.105400
     12 O4          6.8200    2.1470   -2.2640 oh        1 0Y7     -0.613800
     13 C11         7.6350    1.4920    1.3280 c         1 0Y7      0.701500
     14 O1          8.2030    2.6060    1.3780 o         1 0Y7     -0.683500
     15 C12         8.2300    0.2860    2.0400 c3        1 0Y7     -0.094700
     16 C13         7.6050    0.1520    3.4200 c3        1 0Y7     -0.197400
     17 C14         7.4220   -1.3070    3.8730 c         1 0Y7      0.908600
     18 O2          6.2340   -1.7530    3.9090 o         1 0Y7     -0.841800
     19 O3          8.4380   -1.9830    4.1890 o         1 0Y7     -0.841800
     20 C15         8.1010   -0.9300    1.1440 c3        1 0Y7     -0.072400
     21 C16         6.6530   -1.2080    0.7830 c3        1 0Y7     -0.060400
     22 C17         6.5810   -2.2970   -0.2440 ca        1 0Y7     -0.046300
     23 C18         7.0820   -2.1130   -1.5390 ca        1 0Y7     -0.134000
     24 C19         7.0180   -3.1430   -2.4760 ca        1 0Y7     -0.132000
     25 C20         6.4560   -4.3710   -2.1360 ca        1 0Y7     -0.140000
     26 C21         5.9630   -4.5580   -0.8410 ca        1 0Y7      0.016400
     27 CL2         5.2780   -6.0600   -0.4180 cl        1 0Y7     -0.114400
     28 C22         6.0240   -3.5340    0.1080 ca        1 0Y7     -0.100000
     29 C10         5.4920    3.6390    0.9170 c3        1 0Y7     -0.091400
     30 C23         4.4300    3.2720    1.9180 c3        1 0Y7     -0.092100
     31 H1          2.5050   -0.5920    3.5250 ha        1 0Y7      0.142500
     32 H2          4.8850   -0.4330    2.8610 ha        1 0Y7      0.173500
     33 H3          1.2790    0.0120   -0.5930 ha        1 0Y7      0.142500
     34 H4          3.6600    0.2010   -1.2660 ha        1 0Y7      0.173500
     35 H5          5.8550   -0.0060   -0.8510 h1        1 0Y7      0.035700
     36 H6          4.8560    2.1230   -0.4910 h1        1 0Y7      0.061700
     37 H7          6.1370    3.9360   -1.6480 h1        1 0Y7      0.056700
     38 H8          7.6840    3.3920   -0.8180 h1        1 0Y7      0.056700
     39 H9          7.3350    1.4000   -1.9360 ho        1 0Y7      0.401000
     40 H10         9.3310    0.4970    2.1730 hc        1 0Y7      0.074700
     41 H11         8.2630    0.6690    4.1640 hc        1 0Y7      0.038200
     42 H12         6.6050    0.6560    3.4430 hc        1 0Y7      0.038200
     43 H14         8.5180   -1.8220    1.6900 hc        1 0Y7      0.061700
     44 H15         8.7090   -0.7720    0.2150 hc        1 0Y7      0.061700
     45 H16         6.1630   -1.5790    1.7420 hc        1 0Y7      0.144700
     46 H17         7.5360   -1.1490   -1.8170 ha        1 0Y7      0.129000
     47 H18         7.4140   -2.9870   -3.4900 ha        1 0Y7      0.125000
     48 H19         6.4040   -5.1830   -2.8750 ha        1 0Y7      0.133000
     49 H20         5.6470   -3.6930    1.1330 ha        1 0Y7      0.178000
     50 H21         5.1310    4.4980    0.2920 hc        1 0Y7      0.052700
     51 H22         6.4220    3.9750    1.4490 hc        1 0Y7      0.052700
     52 H23         4.7410    2.3860    2.5260 hc        1 0Y7      0.035700
     53 H24         4.2460    4.1280    2.6110 hc        1 0Y7      0.035700
     54 H25         3.4700    3.0220    1.4040 hc        1 0Y7      0.035700
@<TRIPOS>BOND
     1    1    2 1   
     2    2    3 ar  
     3    2    5 ar  
     4    3    4 ar  
     5    3   31 1   
     6    4    7 ar  
     7    4   32 1   
     8    5    6 ar  
     9    5   33 1   
    10    6    7 ar  
    11    6   34 1   
    12    7    8 1   
    13    8    9 1   
    14    8   21 1   
    15    8   35 1   
    16    9   10 1   
    17    9   13 1   
    18   10   11 1   
    19   10   29 1   
    20   10   36 1   
    21   11   12 1   
    22   11   37 1   
    23   11   38 1   
    24   12   39 1   
    25   13   14 2   
    26   13   15 1   
    27   15   16 1   
    28   15   20 1   
    29   15   40 1   
    30   16   17 1   
    31   16   41 1   
    32   16   42 1   
    33   17   18 1   
    34   17   19 1   
    35   20   21 1   
    36   20   43 1   
    37   20   44 1   
    38   21   22 1   
    39   21   45 1   
    40   22   23 ar  
    41   22   28 ar  
    42   23   24 ar  
    43   23   46 1   
    44   24   25 ar  
    45   24   47 1   
    46   25   26 ar  
    47   25   48 1   
    48   26   27 1   
    49   26   28 ar  
    50   28   49 1   
    51   29   30 1   
    52   29   50 1   
    53   29   51 1   
    54   30   52 1   
    55   30   53 1   
    56   30   54 1   
@<TRIPOS>SUBSTRUCTURE
     1 0Y7         1 TEMP              0 ****  ****    0 ROOT
