@<TRIPOS>MOLECULE
0Y7
   54    56     1     0     0
SMALL
bcc


@<TRIPOS>ATOM
      1 CL1         0.0660   -0.2040    1.8020 cl        1 0Y7     -0.130400
      2 C1          1.7210   -0.1410    1.3870 ca        1 0Y7      0.015400
      3 C2          2.6930   -0.2490    2.3830 ca        1 0Y7     -0.136000
      4 C3          4.0450   -0.1930    2.0410 ca        1 0Y7     -0.107000
      5 C4          2.0880    0.0140    0.0470 ca        1 0Y7     -0.136000
      6 C5          3.4390    0.0700   -0.2860 ca        1 0Y7     -0.107000
      7 C6          4.4260   -0.0300    0.7040 ca        1 0Y7     -0.101300
      8 C7          5.8850    0.0230    0.2850 c3        1 0Y7      0.177000
      9 N1          6.5020    1.3140    0.5660 n         1 0Y7     -0.475800
     10 C8          5.9240    2.4540   -0.1350 c3        1 0Y7      0.080700
     11 C9          6.8220    2.9660   -1.2860 c3        1 0Y7      0.105400
     12 O4          6.9690    2.0060   -2.3140 oh        1 0Y7     -0.613800
     13 C11         7.6570    1.4670    1.3230 c         1 0Y7      0.701500
     14 O1          8.2550    2.5660    1.3490 o         1 0Y7     -0.683500
     15 C12         8.1960    0.2740    2.0980 c3        1 0Y7     -0.094700
     16 C13         7.5270    0.2100    3.4620 c3        1 0Y7     -0.197400
     17 C14         7.2880   -1.2260    3.9640 c         1 0Y7      0.908600
     18 O2          6.0870   -1.6370    3.9790 o         1 0Y7     -0.841800
     19 O3          8.2740   -1.9160    4.3360 o         1 0Y7     -0.841800
     20 C15         8.0600   -0.9720    1.2450 c3        1 0Y7     -0.072400
     21 C16         6.6150   -1.2240    0.8500 c3        1 0Y7     -0.060400
     22 C17         6.5440   -2.3490   -0.1380 ca        1 0Y7     -0.046300
     23 C18         7.0890   -2.2290   -1.4220 ca        1 0Y7     -0.134000
     24 C19         7.0230   -3.2910   -2.3210 ca        1 0Y7     -0.132000
     25 C20         6.4170   -4.4900   -1.9530 ca        1 0Y7     -0.140000
     26 C21         5.8800   -4.6130   -0.6680 ca        1 0Y7      0.016400
     27 CL2         5.1410   -6.0800   -0.2110 cl        1 0Y7     -0.114400
     28 C22         5.9410   -3.5560    0.2430 ca        1 0Y7     -0.100000
     29 C10         5.5900    3.6540    0.7660 c3        1 0Y7     -0.091400
     30 C23         4.4870    3.3560    1.7450 c3        1 0Y7     -0.092100
     31 H1          2.4060   -0.3900    3.4360 ha        1 0Y7      0.142500
     32 H2          4.8090   -0.3220    2.8410 ha        1 0Y7      0.173500
     33 H3          1.3220    0.0880   -0.7370 ha        1 0Y7      0.142500
     34 H4          3.7270    0.1870   -1.3420 ha        1 0Y7      0.173500
     35 H5          5.9010   -0.0640   -0.8520 h1        1 0Y7      0.035700
     36 H6          4.9530    2.1030   -0.6040 h1        1 0Y7      0.061700
     37 H7          7.8240    3.2810   -0.8900 h1        1 0Y7      0.056700
     38 H8          6.3190    3.8350   -1.7880 h1        1 0Y7      0.056700
     39 H9          7.4530    1.2580   -1.9430 ho        1 0Y7      0.401000
     40 H10         9.2980    0.4590    2.2570 hc        1 0Y7      0.074700
     41 H11         8.1760    0.7370    4.2060 hc        1 0Y7      0.038200
     42 H12         6.5400    0.7410    3.4350 hc        1 0Y7      0.038200
     43 H14         8.7000   -0.8660    0.3300 hc        1 0Y7      0.061700
     44 H15         8.4340   -1.8530    1.8370 hc        1 0Y7      0.061700
     45 H16         6.0870   -1.5450    1.8060 hc        1 0Y7      0.144700
     46 H17         7.5770   -1.2890   -1.7220 ha        1 0Y7      0.129000
     47 H18         7.4540   -3.1850   -3.3280 ha        1 0Y7      0.125000
     48 H19         6.3650   -5.3280   -2.6630 ha        1 0Y7      0.133000
     49 H20         5.5300   -3.6650    1.2620 ha        1 0Y7      0.178000
     50 H21         5.2720    4.4990    0.0980 hc        1 0Y7      0.052700
     51 H22         6.5120    3.9850    1.3130 hc        1 0Y7      0.052700
     52 H23         4.7540    2.4850    2.3950 hc        1 0Y7      0.035700
     53 H24         3.5370    3.1120    1.2120 hc        1 0Y7      0.035700
     54 H25         4.3070    4.2420    2.4010 hc        1 0Y7      0.035700
@<TRIPOS>BOND
     1    1    2 1   
     2    2    3 ar  
     3    2    5 ar  
     4    3    4 ar  
     5    3   31 1   
     6    4    7 ar  
     7    4   32 1   
     8    5    6 ar  
     9    5   33 1   
    10    6    7 ar  
    11    6   34 1   
    12    7    8 1   
    13    8    9 1   
    14    8   21 1   
    15    8   35 1   
    16    9   10 1   
    17    9   13 1   
    18   10   11 1   
    19   10   29 1   
    20   10   36 1   
    21   11   12 1   
    22   11   37 1   
    23   11   38 1   
    24   12   39 1   
    25   13   14 2   
    26   13   15 1   
    27   15   16 1   
    28   15   20 1   
    29   15   40 1   
    30   16   17 1   
    31   16   41 1   
    32   16   42 1   
    33   17   18 1   
    34   17   19 1   
    35   20   21 1   
    36   20   43 1   
    37   20   44 1   
    38   21   22 1   
    39   21   45 1   
    40   22   23 ar  
    41   22   28 ar  
    42   23   24 ar  
    43   23   46 1   
    44   24   25 ar  
    45   24   47 1   
    46   25   26 ar  
    47   25   48 1   
    48   26   27 1   
    49   26   28 ar  
    50   28   49 1   
    51   29   30 1   
    52   29   50 1   
    53   29   51 1   
    54   30   52 1   
    55   30   53 1   
    56   30   54 1   
@<TRIPOS>SUBSTRUCTURE
     1 0Y7         1 TEMP              0 ****  ****    0 ROOT
