@<TRIPOS>MOLECULE
0Y7
   54    56     1     0     0
SMALL
bcc


@<TRIPOS>ATOM
      1 Cl1         0.0760   -0.2450    1.8500 cl        1 0Y7     -0.130400
      2 C1          1.7260   -0.1710    1.4210 ca        1 0Y7      0.015400
      3 C2          2.7080   -0.2760    2.4090 ca        1 0Y7     -0.136000
      4 C3          4.0560   -0.2090    2.0550 ca        1 0Y7     -0.107000
      5 C4          2.0810   -0.0090    0.0790 ca        1 0Y7     -0.136000
      6 C5          3.4290    0.0570   -0.2660 ca        1 0Y7     -0.107000
      7 C6          4.4240   -0.0400    0.7150 ca        1 0Y7     -0.101300
      8 C7          5.8800    0.0240    0.2850 c3        1 0Y7      0.177000
      9 N1          6.4910    1.3180    0.5640 n         1 0Y7     -0.475800
     10 C8          5.9000    2.4560   -0.1280 c3        1 0Y7      0.080700
     11 C9          6.7850    2.9780   -1.2840 c3        1 0Y7      0.105400
     12 O4          6.9290    2.0220   -2.3170 oh        1 0Y7     -0.613800
     13 C11         7.6520    1.4760    1.3120 c         1 0Y7      0.701500
     14 O1          8.2420    2.5790    1.3370 o         1 0Y7     -0.683500
     15 C12         8.2050    0.2830    2.0790 c3        1 0Y7     -0.094700
     16 C13         7.5470    0.2110    3.4480 c3        1 0Y7     -0.197400
     17 C14         7.3220   -1.2270    3.9480 c         1 0Y7      0.908600
     18 O2          6.1240   -1.6470    3.9720 o         1 0Y7     -0.841800
     19 O3          8.3160   -1.9130    4.3090 o         1 0Y7     -0.841800
     20 C15         8.0690   -0.9600    1.2230 c3        1 0Y7     -0.072400
     21 C16         6.6230   -1.2210    0.8390 c3        1 0Y7     -0.060400
     22 C17         6.5500   -2.3430   -0.1510 ca        1 0Y7     -0.046300
     23 C18         7.0830   -2.2150   -1.4400 ca        1 0Y7     -0.134000
     24 C19         7.0170   -3.2750   -2.3420 ca        1 0Y7     -0.132000
     25 C20         6.4210   -4.4790   -1.9730 ca        1 0Y7     -0.140000
     26 C21         5.8960   -4.6090   -0.6840 ca        1 0Y7      0.016400
     27 Cl2         5.1690   -6.0820   -0.2250 cl        1 0Y7     -0.114400
     28 C22         5.9580   -3.5540    0.2310 ca        1 0Y7     -0.100000
     29 C10         5.5660    3.6520    0.7790 c3        1 0Y7     -0.091400
     30 C23         4.4740    3.3430    1.7680 c3        1 0Y7     -0.092100
     31 H1          2.4300   -0.4220    3.4640 ha        1 0Y7      0.142500
     32 H2          4.8270   -0.3360    2.8490 ha        1 0Y7      0.173500
     33 H3          1.3080    0.0640   -0.6990 ha        1 0Y7      0.142500
     34 H4          3.7070    0.1790   -1.3240 ha        1 0Y7      0.173500
     35 H5          5.8870   -0.0600   -0.8530 h1        1 0Y7      0.035700
     36 H6          4.9280    2.1010   -0.5900 h1        1 0Y7      0.061700
     37 H7          6.2730    3.8450   -1.7800 h1        1 0Y7      0.056700
     38 H8          7.7890    3.2980   -0.8960 h1        1 0Y7      0.056700
     39 H9          7.4210    1.2760   -1.9520 ho        1 0Y7      0.401000
     40 H10         9.3060    0.4750    2.2290 hc        1 0Y7      0.074700
     41 H11         8.1990    0.7400    4.1880 hc        1 0Y7      0.038200
     42 H12         6.5570    0.7360    3.4310 hc        1 0Y7      0.038200
     43 H14         8.7000   -0.8480    0.3030 hc        1 0Y7      0.061700
     44 H15         8.4540   -1.8410    1.8090 hc        1 0Y7      0.061700
     45 H16         6.1040   -1.5480    1.7990 hc        1 0Y7      0.144700
     46 H17         7.5630   -1.2710   -1.7410 ha        1 0Y7      0.129000
     47 H18         7.4380   -3.1630   -3.3520 ha        1 0Y7      0.125000
     48 H19         6.3670   -5.3140   -2.6850 ha        1 0Y7      0.133000
     49 H20         5.5560   -3.6690    1.2520 ha        1 0Y7      0.178000
     50 H21         6.4900    3.9870    1.3200 hc        1 0Y7      0.052700
     51 H22         5.2370    4.4960    0.1170 hc        1 0Y7      0.052700
     52 H23         3.5210    3.0950    1.2420 hc        1 0Y7      0.035700
     53 H24         4.7520    2.4720    2.4130 hc        1 0Y7      0.035700
     54 H25         4.2940    4.2270    2.4270 hc        1 0Y7      0.035700
@<TRIPOS>BOND
     1    1    2 1   
     2    2    3 ar  
     3    2    5 ar  
     4    3    4 ar  
     5    3   31 1   
     6    4    7 ar  
     7    4   32 1   
     8    5    6 ar  
     9    5   33 1   
    10    6    7 ar  
    11    6   34 1   
    12    7    8 1   
    13    8    9 1   
    14    8   21 1   
    15    8   35 1   
    16    9   10 1   
    17    9   13 1   
    18   10   11 1   
    19   10   29 1   
    20   10   36 1   
    21   11   12 1   
    22   11   37 1   
    23   11   38 1   
    24   12   39 1   
    25   13   14 2   
    26   13   15 1   
    27   15   16 1   
    28   15   20 1   
    29   15   40 1   
    30   16   17 1   
    31   16   41 1   
    32   16   42 1   
    33   17   18 1   
    34   17   19 1   
    35   20   21 1   
    36   20   43 1   
    37   20   44 1   
    38   21   22 1   
    39   21   45 1   
    40   22   23 ar  
    41   22   28 ar  
    42   23   24 ar  
    43   23   46 1   
    44   24   25 ar  
    45   24   47 1   
    46   25   26 ar  
    47   25   48 1   
    48   26   27 1   
    49   26   28 ar  
    50   28   49 1   
    51   29   30 1   
    52   29   50 1   
    53   29   51 1   
    54   30   52 1   
    55   30   53 1   
    56   30   54 1   
@<TRIPOS>SUBSTRUCTURE
     1 0Y7         1 TEMP              0 ****  ****    0 ROOT
