@<TRIPOS>MOLECULE
0Y7
   54    50     1     0     0
SMALL
bcc


@<TRIPOS>ATOM
      1 CL1        -5.9280   -0.2680   -0.2750 cl        1 0Y7     -0.045000
      2 C1         -4.1720   -0.2410   -0.3400 c1        1 0Y7     -0.063000
      3 C2         -3.5200   -0.0650   -1.5620 c1        1 0Y7     -0.134500
      4 C3         -2.1320   -0.0230   -1.6080 c1        1 0Y7     -0.134500
      5 C4         -3.4340   -0.3730    0.8250 c1        1 0Y7     -0.132500
      6 C5         -2.0430   -0.3310    0.7790 c1        1 0Y7     -0.091000
      7 C6         -1.3930   -0.1560   -0.4340 c1        1 0Y7     -0.098000
      8 C7          0.1450   -0.1440   -0.4860 c2        1 0Y7      0.095000
      9 N1          0.6260    1.1740    0.0420 n         1 0Y7     -0.330000
     10 C8         -0.0990    2.3570   -0.2380 c3        1 0Y7      0.010000
     11 C9          0.4620    3.0160   -1.5220 c3        1 0Y7     -0.033000
     12 O4         -0.5450    3.7500   -2.1480 oh        1 0Y7     -0.343000
     13 C11         2.0370    1.2280    0.2140 c2        1 0Y7      0.311000
     14 O1          2.6040    2.3100    0.2770 o         1 0Y7     -0.409000
     15 C12         2.6320   -0.0410    1.0220 c3        1 0Y7     -0.082000
     16 C13         2.3210    0.0350    2.5630 c3        1 0Y7     -0.226000
     17 C14         3.5890   -0.0020    3.3250 c2        1 0Y7      0.328000
     18 O2          3.8460    0.8940    4.1450 o         1 0Y7     -0.577000
     19 O3          4.4150   -0.9140    3.1180 o         1 0Y7     -0.577000
     20 C15         2.1460   -1.2700    0.4250 c3        1 0Y7     -0.150000
     21 C16         0.6410   -1.2900    0.2530 c3        1 0Y7     -0.105000
     22 C17         0.2380   -2.6140   -0.5240 c2        1 0Y7     -0.039000
     23 C18         0.7170   -2.8350   -1.8070 c2        1 0Y7     -0.134000
     24 C19         0.4520   -4.0420   -2.4520 c1        1 0Y7     -0.134000
     25 C20        -0.2870   -5.0170   -1.8150 c1        1 0Y7     -0.132500
     26 C21        -0.7680   -4.7970   -0.5300 c1        1 0Y7     -0.063000
     27 CL2        -1.5830   -6.0800    0.3270 cl        1 0Y7     -0.045000
     28 C22        -0.5040   -3.5920    0.1140 c1        1 0Y7     -0.100000
     29 C10         0.0360    3.3060    0.9000 c3        1 0Y7     -0.187000
     30 C23        -0.9540    4.4270    0.7380 c3        1 0Y7     -0.211000
     31 H1         -4.0400    0.0280   -2.3830 ha        1 0Y7      0.130000
     32 H2         -1.6590    0.1050   -2.4910 ha        1 0Y7      0.130000
     33 H3         -3.8930   -0.5310    1.6810 ha        1 0Y7      0.142500
     34 H4         -1.5210   -0.4240    1.6040 ha        1 0Y7      0.218000
     35 H5          0.4250   -0.2280   -1.4100 h4        1 0Y7      0.079000
     36 H6         -1.0320    2.1390   -0.3670 h1        1 0Y7      0.097000
     37 H7          0.7820    2.3300   -2.1220 h1        1 0Y7      0.100000
     38 H8          1.1950    3.6080   -1.2870 h1        1 0Y7      0.100000
     39 H9         -0.1810    4.2960   -2.7570 ho        1 0Y7      0.191000
     40 H10         3.6150   -0.0210    1.0260 hc        1 0Y7      0.112000
     41 H11         1.8410    0.8800    2.7620 hc        1 0Y7      0.077000
     42 H12         1.7510   -0.7430    2.8280 hc        1 0Y7      0.077000
     43 H14         2.4100   -2.0290    1.0000 hc        1 0Y7      0.102000
     44 H15         2.5700   -1.3800   -0.4640 hc        1 0Y7      0.102000
     45 H16         0.2120   -1.3020    1.1590 hc        1 0Y7      0.182000
     46 H17         1.2160   -2.1400   -2.2650 ha        1 0Y7      0.135000
     47 H18         0.7880   -4.1960   -3.3500 ha        1 0Y7      0.124000
     48 H19        -0.4750   -5.8760   -2.2750 ha        1 0Y7      0.142500
     49 H20        -0.8420   -3.4360    1.0190 ha        1 0Y7      0.178000
     50 H21        -0.1390    2.8320    1.7500 hc        1 0Y7      0.106000
     51 H22         0.9530    3.6760    0.9120 hc        1 0Y7      0.106000
     52 H23        -0.9260    5.0060    1.5340 hc        1 0Y7      0.066667
     53 H24        -1.8700    4.0480    0.6340 hc        1 0Y7      0.066667
     54 H25        -0.7250    4.9580   -0.0620 hc        1 0Y7      0.066667
@<TRIPOS>BOND
     1    1    2 1   
     2    2    5 1   
     3    3    4 1   
     4    3   31 1   
     5    4   32 1   
     6    5   33 1   
     7    6    7 1   
     8    6   34 1   
     9    8    9 1   
    10    8   21 1   
    11    8   35 1   
    12    9   10 1   
    13    9   13 1   
    14   10   11 1   
    15   10   29 1   
    16   10   36 1   
    17   11   12 1   
    18   11   37 1   
    19   11   38 1   
    20   12   39 1   
    21   13   14 1   
    22   13   15 1   
    23   15   16 1   
    24   15   20 1   
    25   15   40 1   
    26   16   17 1   
    27   16   41 1   
    28   16   42 1   
    29   17   18 1   
    30   17   19 1   
    31   20   21 1   
    32   20   43 1   
    33   20   44 1   
    34   21   22 1   
    35   21   45 1   
    36   22   23 1   
    37   22   28 1   
    38   23   24 1   
    39   23   46 1   
    40   24   47 1   
    41   25   26 1   
    42   25   48 1   
    43   26   27 1   
    44   28   49 1   
    45   29   30 1   
    46   29   50 1   
    47   29   51 1   
    48   30   52 1   
    49   30   53 1   
    50   30   54 1   
@<TRIPOS>SUBSTRUCTURE
     1 0Y7         1 TEMP              0 ****  ****    0 ROOT
