@<TRIPOS>MOLECULE
0Y7
   54    56     1     0     0
SMALL
bcc


@<TRIPOS>ATOM
      1 CL1         2.5880   -3.5970    3.2140 cl        1 0Y7     -0.130400
      2 C1          1.7360   -2.6000    2.1210 ca        1 0Y7      0.015400
      3 C2          0.8380   -1.6460    2.6030 ca        1 0Y7     -0.136000
      4 C3          0.1410   -0.8350    1.7070 ca        1 0Y7     -0.107000
      5 C4          1.9510   -2.7450    0.7480 ca        1 0Y7     -0.136000
      6 C5          1.2500   -1.9330   -0.1410 ca        1 0Y7     -0.107000
      7 C6          0.3400   -0.9760    0.3290 ca        1 0Y7     -0.101300
      8 C7         -0.3880   -0.1060   -0.6810 c3        1 0Y7      0.177000
      9 N1         -1.7690   -0.5250   -0.8890 n         1 0Y7     -0.475800
     10 C8         -1.9450   -1.8660   -1.4320 c3        1 0Y7      0.080700
     11 C9         -2.3700   -1.8570   -2.9200 c3        1 0Y7      0.105400
     12 O4         -1.3690   -1.3080   -3.7560 oh        1 0Y7     -0.613800
     13 C11        -2.8610    0.3210   -0.7370 c         1 0Y7      0.701500
     14 O1         -3.9940   -0.0330   -1.1340 o         1 0Y7     -0.683500
     15 C12        -2.6540    1.6880   -0.1030 c3        1 0Y7     -0.094700
     16 C13        -2.7640    1.5690    1.4090 c3        1 0Y7     -0.197400
     17 C14        -1.8200    2.5150    2.1720 c         1 0Y7      0.908600
     18 O2         -0.8310    1.9850    2.7650 o         1 0Y7     -0.841800
     19 O3         -2.0670    3.7510    2.1790 o         1 0Y7     -0.841800
     20 C15        -1.3580    2.2800   -0.6180 c3        1 0Y7     -0.072400
     21 C16        -0.1710    1.3850   -0.3090 c3        1 0Y7     -0.060400
     22 C17         1.0570    1.9080   -0.9900 ca        1 0Y7     -0.046300
     23 C18         1.1690    1.9200   -2.3850 ca        1 0Y7     -0.134000
     24 C19         2.3140    2.4230   -3.0000 ca        1 0Y7     -0.132000
     25 C20         3.3630    2.9250   -2.2320 ca        1 0Y7     -0.140000
     26 C21         3.2480    2.9200   -0.8390 ca        1 0Y7      0.016400
     27 CL2         4.5270    3.5360    0.1050 cl        1 0Y7     -0.114400
     28 C22         2.1040    2.4200   -0.2120 ca        1 0Y7     -0.100000
     29 C10        -2.9530   -2.7380   -0.6650 c3        1 0Y7     -0.091400
     30 C23        -2.4890   -3.0720    0.7270 c3        1 0Y7     -0.092100
     31 H1          0.6820   -1.5170    3.6850 ha        1 0Y7      0.142500
     32 H2         -0.5410   -0.0510    2.1090 ha        1 0Y7      0.173500
     33 H3          2.6650   -3.4900    0.3690 ha        1 0Y7      0.142500
     34 H4          1.4230   -2.0450   -1.2220 ha        1 0Y7      0.173500
     35 H5          0.1220   -0.2790   -1.6870 h1        1 0Y7      0.035700
     36 H6         -0.9390   -2.3860   -1.3790 h1        1 0Y7      0.061700
     37 H7         -2.4810   -2.9150   -3.2790 h1        1 0Y7      0.056700
     38 H8         -3.3400   -1.3070   -3.0470 h1        1 0Y7      0.056700
     39 H9         -1.2800   -0.3760   -3.5230 ho        1 0Y7      0.401000
     40 H10        -3.4970    2.3450   -0.4640 hc        1 0Y7      0.074700
     41 H11        -3.8150    1.8050    1.7130 hc        1 0Y7      0.038200
     42 H12        -2.5450    0.5180    1.7320 hc        1 0Y7      0.038200
     43 H14        -1.4400    2.4470   -1.7240 hc        1 0Y7      0.061700
     44 H15        -1.1990    3.2790   -0.1220 hc        1 0Y7      0.061700
     45 H16        -0.0200    1.4530    0.8180 hc        1 0Y7      0.144700
     46 H17         0.3430    1.5340   -3.0030 ha        1 0Y7      0.129000
     47 H18         2.3910    2.4270   -4.0960 ha        1 0Y7      0.125000
     48 H19         4.2670    3.3200   -2.7170 ha        1 0Y7      0.133000
     49 H20         2.0130    2.4340    0.8880 ha        1 0Y7      0.178000
     50 H21        -3.9480   -2.2220   -0.6250 hc        1 0Y7      0.052700
     51 H22        -3.0880   -3.6880   -1.2470 hc        1 0Y7      0.052700
     52 H23        -1.5430   -3.6660    0.6990 hc        1 0Y7      0.035700
     53 H24        -2.2970   -2.1430    1.3190 hc        1 0Y7      0.035700
     54 H25        -3.2680   -3.6730    1.2560 hc        1 0Y7      0.035700
@<TRIPOS>BOND
     1    1    2 1   
     2    2    3 ar  
     3    2    5 ar  
     4    3    4 ar  
     5    3   31 1   
     6    4    7 ar  
     7    4   32 1   
     8    5    6 ar  
     9    5   33 1   
    10    6    7 ar  
    11    6   34 1   
    12    7    8 1   
    13    8    9 1   
    14    8   21 1   
    15    8   35 1   
    16    9   10 1   
    17    9   13 1   
    18   10   11 1   
    19   10   29 1   
    20   10   36 1   
    21   11   12 1   
    22   11   37 1   
    23   11   38 1   
    24   12   39 1   
    25   13   14 2   
    26   13   15 1   
    27   15   16 1   
    28   15   20 1   
    29   15   40 1   
    30   16   17 1   
    31   16   41 1   
    32   16   42 1   
    33   17   18 1   
    34   17   19 1   
    35   20   21 1   
    36   20   43 1   
    37   20   44 1   
    38   21   22 1   
    39   21   45 1   
    40   22   23 ar  
    41   22   28 ar  
    42   23   24 ar  
    43   23   46 1   
    44   24   25 ar  
    45   24   47 1   
    46   25   26 ar  
    47   25   48 1   
    48   26   27 1   
    49   26   28 ar  
    50   28   49 1   
    51   29   30 1   
    52   29   50 1   
    53   29   51 1   
    54   30   52 1   
    55   30   53 1   
    56   30   54 1   
@<TRIPOS>SUBSTRUCTURE
     1 0Y7         1 TEMP              0 ****  ****    0 ROOT
