@<TRIPOS>MOLECULE
0Y8
   32    34     1     0     0
SMALL
bcc


@<TRIPOS>ATOM
      1 C1         -0.0510    3.6840    0.0120 ca        1 0Y8      0.445200
      2 N2          0.8270    2.6460   -0.0860 nb        1 0Y8     -0.748000
      3 C3         -1.4280    3.5520    0.0410 ca        1 0Y8     -0.307300
      4 C4          0.3090    1.4090   -0.1590 ca        1 0Y8      0.688600
      5 C5         -1.9900    2.2500   -0.0340 ca        1 0Y8      0.026000
      6 C6         -1.1190    1.1370   -0.1370 ca        1 0Y8     -0.182300
      7 C7         -3.0110   -0.3690   -0.1860 ca        1 0Y8     -0.060900
      8 C8         -1.6450   -0.1740   -0.2100 ca        1 0Y8     -0.028000
      9 C9         -3.8890    0.7380   -0.0860 ca        1 0Y8     -0.085000
     10 C10        -3.3910    2.0170   -0.0110 ca        1 0Y8     -0.147000
     11 BR1        -3.7320   -2.0950   -0.2850 br        1 0Y8     -0.100100
     12 O12         1.0830    0.2920   -0.2750 os        1 0Y8     -0.442100
     13 C13         2.5240    0.4360   -0.2790 c3        1 0Y8      0.128100
     14 C14         3.0740   -0.9630   -0.5730 c3        1 0Y8     -0.076400
     15 C15         4.0870   -1.2560    0.5490 c3        1 0Y8      0.023500
     16 N16         3.9800   -0.2150    1.5800 n3        1 0Y8     -0.799200
     17 C17         3.0590    0.8150    1.1200 c3        1 0Y8      0.141800
     18 C18         5.5130   -1.4210   -0.0720 c         1 0Y8      0.902600
     19 O19         6.4360   -0.6580    0.3280 o         1 0Y8     -0.835800
     20 H1          0.4330    4.6760    0.0700 h4        1 0Y8      0.016100
     21 H2         -2.0840    4.4270    0.1220 ha        1 0Y8      0.136000
     22 H3         -0.9350   -1.0170   -0.2840 ha        1 0Y8      0.175000
     23 H4         -4.9760    0.5670   -0.0670 ha        1 0Y8      0.137000
     24 H5         -4.0680    2.8800    0.0680 ha        1 0Y8      0.133000
     25 H6          2.8120    1.1840   -1.0590 h1        1 0Y8      0.065700
     26 H7          2.2490   -1.7170   -0.5720 hc        1 0Y8      0.061700
     27 H8          3.5760   -0.9960   -1.5710 hc        1 0Y8      0.061700
     28 H9          3.8300   -2.2320    1.0450 h1        1 0Y8      0.054700
     29 H10         3.5300    1.8330    1.0820 h1        1 0Y8      0.035200
     30 H11         2.2000    0.8600    1.8460 h1        1 0Y8      0.035200
     31 H12         4.8990    0.1770    1.7280 hn        1 0Y8      0.379800
     32 OXT         5.6480   -2.3190   -0.9480 o         1 0Y8     -0.835800
@<TRIPOS>BOND
     1    1    2 ar  
     2    1    3 ar  
     3    1   20 1   
     4    2    4 ar  
     5    3    5 ar  
     6    3   21 1   
     7    4    6 ar  
     8    4   12 1   
     9    5    6 ar  
    10    5   10 ar  
    11    6    8 ar  
    12    7    8 ar  
    13    7    9 ar  
    14    7   11 1   
    15    8   22 1   
    16    9   10 ar  
    17    9   23 1   
    18   10   24 1   
    19   12   13 1   
    20   13   14 1   
    21   13   17 1   
    22   13   25 1   
    23   14   15 1   
    24   14   26 1   
    25   14   27 1   
    26   15   16 1   
    27   15   18 1   
    28   15   28 1   
    29   16   17 1   
    30   16   31 1   
    31   17   29 1   
    32   17   30 1   
    33   18   19 1   
    34   18   32 1   
@<TRIPOS>SUBSTRUCTURE
     1 0Y8         1 TEMP              0 ****  ****    0 ROOT
