@<TRIPOS>MOLECULE
0Y8
   32    30     1     0     0
SMALL
bcc


@<TRIPOS>ATOM
      1 C1         -3.0240    0.5270   -0.8240 c1        1 0Y8     -0.073500
      2 N2         -1.6600    0.5700   -0.8850 n1        1 0Y8     -0.547800
      3 C3         -3.6580    0.2340    0.3770 c1        1 0Y8     -0.073500
      4 C4         -0.9120    0.3240    0.2440 cg        1 0Y8      0.482500
      5 C5         -2.9050   -0.0150    1.5180 c1        1 0Y8      0.152200
      6 C6         -1.5520    0.0270    1.4610 ce        1 0Y8     -0.146800
      7 C7         -1.4280   -0.3740    3.8410 c1        1 0Y8     -0.074800
      8 C8         -0.7920   -0.1530    2.6320 ce        1 0Y8     -0.091100
      9 C9         -2.7860   -0.4160    3.8970 ce        1 0Y8     -0.148100
     10 C10        -3.5410   -0.2360    2.7310 ce        1 0Y8     -0.210100
     11 BR1        -0.7310   -0.4990    5.6960 br        1 0Y8      0.040000
     12 O12         0.5350    0.4700    0.2580 o         1 0Y8     -0.361500
     13 C13         1.0860    0.3110   -1.1870 c3        1 0Y8      0.217800
     14 C14         2.1160   -0.7840   -1.2280 c3        1 0Y8     -0.076400
     15 C15         3.4220   -0.1790   -2.0060 c3        1 0Y8      0.023500
     16 N16         2.8800    0.9360   -2.5080 n3        1 0Y8     -0.799200
     17 C17         1.6880    1.3710   -1.5450 c3        1 0Y8      0.141800
     18 C18         4.0360   -1.1090   -3.0390 c         1 0Y8      0.902600
     19 O19         4.5500   -0.6180   -4.1310 o         1 0Y8     -0.835800
     20 H1         -3.5840    0.6930   -1.6730 ha        1 0Y8      0.087000
     21 H2         -4.6160    0.2120    0.4220 ha        1 0Y8      0.087000
     22 H3          0.1330   -0.1240    2.5920 ha        1 0Y8      0.175000
     23 H4         -3.2370   -0.5720    4.7570 ha        1 0Y8      0.137000
     24 H5         -4.5040   -0.3280    2.7590 ha        1 0Y8      0.133000
     25 H6          0.3700    0.1150   -1.7970 h1        1 0Y8      0.065700
     26 H7          1.7600   -1.5600   -1.7190 hc        1 0Y8      0.061700
     27 H8          2.3580   -1.0410   -0.3290 hc        1 0Y8      0.061700
     28 H9          4.2050    0.0040   -1.3850 h1        1 0Y8      0.054700
     29 H10         2.0520    1.8400   -0.7450 h1        1 0Y8      0.035200
     30 H11         1.0650    1.9630   -2.0280 h1        1 0Y8      0.035200
     31 H12         2.5450    0.7630   -3.3570 hn        1 0Y8      0.379800
     32 OXT         4.1290   -2.3510   -2.7970 o         1 0Y8     -0.835800
@<TRIPOS>BOND
     1    1    3 3   
     2    1   20 1   
     3    2    4 3   
     4    3   21 1   
     5    4    6 1   
     6    5    6 2   
     7    5   10 2   
     8    6    8 1   
     9    7    8 2   
    10    7    9 2   
    11    8   22 1   
    12    9   10 1   
    13    9   23 1   
    14   10   24 1   
    15   12   13 1   
    16   13   14 1   
    17   13   17 1   
    18   13   25 1   
    19   14   15 1   
    20   14   26 1   
    21   14   27 1   
    22   15   16 1   
    23   15   18 1   
    24   15   28 1   
    25   16   17 1   
    26   16   31 1   
    27   17   29 1   
    28   17   30 1   
    29   18   19 1   
    30   18   32 1   
@<TRIPOS>SUBSTRUCTURE
     1 0Y8         1 TEMP              0 ****  ****    0 ROOT
