@<TRIPOS>MOLECULE
0Y9
   17    17     1     0     0
SMALL
bcc


@<TRIPOS>ATOM
      1 N20        -1.2700    1.7870   -0.6000 n3        1 0Y9     -0.869800
      2 C21        -0.4860    0.8120    0.1260 cx        1 0Y9      0.003200
      3 C22         1.0320    0.8300   -0.1000 cx        1 0Y9     -0.097500
      4 C23         0.4520    1.2800    1.2160 cx        1 0Y9     -0.110400
      5 C24         1.7770   -0.4270   -0.1690 c2        1 0Y9     -0.090200
      6 C25         2.9220   -0.5710   -0.8370 c2        1 0Y9     -0.294000
      7 C26        -1.1830   -0.5520    0.3590 c         1 0Y9      0.916600
      8 O27        -0.7310   -1.3180    1.2550 o         1 0Y9     -0.837300
      9 H12        -1.6190    1.3260   -1.4250 hn        1 0Y9      0.340800
     10 H13         1.4320    1.6210   -0.7700 hc        1 0Y9      0.059700
     11 H14         0.5130    2.3510    1.4740 hc        1 0Y9      0.064700
     12 H15         0.5520    0.6120    2.0920 hc        1 0Y9      0.064700
     13 H16         1.3090   -1.2690    0.3830 ha        1 0Y9      0.172000
     14 H17         3.3950    0.2450   -1.3960 ha        1 0Y9      0.088000
     15 H18         3.4580   -1.5270   -0.8720 ha        1 0Y9      0.088000
     16 H2         -2.0700    2.0070   -0.0330 hn        1 0Y9      0.340800
     17 OXT        -2.1940   -0.8150   -0.3540 o         1 0Y9     -0.837300
@<TRIPOS>BOND
     1    1    2 1   
     2    1    9 1   
     3    1   16 1   
     4    2    3 1   
     5    2    4 1   
     6    2    7 1   
     7    3    4 1   
     8    3    5 1   
     9    3   10 1   
    10    4   11 1   
    11    4   12 1   
    12    5    6 2   
    13    5   13 1   
    14    6   14 1   
    15    6   15 1   
    16    7    8 1   
    17    7   17 1   
@<TRIPOS>SUBSTRUCTURE
     1 0Y9         1 TEMP              0 ****  ****    0 ROOT
