@<TRIPOS>MOLECULE
0YA
   15    15     1     0     0
SMALL
bcc


@<TRIPOS>ATOM
      1 N28         0.1030   -0.0470   -0.3300 nz        1 0YA     -0.792500
      2 S29         1.8640    0.2110    0.3590 s6        1 0YA      1.460900
      3 O30         1.5690    0.4890    1.6730 o         1 0YA     -0.554300
      4 O31         2.4560   -0.9680   -0.0300 o         1 0YA     -0.554300
      5 C32         2.2580    1.5050   -0.5220 cx        1 0YA     -0.590900
      6 C33         2.3410    1.5990   -2.0460 cx        1 0YA     -0.004400
      7 C34         3.5970    1.6370   -1.2720 cx        1 0YA     -0.004400
      8 H19        -0.5890    0.0730    0.4110 hn        1 0YA      0.461800
      9 H20         1.9450    2.4750   -0.0450 h1        1 0YA      0.190700
     10 H21         1.9580    2.5250   -2.5200 hc        1 0YA      0.116200
     11 H22         2.0940    0.6930   -2.6350 hc        1 0YA      0.116200
     12 H23         4.2710    0.7560   -1.2710 hc        1 0YA      0.116200
     13 H24         4.1480    2.5910   -1.1510 hc        1 0YA      0.116200
     14 H2         -0.1270    0.6020   -1.0770 hn        1 0YA      0.461800
     15 H283       -0.0010   -0.9930   -0.6960 hn        1 0YA      0.461800
@<TRIPOS>BOND
     1    1    2 1   
     2    1    8 1   
     3    1   14 1   
     4    1   15 1   
     5    2    3 2   
     6    2    4 2   
     7    2    5 1   
     8    5    6 1   
     9    5    7 1   
    10    5    9 1   
    11    6    7 1   
    12    6   10 1   
    13    6   11 1   
    14    7   12 1   
    15    7   13 1   
@<TRIPOS>SUBSTRUCTURE
     1 0YA         1 TEMP              0 ****  ****    0 ROOT
