@<TRIPOS>MOLECULE
0YA
   14    13     1     0     0
SMALL
bcc


@<TRIPOS>ATOM
      1 N28        -1.8330    0.6060   -1.2110 n3        1 0YA     -0.955000
      2 S29        -0.5760   -0.3450   -0.7150 s4        1 0YA      2.073800
      3 O30        -0.0510   -1.1270   -1.8050 o         1 0YA     -0.545400
      4 O31        -1.0250   -1.3800    0.1810 o         1 0YA     -0.545400
      5 C32         0.6460    0.6160    0.0060 cu        1 0YA     -0.919000
      6 C33         1.5390   -0.4570    0.5800 cx        1 0YA     -0.133500
      7 C34         0.5530    0.1530    1.4390 cx        1 0YA     -0.133500
      8 H19        -1.8100    1.0030   -2.0370 hn        1 0YA      0.243500
      9 H20         0.6370    1.4120   -0.5680 ha        1 0YA      0.177000
     10 H21         2.4700   -0.1900    0.7460 hc        1 0YA      0.123500
     11 H22         1.3410   -1.3730    0.2900 hc        1 0YA      0.123500
     12 H23         0.9030    0.7780    2.1110 hc        1 0YA      0.123500
     13 H24        -0.2240   -0.4050    1.6550 hc        1 0YA      0.123500
     14 H2         -2.5690    0.7100   -0.6730 hn        1 0YA      0.243500
@<TRIPOS>BOND
     1    1    2 1   
     2    1    8 1   
     3    1   14 1   
     4    2    3 1   
     5    2    4 1   
     6    5    6 1   
     7    5    7 1   
     8    5    9 1   
     9    6    7 1   
    10    6   10 1   
    11    6   11 1   
    12    7   12 1   
    13    7   13 1   
@<TRIPOS>SUBSTRUCTURE
     1 0YA         1 TEMP              0 ****  ****    0 ROOT
