@<TRIPOS>MOLECULE
0YA
   15    15     1     0     0
SMALL
bcc


@<TRIPOS>ATOM
      1 N28         0.1020   -0.0290   -0.2980 n4        1 0YA     -0.792500
      2 S29         1.8850    0.1880    0.3450 s6        1 0YA      1.460900
      3 O30         1.6320    0.4430    1.6710 o         1 0YA     -0.554300
      4 O31         2.4470   -0.9910   -0.0860 o         1 0YA     -0.554300
      5 C32         2.2740    1.4940   -0.5210 cx        1 0YA     -0.590900
      6 C33         2.3150    1.6180   -2.0450 cx        1 0YA     -0.004400
      7 C34         3.5920    1.6230   -1.3060 cx        1 0YA     -0.004400
      8 H19        -0.0280   -0.9660   -0.6800 hn        1 0YA      0.461800
      9 H20         1.9890    2.4590   -0.0160 h1        1 0YA      0.190700
     10 H21         1.9330    2.5590   -2.4890 hc        1 0YA      0.116450
     11 H22         2.0380    0.7290   -2.6440 hc        1 0YA      0.116450
     12 H23         4.1610    2.5660   -1.1820 hc        1 0YA      0.116450
     13 H24         4.2530    0.7320   -1.3420 hc        1 0YA      0.116450
     14 H2         -0.5670    0.0860    0.4650 hn        1 0YA      0.461800
     15 H283       -0.1390    0.6380   -1.0260 hn        1 0YA      0.461800
@<TRIPOS>BOND
     1    1    2 1   
     2    1    8 1   
     3    1   14 1   
     4    1   15 1   
     5    2    3 2   
     6    2    4 2   
     7    2    5 1   
     8    5    6 1   
     9    5    7 1   
    10    5    9 1   
    11    6    7 1   
    12    6   10 1   
    13    6   11 1   
    14    7   12 1   
    15    7   13 1   
@<TRIPOS>SUBSTRUCTURE
     1 0YA         1 TEMP              0 ****  ****    0 ROOT
