@<TRIPOS>MOLECULE
0YA
   14    14     1     0     0
SMALL
bcc


@<TRIPOS>ATOM
      1 N28         1.2660   -1.0490    0.5580 n3        1 0YA     -1.028700
      2 S29         0.6590    0.3570    0.0940 s6        1 0YA      1.501900
      3 O30         1.3020    1.4000    0.7920 o         1 0YA     -0.657800
      4 O31         0.6520    0.4210   -1.3150 o         1 0YA     -0.657800
      5 C32        -0.9460    0.2970    0.6450 cx        1 0YA     -0.418900
      6 C33        -1.9050   -0.8430    0.4040 cx        1 0YA     -0.054900
      7 C34        -2.1240    0.4540   -0.2900 cx        1 0YA     -0.054900
      8 H19         1.7100   -1.1930    1.4300 hn        1 0YA      0.448300
      9 H20        -1.0510    0.8050    1.6320 h1        1 0YA      0.137700
     10 H21        -1.5500   -1.7170   -0.1740 hc        1 0YA      0.084200
     11 H22        -2.5790   -1.1420    1.2280 hc        1 0YA      0.084200
     12 H23        -2.9570    1.1080    0.0250 hc        1 0YA      0.084200
     13 H24        -1.9110    0.5360   -1.3750 hc        1 0YA      0.084200
     14 H2          1.2770   -1.8560   -0.0130 hn        1 0YA      0.448300
@<TRIPOS>BOND
     1    1    2 1   
     2    1    8 1   
     3    1   14 1   
     4    2    3 2   
     5    2    4 2   
     6    2    5 1   
     7    5    6 1   
     8    5    7 1   
     9    5    9 1   
    10    6    7 1   
    11    6   10 1   
    12    6   11 1   
    13    7   12 1   
    14    7   13 1   
@<TRIPOS>SUBSTRUCTURE
     1 0YA         1 TEMP              0 ****  ****    0 ROOT
