@<TRIPOS>MOLECULE
0YA
   15    15     1     0     0
SMALL
bcc


@<TRIPOS>ATOM
      1 N28         0.0940    0.3030    0.0630 n4        1 0YA     -0.792500
      2 S29         1.8550   -0.4310    0.0070 s6        1 0YA      1.460900
      3 O30         1.5600   -1.7360   -0.3100 o         1 0YA     -0.554300
      4 O31         2.4510    0.4290   -0.8850 o         1 0YA     -0.554300
      5 C32         2.2410   -0.1940    1.5560 cx        1 0YA     -0.590900
      6 C33         2.3200    1.1400    2.3000 cx        1 0YA     -0.004400
      7 C34         3.5770    0.4250    2.0060 cx        1 0YA     -0.004400
      8 H19        -0.5980   -0.4170   -0.1520 hn        1 0YA      0.461800
      9 H20         1.9250   -1.0440    2.2240 h1        1 0YA      0.190700
     10 H21         1.9320    1.1680    3.3380 hc        1 0YA      0.116200
     11 H22         2.0750    2.0620    1.7360 hc        1 0YA      0.116200
     12 H23         4.1250   -0.0960    2.8180 hc        1 0YA      0.116200
     13 H24         4.2550    0.8050    1.2140 hc        1 0YA      0.116200
     14 H2         -0.0070    1.0420   -0.6330 hn        1 0YA      0.461800
     15 H283       -0.1410    0.6970    0.9690 hn        1 0YA      0.461800
@<TRIPOS>BOND
     1    1    2 1   
     2    1    8 1   
     3    1   14 1   
     4    1   15 1   
     5    2    3 2   
     6    2    4 2   
     7    2    5 1   
     8    5    6 1   
     9    5    7 1   
    10    5    9 1   
    11    6    7 1   
    12    6   10 1   
    13    6   11 1   
    14    7   12 1   
    15    7   13 1   
@<TRIPOS>SUBSTRUCTURE
     1 0YA         1 TEMP              0 ****  ****    0 ROOT
