@<TRIPOS>MOLECULE
0YB
   71    71     1     0     0
SMALL
bcc


@<TRIPOS>ATOM
      1 C31         2.6880    1.5790    0.8580 c3        1 0YB     -0.329000
      2 C24         4.7550   -2.1480    3.4790 c3        1 0YB     -0.224000
      3 C23         4.7880   -3.2890    2.5860 c1        1 0YB     -0.051000
      4 C30         2.1920    0.2430    1.1000 c1        1 0YB     -0.026000
      5 C32         1.8670    2.7290    1.2240 c1        1 0YB     -0.023000
      6 C27         2.3360   -2.9640    2.2510 c2        1 0YB     -0.079000
      7 C34         0.6070    1.3150    2.7730 c2        1 0YB     -0.044000
      8 C25         3.5600   -1.2540    3.4600 c2        1 0YB     -0.129000
      9 C22         3.6440   -3.4930    1.6980 c3        1 0YB     -0.150000
     10 C29         1.0480    0.0880    2.0270 c3        1 0YB     -0.023000
     11 C26         2.4010   -1.6700    2.8980 c2        1 0YB      0.024000
     12 C33         0.9640    2.5390    2.3240 c2        1 0YB     -0.265000
     13 C3          3.9060   -1.8010    7.2730 cx        1 0YB     -0.032000
     14 C2          3.0930   -1.1460    8.3770 cx        1 0YB     -0.213000
     15 C8          2.9520   -1.8660    9.6680 c2        1 0YB      0.345000
     16 C5          4.3830   -3.6990    8.7970 c2        1 0YB      0.328000
     17 C12         3.5940   -8.1510    4.7080 c2        1 0YB     -0.232500
     18 C11         4.0910   -7.8240    5.8930 c2        1 0YB     -0.232500
     19 C13         1.1680   -6.1230    1.0720 c1        1 0YB     -0.183000
     20 C15         1.3570   -3.8890    2.1210 c2        1 0YB     -0.133000
     21 C10         4.9740   -3.7620    6.4360 c1        1 0YB     -0.102000
     22 C1          4.4530   -0.6010    8.0080 cx        1 0YB     -0.176000
     23 C19         3.0990   -7.6120   -1.4140 c3        1 0YB     -0.215667
     24 C20         3.4320   -5.4040   -2.5160 c3        1 0YB     -0.215667
     25 C21         1.6950   -6.9690   -3.3670 c3        1 0YB     -0.215667
     26 C17         4.0980   -5.9210    2.1630 c1        1 0YB     -0.024000
     27 C16         3.3150   -4.9800    1.3490 c3        1 0YB     -0.053000
     28 N7          3.6630   -3.0680    9.8170 n         1 0YB     -0.375000
     29 N4          4.4490   -3.1260    7.4580 n         1 0YB     -0.132000
     30 N14         1.8350   -5.0970    1.5070 n3        1 0YB     -0.091000
     31 O37         3.5050    0.2770    5.3000 o         1 0YB     -0.563500
     32 O38         4.3100    1.0040    3.3520 o         1 0YB     -0.563500
     33 O28         1.1970   -0.9740    2.9820 os        1 0YB     -0.192000
     34 BR3         0.3140    4.1010    3.1360 br        1 0YB      0.040000
     35 H1          3.0990    1.6860   -0.1820 hc        1 0YB      0.223000
     36 H2          4.8790   -2.5790    4.5360 hc        1 0YB      0.189500
     37 H3          5.6860   -1.5310    3.3030 hc        1 0YB      0.189500
     38 H4          0.1760   -0.2240    1.3590 h1        1 0YB      0.129000
     39 H5          3.6200    1.6140    1.5680 hc        1 0YB      0.223000
     40 H6          3.9020   -2.9330    0.7470 hc        1 0YB      0.165000
     41 H7         -0.0250    1.1390    3.6580 ha        1 0YB      0.157000
     42 H8          3.5870   -1.6310    6.2060 h1        1 0YB      0.234000
     43 H9          0.0700   -6.0900    1.2400 ha        1 0YB      0.037000
     44 H10         3.9030   -4.9900    4.1670 ha        1 0YB      0.017500
     45 H11         4.5660   -6.8510    6.0810 ha        1 0YB      0.114250
     46 H12         4.0630   -8.4930    6.7630 ha        1 0YB      0.114250
     47 H13         3.1160   -9.1220    4.5170 ha        1 0YB      0.114250
     48 H14         3.6260   -7.4700    3.8370 ha        1 0YB      0.114250
     49 H15         0.3060   -3.8260    2.4170 h4        1 0YB      0.169000
     50 H16         5.3880   -4.7740    6.6230 ha        1 0YB      0.081000
     51 H17         4.5780   -5.0530    4.2540 ha        1 0YB      0.017500
     52 H18         5.2850   -0.7020    8.7250 hc        1 0YB      0.146500
     53 H19         4.4860    0.3430    7.4220 hc        1 0YB      0.146500
     54 H20         2.1880   -0.5680    8.1020 hc        1 0YB      0.183000
     55 H21         2.8250   -8.6820   -1.5760 hc        1 0YB      0.075333
     56 H22         2.3790   -7.1700   -0.6740 hc        1 0YB      0.075333
     57 H23         4.1250   -7.5720   -0.9750 hc        1 0YB      0.075333
     58 H24         4.4370   -5.3250   -2.0350 hc        1 0YB      0.075333
     59 H25         2.6830   -4.9030   -1.8560 hc        1 0YB      0.075333
     60 H26         3.4610   -4.8630   -3.4920 hc        1 0YB      0.075333
     61 H27         3.8180   -7.3160   -3.4250 hc        1 0YB      0.070000
     62 H28         1.6700   -6.4140   -4.3350 hc        1 0YB      0.075333
     63 H29         1.4450   -8.0400   -3.5630 hc        1 0YB      0.075333
     64 H30         5.1870   -5.8000    2.0300 ha        1 0YB      0.065000
     65 H31         0.9130   -6.5430   -2.6920 hc        1 0YB      0.075333
     66 H32         3.5410   -5.1990    0.2560 h1        1 0YB      0.141000
     67 H33         3.6080   -3.5530   10.6880 hn        1 0YB      0.252000
     68 C18         3.0620   -6.8570   -2.7260 c3        1 0YB     -0.105000
     69 O9          2.2540   -1.4780   10.6180 o         1 0YB     -0.332000
     70 C36         3.7930    0.1090    4.0840 c2        1 0YB      0.368000
     71 O6          4.9660   -4.7750    9.0450 o         1 0YB     -0.353000
@<TRIPOS>BOND
     1    1    4 1   
     2    1    5 1   
     3    1   35 1   
     4    1   39 1   
     5    2    3 1   
     6    2    8 1   
     7    2   36 1   
     8    2   37 1   
     9    3    9 1   
    10    4   10 1   
    11    5   12 1   
    12    6    9 1   
    13    6   11 1   
    14    6   20 1   
    15    7   10 1   
    16    7   12 1   
    17    7   41 1   
    18    8   11 1   
    19    8   70 1   
    20    9   27 1   
    21    9   40 1   
    22   10   33 1   
    23   10   38 1   
    24   11   33 1   
    25   12   34 1   
    26   13   14 1   
    27   13   22 1   
    28   13   29 1   
    29   13   42 1   
    30   14   15 1   
    31   14   22 1   
    32   14   54 1   
    33   15   28 1   
    34   15   69 1   
    35   16   28 1   
    36   16   29 1   
    37   16   71 1   
    38   17   18 1   
    39   17   47 1   
    40   17   48 1   
    41   18   45 1   
    42   18   46 1   
    43   19   30 1   
    44   19   43 1   
    45   20   30 1   
    46   20   49 1   
    47   21   29 1   
    48   21   50 1   
    49   22   52 1   
    50   22   53 1   
    51   23   55 1   
    52   23   56 1   
    53   23   57 1   
    54   23   68 1   
    55   24   58 1   
    56   24   59 1   
    57   24   60 1   
    58   24   68 1   
    59   25   62 1   
    60   25   63 1   
    61   25   65 1   
    62   25   68 1   
    63   26   27 1   
    64   26   64 1   
    65   27   30 1   
    66   27   66 1   
    67   28   67 1   
    68   31   70 1   
    69   32   70 1   
    70   44   51 1   
    71   61   68 1   
@<TRIPOS>SUBSTRUCTURE
     1 0YB         1 TEMP              0 ****  ****    0 ROOT
