@<TRIPOS>MOLECULE
0YB
   71    74     1     0     0
SMALL
bcc


@<TRIPOS>ATOM
      1 C31         1.3050   -4.8670   -2.0310 ca        1 0YB     -0.131000
      2 C24         2.0280    1.1630   -2.4350 ca        1 0YB     -0.112000
      3 C23         1.7690    1.9940   -1.3520 ca        1 0YB     -0.142000
      4 C30         2.1210   -3.7400   -1.9570 ca        1 0YB     -0.095000
      5 C32         0.4750   -5.2200   -0.9670 ca        1 0YB     -0.124000
      6 C27         2.2320    0.1710    0.1600 ca        1 0YB     -0.149000
      7 C34         1.2590   -3.2990    0.2870 ca        1 0YB     -0.128000
      8 C25         2.4110   -0.1750   -2.2580 ca        1 0YB     -0.101600
      9 C22         1.8700    1.5020   -0.0440 ca        1 0YB     -0.120300
     10 C29         2.0920   -2.9660   -0.7890 ca        1 0YB      0.107100
     11 C26         2.5110   -0.6520   -0.9450 ca        1 0YB      0.099100
     12 C33         0.4540   -4.4350    0.1890 ca        1 0YB     -0.027900
     13 C3         -3.5680    1.6560   -1.1060 cc        1 0YB      0.047600
     14 C2         -4.4810    0.7730   -1.6030 cd        1 0YB     -0.261400
     15 C8         -5.0730   -0.2420   -0.7160 c         1 0YB      0.720700
     16 C5         -3.6320    0.6420    1.0910 c         1 0YB      0.808500
     17 C12        -1.4390    4.3420    2.3130 c3        1 0YB     -0.074400
     18 C11        -2.5330    3.3550    1.9660 c3        1 0YB     -0.097400
     19 C13        -0.0760    3.6550    2.3770 c3        1 0YB      0.160800
     20 C15        -0.7660    1.9630    0.8210 c3        1 0YB      0.141800
     21 C10        -2.1640    2.6280    0.6650 c3        1 0YB      0.118700
     22 C1         -4.8830    0.7590   -3.0230 c3        1 0YB     -0.030900
     23 C19         4.7520    4.5240    2.0610 c3        1 0YB     -0.087100
     24 C20         4.4460    2.0770    2.2370 c3        1 0YB     -0.087100
     25 C21         3.0750    3.6140    3.6330 c3        1 0YB     -0.087100
     26 C17         2.6940    3.5150    1.1440 c3        1 0YB     -0.069400
     27 C16         1.6170    2.4050    1.1430 c3        1 0YB      0.243800
     28 N7         -4.5970   -0.2580    0.6050 n         1 0YB     -0.585500
     29 N4         -3.1790    1.6720    0.2260 n         1 0YB     -0.363000
     30 N14         0.2490    2.9610    1.1370 n3        1 0YB     -0.726600
     31 O37         1.7820   -0.9550   -4.4140 o         1 0YB     -0.816800
     32 O38         3.7410   -1.6560   -3.6060 o         1 0YB     -0.816800
     33 O28         3.0080   -1.9250   -0.6380 os        1 0YB     -0.259200
     34 BR3        -0.6650   -4.9120    1.6220 br        1 0YB     -0.132100
     35 H1          1.3100   -5.4790   -2.9450 ha        1 0YB      0.134000
     36 H2          1.9260    1.5370   -3.4660 ha        1 0YB      0.148000
     37 H3          1.4760    3.0420   -1.5140 ha        1 0YB      0.122000
     38 H4          2.7730   -3.4240   -2.7980 ha        1 0YB      0.219000
     39 H5         -0.1640   -6.1110   -1.0460 ha        1 0YB      0.130000
     40 H6          2.3200   -0.2450    1.1740 ha        1 0YB      0.126000
     41 H7          1.2540   -2.6640    1.1850 ha        1 0YB      0.145000
     42 H8         -3.0960    2.4190   -1.7550 h4        1 0YB      0.169000
     43 H9         -1.4130    5.1680    1.5560 hc        1 0YB      0.042200
     44 H10        -1.6540    4.8010    3.3120 hc        1 0YB      0.042200
     45 H11        -2.6490    2.6140    2.8000 hc        1 0YB      0.060700
     46 H12        -3.5080    3.8930    1.8440 hc        1 0YB      0.060700
     47 H13         0.7120    4.4360    2.5670 h1        1 0YB      0.033700
     48 H14        -0.0720    2.9510    3.2630 h1        1 0YB      0.033700
     49 H15        -0.8410    1.1630    1.6140 h1        1 0YB      0.065700
     50 H16        -0.4890    1.4720   -0.1540 h1        1 0YB      0.065700
     51 H17        -2.0900    3.4090   -0.1530 h1        1 0YB      0.068700
     52 H18        -4.3040   -0.0230   -3.5770 hc        1 0YB      0.050700
     53 H19        -5.9710    0.5120   -3.1110 hc        1 0YB      0.050700
     54 H20        -4.6940    1.7490   -3.5060 hc        1 0YB      0.050700
     55 H21         5.2750    4.3850    1.0840 hc        1 0YB      0.033033
     56 H22         4.2530    5.5230    2.0600 hc        1 0YB      0.033033
     57 H23         5.5110    4.5050    2.8780 hc        1 0YB      0.033033
     58 H24         4.9050    1.9130    1.2320 hc        1 0YB      0.033033
     59 H25         5.2540    2.0570    3.0070 hc        1 0YB      0.033033
     60 H26         3.7410    1.2360    2.4410 hc        1 0YB      0.033033
     61 H27         3.8380    3.5020    4.4410 hc        1 0YB      0.033033
     62 H28         2.6310    4.6360    3.7050 hc        1 0YB      0.033033
     63 H29         2.2670    2.8630    3.8030 hc        1 0YB      0.033033
     64 H30         3.2500    3.4670    0.1680 hc        1 0YB      0.052700
     65 H31         2.2260    4.5340    1.1880 hc        1 0YB      0.052700
     66 H32         1.7480    1.7800    2.0830 h1        1 0YB      0.027700
     67 H33        -4.8970   -0.9750    1.2300 hn        1 0YB      0.347500
     68 C18         3.7230    3.4150    2.2720 c3        1 0YB     -0.056000
     69 O9         -5.9520   -1.0590   -1.0420 o         1 0YB     -0.625500
     70 C36         2.6680   -0.9990   -3.5150 c         1 0YB      0.907200
     71 O6         -3.2320    0.5280    2.2700 o         1 0YB     -0.649500
@<TRIPOS>BOND
     1    1    4 ar  
     2    1    5 ar  
     3    1   35 1   
     4    2    3 ar  
     5    2    8 ar  
     6    2   36 1   
     7    3    9 ar  
     8    3   37 1   
     9    4   10 ar  
    10    4   38 1   
    11    5   12 ar  
    12    5   39 1   
    13    6    9 ar  
    14    6   11 ar  
    15    6   40 1   
    16    7   10 ar  
    17    7   12 ar  
    18    7   41 1   
    19    8   11 ar  
    20    8   70 1   
    21    9   27 1   
    22   10   33 1   
    23   11   33 1   
    24   12   34 1   
    25   13   14 2   
    26   13   29 1   
    27   13   42 1   
    28   14   15 1   
    29   14   22 1   
    30   15   28 1   
    31   15   69 2   
    32   16   28 1   
    33   16   29 1   
    34   16   71 2   
    35   17   18 1   
    36   17   19 1   
    37   17   43 1   
    38   17   44 1   
    39   18   21 1   
    40   18   45 1   
    41   18   46 1   
    42   19   30 1   
    43   19   47 1   
    44   19   48 1   
    45   20   21 1   
    46   20   30 1   
    47   20   49 1   
    48   20   50 1   
    49   21   29 1   
    50   21   51 1   
    51   22   52 1   
    52   22   53 1   
    53   22   54 1   
    54   23   55 1   
    55   23   56 1   
    56   23   57 1   
    57   23   68 1   
    58   24   58 1   
    59   24   59 1   
    60   24   60 1   
    61   24   68 1   
    62   25   61 1   
    63   25   62 1   
    64   25   63 1   
    65   25   68 1   
    66   26   27 1   
    67   26   64 1   
    68   26   65 1   
    69   26   68 1   
    70   27   30 1   
    71   27   66 1   
    72   28   67 1   
    73   31   70 1   
    74   32   70 1   
@<TRIPOS>SUBSTRUCTURE
     1 0YB         1 TEMP              0 ****  ****    0 ROOT
