@<TRIPOS>MOLECULE
0YB
   71    71     1     0     0
SMALL
bcc


@<TRIPOS>ATOM
      1 C31         0.1300    0.2080    0.4440 c3        1 0YB     -0.195000
      2 C24         4.9110   -3.2890    3.4110 c3        1 0YB     -0.133000
      3 C23         4.2950   -4.3010    2.5380 c2        1 0YB     -0.132000
      4 C30         1.5100   -0.3180    0.4660 c2        1 0YB     -0.132000
      5 C32        -0.2710    1.1150    1.5170 c1        1 0YB     -0.105000
      6 C27         3.5440   -2.6370    0.8600 c1        1 0YB     -0.089000
      7 C34         1.9280    0.8900    2.5610 c2        1 0YB      0.050000
      8 C25         4.5500   -1.9030    3.0050 c2        1 0YB      0.045000
      9 C22         4.0860   -3.9860    1.0730 c3        1 0YB     -0.130000
     10 C29         2.3510    0.0420    1.4700 c2        1 0YB     -0.002000
     11 C26         3.9260   -1.6580    1.8070 c2        1 0YB     -0.120000
     12 C33         0.6560    1.4080    2.5400 c2        1 0YB     -0.285000
     13 C3          3.7030   -1.8470    7.2450 c2        1 0YB      0.024000
     14 C2          3.4900   -0.8720    8.1620 c2        1 0YB     -0.178000
     15 C8          3.1500   -1.2060    9.5590 c2        1 0YB      0.350000
     16 C5          3.2560   -3.5850    8.9230 c2        1 0YB      0.327000
     17 C12         2.0540   -7.2260    5.9770 c2        1 0YB     -0.226000
     18 C11         2.1240   -7.5000    7.2730 c2        1 0YB     -0.226000
     19 C13         2.4340   -7.2200    1.6670 c1        1 0YB     -0.190000
     20 C15         3.7130   -5.4790    2.8560 c2        1 0YB     -0.144000
     21 C10         3.8690   -4.1350    6.6250 c1        1 0YB     -0.077000
     22 C1          3.5860    0.5600    7.8040 c3        1 0YB     -0.178000
     23 C19         3.9140   -6.1090   -3.1160 c3        1 0YB     -0.212333
     24 C20         3.8910   -3.8250   -2.1590 c3        1 0YB     -0.212333
     25 C21         1.8180   -5.1960   -2.1660 c3        1 0YB     -0.212333
     26 C17         3.7350   -5.8540   -0.6730 c3        1 0YB     -0.152000
     27 C16         3.1780   -5.1520    0.5660 c3        1 0YB      0.039000
     28 N7          3.0460   -2.5790    9.8640 ns        1 0YB     -0.368000
     29 N4          3.6200   -3.2290    7.5530 n         1 0YB     -0.136000
     30 N14         3.0590   -6.0830    1.7300 n3        1 0YB     -0.106000
     31 O37         3.9970   -0.2350    4.6220 o         1 0YB     -0.542000
     32 O38         6.1610   -0.6560    4.2300 o         1 0YB     -0.542000
     33 O28         3.6990   -0.3120    1.4600 os        1 0YB     -0.153000
     34 Br3         0.0770    2.5450    3.9180 br        1 0YB      0.028000
     35 H1         -0.6020   -0.6540    0.4630 hc        1 0YB      0.152500
     36 H2          4.5980   -3.4480    4.4890 hc        1 0YB      0.150000
     37 H3          6.0370   -3.3660    3.3860 hc        1 0YB      0.150000
     38 H4          1.8410   -1.0160   -0.3200 ha        1 0YB      0.165000
     39 H5         -0.0500    0.7510   -0.5310 hc        1 0YB      0.152500
     40 H6          5.0730   -4.0110    0.5210 hc        1 0YB      0.142000
     41 H7          2.6640    1.0540    3.3780 ha        1 0YB      0.211000
     42 H8          3.9560   -1.6160    6.1770 h4        1 0YB      0.258000
     43 H9          2.4040   -7.8060    2.6120 ha        1 0YB      0.034000
     44 H10         4.5540   -7.0430    5.7040 ha        1 0YB      0.000000
     45 H11         2.3640   -6.7380    8.0310 ha        1 0YB      0.113500
     46 H12         1.9490   -8.5070    7.6750 ha        1 0YB      0.113500
     47 H13         1.8180   -7.9830    5.2170 ha        1 0YB      0.113500
     48 H14         2.2260   -6.2160    5.5760 ha        1 0YB      0.113500
     49 H15         3.6720   -5.9890    3.8260 h4        1 0YB      0.168000
     50 H16         3.7850   -5.2000    6.9360 ha        1 0YB      0.077000
     51 H17         5.1950   -7.0140    5.4840 ha        1 0YB      0.000000
     52 H18         4.3900    1.0490    8.4080 hc        1 0YB      0.109667
     53 H19         3.8210    0.6790    6.7110 hc        1 0YB      0.109667
     54 H20         2.6180    1.0730    8.0290 hc        1 0YB      0.109667
     55 H21         3.4810   -7.1360   -3.0640 hc        1 0YB      0.075778
     56 H22         5.0230   -6.1820   -3.0100 hc        1 0YB      0.075778
     57 H23         3.6810   -5.6740   -4.1170 hc        1 0YB      0.075778
     58 H24         5.0020   -3.8370   -2.0570 hc        1 0YB      0.075778
     59 H25         3.6310   -3.4130   -3.1630 hc        1 0YB      0.075778
     60 H26         3.4660   -3.1490   -1.3710 hc        1 0YB      0.075778
     61 H27         1.3740   -6.1740   -1.8610 hc        1 0YB      0.075778
     62 H28         1.3740   -4.3880   -1.5370 hc        1 0YB      0.075778
     63 H29         1.5480   -4.9950   -3.2300 hc        1 0YB      0.075778
     64 H30         4.8550   -5.8820   -0.6140 hc        1 0YB      0.093500
     65 H31         3.3690   -6.9200   -0.6760 hc        1 0YB      0.093500
     66 H32         2.1470   -4.7550    0.3490 h1        1 0YB      0.130000
     67 H33         2.8040   -2.8600   10.7910 hn        1 0YB      0.255000
     68 C18         3.3320   -5.2300   -2.0110 c3        1 0YB     -0.046000
     69 O9          2.9500   -0.3930   10.4750 o         1 0YB     -0.330000
     70 C36         4.9360   -0.8330    4.0180 c2        1 0YB      0.355000
     71 O6          3.1370   -4.7870    9.2430 o         1 0YB     -0.363000
@<TRIPOS>BOND
     1    1    4 1   
     2    1    5 1   
     3    1   35 1   
     4    1   39 1   
     5    2    3 1   
     6    2    8 1   
     7    2   36 1   
     8    2   37 1   
     9    3    9 1   
    10    3   20 1   
    11    4   10 1   
    12    4   38 1   
    13    5   12 1   
    14    6    9 1   
    15    6   11 1   
    16    7   10 1   
    17    7   12 1   
    18    7   41 1   
    19    8   11 1   
    20    8   70 1   
    21    9   27 1   
    22    9   40 1   
    23   10   33 1   
    24   11   33 1   
    25   12   34 1   
    26   13   14 1   
    27   13   29 1   
    28   13   42 1   
    29   14   15 1   
    30   14   22 1   
    31   15   28 1   
    32   15   69 1   
    33   16   28 1   
    34   16   29 1   
    35   16   71 1   
    36   17   18 1   
    37   17   47 1   
    38   17   48 1   
    39   18   45 1   
    40   18   46 1   
    41   19   30 1   
    42   19   43 1   
    43   20   30 1   
    44   20   49 1   
    45   21   29 1   
    46   21   50 1   
    47   22   52 1   
    48   22   53 1   
    49   22   54 1   
    50   23   55 1   
    51   23   56 1   
    52   23   57 1   
    53   23   68 1   
    54   24   58 1   
    55   24   59 1   
    56   24   60 1   
    57   24   68 1   
    58   25   61 1   
    59   25   62 1   
    60   25   63 1   
    61   25   68 1   
    62   26   27 1   
    63   26   64 1   
    64   26   65 1   
    65   26   68 1   
    66   27   30 1   
    67   27   66 1   
    68   28   67 1   
    69   31   70 1   
    70   32   70 1   
    71   44   51 1   
@<TRIPOS>SUBSTRUCTURE
     1 0YB         1 TEMP              0 ****  ****    0 ROOT
