@<TRIPOS>MOLECULE
0YB
   71    72     1     0     0
SMALL
bcc


@<TRIPOS>ATOM
      1 C31         0.1050    0.4130   -0.2040 c3        1 0YB     -0.188000
      2 C24         4.6600   -3.2130    3.6320 c3        1 0YB     -0.221000
      3 C23         4.7080   -4.3910    2.7870 c1        1 0YB     -0.039000
      4 C30         1.4950   -0.0790   -0.1060 c2        1 0YB     -0.174000
      5 C32        -0.6420    0.5930    1.0380 c1        1 0YB     -0.099000
      6 C27         3.4680   -3.0660    1.0550 c2        1 0YB     -0.145000
      7 C34         1.3130   -0.0880    2.3390 c2        1 0YB      0.029000
      8 C25         4.2380   -1.9060    3.0450 c2        1 0YB     -0.109000
      9 C22         4.3810   -4.2340    1.3730 c3        1 0YB     -0.142000
     10 C29         2.0520   -0.3020    1.1130 c2        1 0YB      0.020000
     11 C26         3.6770   -1.8550    1.8160 c2        1 0YB      0.006000
     12 C33         0.0080    0.3260    2.2630 c2        1 0YB     -0.277000
     13 C3          3.6770   -1.6030    7.0440 cx        1 0YB     -0.040000
     14 C2          3.6910   -0.3880    7.9570 cx        1 0YB     -0.215000
     15 C8          3.5390   -0.6070    9.4170 c2        1 0YB      0.346000
     16 C5          3.3990   -3.0570    9.0320 c2        1 0YB      0.329000
     17 C12         2.7760   -8.5140    9.1840 c2        1 0YB     -0.225500
     18 C11         3.0090   -7.4370    8.4470 c2        1 0YB     -0.225500
     19 C13         2.3660   -5.2800   -1.4420 c3        1 0YB      0.024000
     20 C15         2.5000   -3.4560    0.1890 c2        1 0YB     -0.084000
     21 C10         3.2980   -3.9390    6.7650 c1        1 0YB     -0.093000
     22 C1          4.9640   -0.8540    7.2900 cx        1 0YB     -0.179000
     23 C19         3.8000   -5.3810   -5.0090 c3        1 0YB     -0.129000
     24 C20         4.8380   -4.5040   -2.5710 cx        1 0YB     -0.126000
     25 C21         3.4540   -5.0200   -2.3800 cu        1 0YB     -0.170000
     26 C17         3.2420   -6.4900    1.6770 c3        1 0YB     -0.196000
     27 C16         3.6720   -5.4350    0.6720 c3        1 0YB      0.006000
     28 N7          3.4590   -1.9360    9.8660 n         1 0YB     -0.375000
     29 N4          3.4440   -2.9230    7.5820 n         1 0YB     -0.132000
     30 N14         2.5130   -4.8590   -0.0690 n3        1 0YB     -0.217000
     31 O37         3.5390   -0.0890    4.4390 o         1 0YB     -0.565500
     32 O38         5.7220   -0.4740    4.2400 o         1 0YB     -0.565500
     33 O28         3.4030   -0.6390    1.1760 os        1 0YB     -0.154000
     34 BR3        -0.9980    0.5820    3.8280 br        1 0YB      0.037000
     35 H1         -0.4980   -0.2870   -0.8540 hc        1 0YB      0.148500
     36 H2          3.9840   -3.4620    4.5190 hc        1 0YB      0.183500
     37 H3          5.6900   -3.0780    4.0890 hc        1 0YB      0.183500
     38 H4          1.7060   -2.8480   -0.2570 h4        1 0YB      0.156000
     39 H5          0.0960    1.4160   -0.7280 hc        1 0YB      0.148500
     40 H6          5.3880   -4.0610    0.8810 hc        1 0YB      0.140000
     41 H7          1.8670   -0.2550    3.2940 ha        1 0YB      0.233000
     42 H8          3.2130   -1.4920    6.0250 h1        1 0YB      0.230000
     43 H9          1.4270   -4.7930   -1.8450 h1        1 0YB      0.102500
     44 H10         2.1870   -6.3990   -1.4190 h1        1 0YB      0.102500
     45 H11         3.1290   -6.4330    8.8850 ha        1 0YB      0.112500
     46 H12         3.0980   -7.4740    7.3520 ha        1 0YB      0.112500
     47 H13         2.6880   -8.4700   10.2780 ha        1 0YB      0.112500
     48 H14         2.6560   -9.5170    8.7550 ha        1 0YB      0.112500
     49 H15         3.1400   -4.9400    7.2230 ha        1 0YB      0.072000
     50 H16         2.9880   -5.6610   11.4630 ha        1 0YB      0.000250
     51 H17         2.9330   -6.1980   11.0540 ha        1 0YB      0.000250
     52 H18         5.7660   -1.2900    7.9080 hc        1 0YB      0.159000
     53 H19         3.2110    0.5480    7.6070 hc        1 0YB      0.185000
     54 H20         5.3510   -0.2670    6.4200 hc        1 0YB      0.159000
     55 H21         2.8100   -5.8610   -5.2170 hc        1 0YB      0.084333
     56 H22         2.5050   -6.0750    2.4050 hc        1 0YB      0.082333
     57 H23         4.6120   -6.0850   -5.3300 hc        1 0YB      0.084333
     58 H24         5.7020   -5.0920   -2.2070 hc        1 0YB      0.092000
     59 H25         5.0390   -3.4170   -2.5270 hc        1 0YB      0.092000
     60 H26         2.0640   -0.2370   -1.0330 ha        1 0YB      0.137000
     61 H27         3.8830   -4.4510   -5.6300 hc        1 0YB      0.084333
     62 H28         1.1360   -6.3750   -3.5990 ha        1 0YB      0.000250
     63 H29         0.7320   -6.6600   -4.0620 ha        1 0YB      0.000250
     64 H30         4.1440   -6.8270    2.2450 hc        1 0YB      0.082333
     65 H31         2.7810   -7.3630    1.1570 hc        1 0YB      0.082333
     66 H32         4.3940   -5.9040   -0.0570 h1        1 0YB      0.078000
     67 H33         3.3780   -2.1070   10.8460 hn        1 0YB      0.250000
     68 C18         3.9330   -5.0640   -3.6120 cu        1 0YB     -0.171000
     69 O9          3.4730    0.2970   10.2650 o         1 0YB     -0.334000
     70 C36         4.5210   -0.7230    3.9450 c2        1 0YB      0.363000
     71 O6          3.2930   -4.1890    9.5540 o         1 0YB     -0.369000
@<TRIPOS>BOND
     1    1    4 1   
     2    1    5 1   
     3    1   35 1   
     4    1   39 1   
     5    2    3 1   
     6    2    8 1   
     7    2   36 1   
     8    2   37 1   
     9    3    9 1   
    10    4   10 1   
    11    4   60 1   
    12    5   12 1   
    13    6    9 1   
    14    6   11 1   
    15    6   20 1   
    16    7   10 1   
    17    7   12 1   
    18    7   41 1   
    19    8   11 1   
    20    8   70 1   
    21    9   27 1   
    22    9   40 1   
    23   10   33 1   
    24   11   33 1   
    25   12   34 1   
    26   13   14 1   
    27   13   22 1   
    28   13   29 1   
    29   13   42 1   
    30   14   15 1   
    31   14   22 1   
    32   14   53 1   
    33   15   28 1   
    34   15   69 1   
    35   16   28 1   
    36   16   29 1   
    37   16   71 1   
    38   17   18 1   
    39   17   47 1   
    40   17   48 1   
    41   18   45 1   
    42   18   46 1   
    43   19   25 1   
    44   19   30 1   
    45   19   43 1   
    46   19   44 1   
    47   20   30 1   
    48   20   38 1   
    49   21   29 1   
    50   21   49 1   
    51   22   52 1   
    52   22   54 1   
    53   23   55 1   
    54   23   57 1   
    55   23   61 1   
    56   23   68 1   
    57   24   25 1   
    58   24   58 1   
    59   24   59 1   
    60   24   68 1   
    61   25   68 1   
    62   26   27 1   
    63   26   56 1   
    64   26   64 1   
    65   26   65 1   
    66   27   30 1   
    67   27   66 1   
    68   28   67 1   
    69   31   70 1   
    70   32   70 1   
    71   50   51 1   
    72   62   63 1   
@<TRIPOS>SUBSTRUCTURE
     1 0YB         1 TEMP              0 ****  ****    0 ROOT
