@<TRIPOS>MOLECULE
0YB
   71    62     1     0     0
SMALL
bcc


@<TRIPOS>ATOM
      1 C31        -3.1840    4.4620   -4.1080 c1        1 0YB     -0.129750
      2 C24         2.0860    3.3750   -0.6630 c1        1 0YB     -0.129750
      3 C23         2.1290    1.9800   -0.5590 c1        1 0YB     -0.129750
      4 C30        -2.0820    4.3960   -3.2840 c1        1 0YB     -0.130500
      5 C32        -4.4590    4.2610   -3.5810 c1        1 0YB     -0.129750
      6 C27        -0.2840    1.8740   -0.8890 c1        1 0YB     -0.130500
      7 C34        -3.5060    3.9290   -1.3970 c1        1 0YB     -0.132000
      8 C25         0.8490    4.0320   -0.8810 c1        1 0YB     -0.068000
      9 C22         0.9380    1.2240   -0.6730 c1        1 0YB     -0.015500
     10 C29        -2.2440    4.1280   -1.9180 c1        1 0YB     -0.015500
     11 C26        -0.3280    3.2860   -0.9940 c1        1 0YB      0.039000
     12 C33        -4.6170    3.9950   -2.2280 c1        1 0YB     -0.163000
     13 C3         -0.0890   -1.9320    4.8930 c1        1 0YB      0.050000
     14 C2         -1.1740   -2.5060    5.7200 c1        1 0YB     -0.251000
     15 C8         -2.0300   -3.5630    5.1700 c1        1 0YB      0.357000
     16 C5         -0.7670   -3.4220    2.9870 c1        1 0YB      0.396000
     17 C36         0.8070    5.5500   -1.0230 c2        1 0YB      0.371000
     18 C12         3.1650   -2.5150    1.4640 c3        1 0YB     -0.156000
     19 C11         2.1220   -2.9210    2.4160 c3        1 0YB     -0.175000
     20 C13         2.5900   -1.8820    0.2120 c3        1 0YB     -0.076000
     21 C15         0.6170   -1.1960    1.4530 c3        1 0YB     -0.082000
     22 C10         1.1880   -1.8320    2.7140 c3        1 0YB      0.037000
     23 C1         -1.4500   -1.9470    7.1410 c3        1 0YB     -0.148000
     24 C19         1.6340   -2.1660   -3.9210 c3        1 0YB     -0.206000
     25 C20         0.4270   -0.0120   -3.9000 c3        1 0YB     -0.206000
     26 C21        -0.3230   -1.9610   -2.4480 c3        1 0YB     -0.206000
     27 C17         1.8640   -0.7420   -1.8870 c3        1 0YB     -0.181000
     28 C16         1.0390   -0.3250   -0.7110 c2        1 0YB      0.041000
     29 C18         0.9060   -1.2400   -3.0550 c3        1 0YB     -0.051000
     30 N7         -1.7770   -4.0760    3.8560 n1        1 0YB     -0.368000
     31 N4          0.0790   -2.3660    3.5240 n2        1 0YB     -0.256000
     32 N14         1.6540   -0.7990    0.5130 n3        1 0YB     -0.254000
     33 O9         -3.0390   -3.9210    5.7890 o         1 0YB     -0.352000
     34 O6         -0.6040   -3.8120    1.8410 o         1 0YB     -0.366000
     35 O37         0.5590    6.2920    0.0150 o         1 0YB     -0.550000
     36 O38         1.1270    6.0900   -2.1210 o         1 0YB     -0.550000
     37 O28        -1.1850    4.3920   -1.0390 o         1 0YB     -0.162000
     38 BR3        -6.4160    3.8380   -1.6980 br        1 0YB      0.005000
     39 H1         -3.0640    4.6630   -5.1350 ha        1 0YB      0.129000
     40 H2          2.9380    3.9100   -0.6180 ha        1 0YB      0.129000
     41 H3          3.0350    1.5010   -0.4000 ha        1 0YB      0.129000
     42 H4         -1.2010    4.4110   -3.6660 ha        1 0YB      0.177500
     43 H5         -5.2270    4.3050   -4.1530 ha        1 0YB      0.129000
     44 H6         -1.1080    1.3510   -0.9680 ha        1 0YB      0.177500
     45 H7         -3.6280    3.8330   -0.4100 ha        1 0YB      0.149000
     46 H8          0.4430   -1.2550    5.2310 ha        1 0YB      0.169000
     47 H9          3.7550   -1.8770    1.8970 hc        1 0YB      0.089000
     48 H10         3.6630   -3.2720    1.2200 hc        1 0YB      0.089000
     49 H11         1.6310   -3.6610    2.0430 hc        1 0YB      0.096500
     50 H12         2.5500   -3.2090    3.2510 hc        1 0YB      0.096500
     51 H13         3.3050   -1.5360   -0.3140 h1        1 0YB      0.086000
     52 H14         2.0990   -2.6040   -0.3280 h1        1 0YB      0.086000
     53 H15         0.1250   -0.4480    1.6900 h1        1 0YB      0.087500
     54 H16         0.0230   -1.8420    1.0140 h1        1 0YB      0.087500
     55 H17         1.6500   -1.1530    3.2260 h1        1 0YB      0.115000
     56 H18        -0.9320   -1.1150    7.2770 hc        1 0YB      0.087000
     57 H19        -2.3940   -1.7580    7.2340 hc        1 0YB      0.087000
     58 H20        -1.1910   -2.5910    7.7900 hc        1 0YB      0.087000
     59 H21         2.2980   -1.6840   -4.4170 hc        1 0YB      0.073333
     60 H22         1.0250   -2.5800   -4.5230 hc        1 0YB      0.073333
     61 H23         2.0610   -2.8360   -3.3860 hc        1 0YB      0.073333
     62 H24         0.0420   -0.3210   -4.7250 hc        1 0YB      0.073333
     63 H25        -0.2370    0.4850   -3.3990 hc        1 0YB      0.073333
     64 H26         1.1660    0.5500   -4.0880 hc        1 0YB      0.073333
     65 H27        -0.0180   -2.6060   -1.7410 hc        1 0YB      0.073333
     66 H28        -0.8040   -2.4620   -3.1710 hc        1 0YB      0.073333
     67 H29        -0.9330   -1.2960   -2.0480 hc        1 0YB      0.073333
     68 H30         2.4090    0.0500   -2.2140 hc        1 0YB      0.087000
     69 H31         2.4690   -1.4710   -1.6230 hc        1 0YB      0.087000
     70 H32         0.1390   -0.7090   -0.7890 h4        1 0YB      0.096000
     71 H33        -2.3100   -4.7390    3.5170 hn        1 0YB      0.261000
@<TRIPOS>BOND
     1    1    5 1   
     2    1   39 1   
     3    2    3 1   
     4    2   40 1   
     5    3   41 1   
     6    4   10 1   
     7    4   42 1   
     8    5   43 1   
     9    6    9 1   
    10    6   44 1   
    11    7   12 1   
    12    7   45 1   
    13    8   11 1   
    14    8   17 1   
    15   11   37 1   
    16   12   38 1   
    17   13   14 1   
    18   13   46 1   
    19   14   23 1   
    20   15   33 1   
    21   16   31 1   
    22   16   34 1   
    23   17   35 1   
    24   17   36 1   
    25   18   19 1   
    26   18   20 1   
    27   18   47 1   
    28   18   48 1   
    29   19   22 1   
    30   19   49 1   
    31   19   50 1   
    32   20   32 1   
    33   20   51 1   
    34   20   52 1   
    35   21   22 1   
    36   21   32 1   
    37   21   53 1   
    38   21   54 1   
    39   22   31 1   
    40   22   55 1   
    41   23   56 1   
    42   23   57 1   
    43   23   58 1   
    44   24   29 1   
    45   24   59 1   
    46   24   60 1   
    47   24   61 1   
    48   25   29 1   
    49   25   62 1   
    50   25   63 1   
    51   25   64 1   
    52   26   29 1   
    53   26   65 1   
    54   26   66 1   
    55   26   67 1   
    56   27   28 1   
    57   27   29 1   
    58   27   68 1   
    59   27   69 1   
    60   28   32 1   
    61   28   70 1   
    62   30   71 1   
@<TRIPOS>SUBSTRUCTURE
     1 0YB         1 TEMP              0 ****  ****    0 ROOT
