@<TRIPOS>MOLECULE
0YC
   17    17     1     0     0
SMALL
bcc


@<TRIPOS>ATOM
      1 N16        -0.0090    0.0670   -0.0670 nz        1 0YC     -0.846600
      2 C17         1.4900   -0.0220    0.0210 c3        1 0YC      0.184100
      3 C18         1.9430   -0.0360    1.4320 ca        1 0YC     -0.330600
      4 C22         2.1380    1.1760    2.1310 ca        1 0YC      0.435200
      5 N23         2.5850    1.2330    3.3970 nb        1 0YC     -0.637000
      6 C24         2.8680    0.0690    4.0140 ca        1 0YC      0.456200
      7 C25         2.7160   -1.1920    3.3970 ca        1 0YC     -0.232300
      8 C26         2.2460   -1.2400    2.0870 ca        1 0YC     -0.053000
      9 H13        -0.3350    0.9150    0.4090 hn        1 0YC      0.459133
     10 H14         1.9110    0.8700   -0.5290 hx        1 0YC      0.115700
     11 H15         1.8030   -0.9650   -0.5170 hx        1 0YC      0.115700
     12 H22         1.9420    2.1540    1.6510 h4        1 0YC      0.030100
     13 H23         3.2410    0.1540    5.0540 h4        1 0YC      0.058100
     14 H24         2.9730   -2.1110    3.9440 ha        1 0YC      0.177000
     15 H25         2.1320   -2.2070    1.5730 ha        1 0YC      0.150000
     16 H2         -0.3050    0.0950   -1.0470 hn        1 0YC      0.459133
     17 H163       -0.4360   -0.7440    0.3920 hn        1 0YC      0.459133
@<TRIPOS>BOND
     1    1    2 1   
     2    1    9 1   
     3    1   16 1   
     4    1   17 1   
     5    2    3 1   
     6    2   10 1   
     7    2   11 1   
     8    3    4 ar  
     9    3    8 ar  
    10    4    5 ar  
    11    4   12 1   
    12    5    6 ar  
    13    6    7 ar  
    14    6   13 1   
    15    7    8 ar  
    16    7   14 1   
    17    8   15 1   
@<TRIPOS>SUBSTRUCTURE
     1 0YC         1 TEMP              0 ****  ****    0 ROOT
