@<TRIPOS>MOLECULE
0YC
   16    16     1     0     0
SMALL
bcc


@<TRIPOS>ATOM
      1 N16        -2.7610   -0.4880   -0.4900 n3        1 0YC     -0.917800
      2 C17        -1.9580    0.1810    0.5080 c3        1 0YC      0.210100
      3 C18        -0.4880    0.1440    0.2240 ca        1 0YC     -0.209600
      4 C22         0.1460   -1.0520   -0.1790 ca        1 0YC      0.415200
      5 N23         1.4670   -1.1480   -0.4160 nb        1 0YC     -0.667000
      6 C24         2.2100   -0.0360   -0.2530 ca        1 0YC      0.393200
      7 C25         1.6740    1.2020    0.1470 ca        1 0YC     -0.249300
      8 C26         0.3020    1.2870    0.3860 ca        1 0YC     -0.092000
      9 H13        -3.7320   -0.3150   -0.3240 hn        1 0YC      0.354800
     10 H14        -2.2660    1.2600    0.6560 h1        1 0YC      0.034700
     11 H15        -2.1390   -0.3490    1.4900 h1        1 0YC      0.034700
     12 H22        -0.4410   -1.9790   -0.3190 h4        1 0YC      0.039100
     13 H23         3.2910   -0.1470   -0.4530 h4        1 0YC      0.021100
     14 H24         2.3240    2.0770    0.2660 ha        1 0YC      0.142000
     15 H25        -0.1500    2.2400    0.6980 ha        1 0YC      0.136000
     16 H2         -2.5210   -0.1860   -1.4130 hn        1 0YC      0.354800
@<TRIPOS>BOND
     1    1    2 1   
     2    1    9 1   
     3    1   16 1   
     4    2    3 1   
     5    2   10 1   
     6    2   11 1   
     7    3    4 ar  
     8    3    8 ar  
     9    4    5 ar  
    10    4   12 1   
    11    5    6 ar  
    12    6    7 ar  
    13    6   13 1   
    14    7    8 ar  
    15    7   14 1   
    16    8   15 1   
@<TRIPOS>SUBSTRUCTURE
     1 0YC         1 TEMP              0 ****  ****    0 ROOT
