@<TRIPOS>MOLECULE
0YC
   16    14     1     0     0
SMALL
bcc


@<TRIPOS>ATOM
      1 N16        -1.8160   -0.1250   -1.6470 n3        1 0YC     -0.350000
      2 C17        -0.3900   -0.1250   -1.6470 c3        1 0YC     -0.034000
      3 C18         0.1150   -0.1250   -0.2200 c2        1 0YC     -0.137000
      4 C22         0.0520   -1.2840    0.5370 c2        1 0YC     -0.050000
      5 N23         0.5060   -1.2840    1.8220 n1        1 0YC     -0.141000
      6 C24         1.0220   -0.1460    2.3630 c1        1 0YC     -0.128000
      7 C25         1.0860    1.0150    1.6080 c1        1 0YC     -0.128000
      8 C26         0.6310    1.0160    0.3210 c1        1 0YC     -0.092000
      9 H13        -2.1200   -0.7880   -2.1950 hn        1 0YC      0.150000
     10 H14        -0.0640    0.6720   -2.1070 h1        1 0YC      0.074000
     11 H15        -0.0640   -0.9220   -2.1070 h1        1 0YC      0.074000
     12 H22        -0.3180   -2.1010    0.1500 h4        1 0YC      0.176000
     13 H23         1.3470   -0.1470    3.2840 ha        1 0YC      0.150000
     14 H24         1.4560    1.8300    1.9960 ha        1 0YC      0.150000
     15 H25         0.6760    1.8330   -0.2120 ha        1 0YC      0.136000
     16 H2         -2.1200    0.6810   -1.9470 hn        1 0YC      0.150000
@<TRIPOS>BOND
     1    1    2 1   
     2    1    9 1   
     3    1   16 1   
     4    2    3 1   
     5    2   10 1   
     6    2   11 1   
     7    3    4 1   
     8    3    8 1   
     9    4    5 1   
    10    4   12 1   
    11    6    7 1   
    12    6   13 1   
    13    7   14 1   
    14    8   15 1   
@<TRIPOS>SUBSTRUCTURE
     1 0YC         1 TEMP              0 ****  ****    0 ROOT
