@<TRIPOS>MOLECULE
0YC
   17    17     1     0     0
SMALL
bcc


@<TRIPOS>ATOM
      1 N16        -0.0170    0.0590   -0.0600 n4        1 0YC     -0.846600
      2 C17         1.4830   -0.0230    0.0220 c3        1 0YC      0.184100
      3 C18         1.9420   -0.0350    1.4310 ca        1 0YC     -0.330600
      4 C22         2.1320    1.1780    2.1300 ca        1 0YC      0.435200
      5 N23         2.5830    1.2370    3.3940 nb        1 0YC     -0.637000
      6 C24         2.8770    0.0740    4.0090 ca        1 0YC      0.456200
      7 C25         2.7310   -1.1860    3.3930 ca        1 0YC     -0.232300
      8 C26         2.2560   -1.2370    2.0840 ca        1 0YC     -0.053000
      9 H13        -0.3450    0.9040    0.4170 hn        1 0YC      0.459133
     10 H14         1.8970    0.8720   -0.5290 hx        1 0YC      0.115700
     11 H15         1.7990   -0.9640   -0.5170 hx        1 0YC      0.115700
     12 H22         1.9270    2.1550    1.6520 h4        1 0YC      0.030100
     13 H23         3.2530    0.1620    5.0480 h4        1 0YC      0.058100
     14 H24         2.9950   -2.1050    3.9380 ha        1 0YC      0.177000
     15 H25         2.1450   -2.2040    1.5690 ha        1 0YC      0.150000
     16 H2         -0.3170    0.0850   -1.0390 hn        1 0YC      0.459133
     17 H163       -0.4380   -0.7550    0.4000 hn        1 0YC      0.459133
@<TRIPOS>BOND
     1    1    2 1   
     2    1    9 1   
     3    1   16 1   
     4    1   17 1   
     5    2    3 1   
     6    2   10 1   
     7    2   11 1   
     8    3    4 ar  
     9    3    8 ar  
    10    4    5 ar  
    11    4   12 1   
    12    5    6 ar  
    13    6    7 ar  
    14    6   13 1   
    15    7    8 ar  
    16    7   14 1   
    17    8   15 1   
@<TRIPOS>SUBSTRUCTURE
     1 0YC         1 TEMP              0 ****  ****    0 ROOT
