@<TRIPOS>MOLECULE
0YD
   36    36     1     0     0
SMALL
bcc


@<TRIPOS>ATOM
      1 C1          0.4300   -1.6000   -0.9930 c3        1 0YD      0.030100
      2 Cl1         0.8710   -3.1200    9.4120 cl        1 0YD     -0.111400
      3 C2          0.2060   -1.8500    0.4360 c2        1 0YD     -0.510200
      4 O2         -0.5010    1.0360    0.4020 o         1 0YD     -0.483500
      5 C3          1.2070   -1.7460    1.3580 cc        1 0YD      0.194100
      6 C4          2.5560   -1.2910    1.3620 cc        1 0YD     -0.441000
      7 C5          2.9950   -1.4400    2.7200 cd        1 0YD      0.006000
      8 C6          4.3220   -1.0770    3.1520 cf        1 0YD      0.017000
      9 C7          7.4540   -1.1660    7.0190 c1        1 0YD     -0.199500
     10 C8          6.3620   -1.6250    6.8420 cg        1 0YD     -0.110300
     11 C9          5.0740   -2.1660    6.6370 ce        1 0YD     -0.012700
     12 C10         4.4100   -2.0180    5.4540 ce        1 0YD      0.004000
     13 C11         4.9450   -1.3110    4.3250 ce        1 0YD     -0.215000
     14 C12        -1.2160    0.2200    0.8990 c1        1 0YD      0.923000
     15 N12         1.9850   -1.9440    3.4840 n2        1 0YD     -0.301700
     16 O12         0.9260   -2.1370    2.7120 os        1 0YD     -0.120400
     17 C18         4.5050   -2.9000    7.7450 ce        1 0YD     -0.015100
     18 C19         3.0480   -3.1300    7.8760 ce        1 0YD     -0.114000
     19 C20         2.5500   -3.1180    9.1380 c2        1 0YD     -0.021800
     20 C21         3.3980   -3.0730   10.3920 c3        1 0YD     -0.012000
     21 C22         4.7520   -3.6460   10.0700 c2        1 0YD     -0.214300
     22 C23         5.1340   -3.3560    8.8390 c1        1 0YD     -0.049800
     23 H1         -0.3050   -0.8510   -1.3870 hc        1 0YD     -0.006633
     24 H2          1.4580   -1.2040   -1.1860 hc        1 0YD     -0.006633
     25 H4          0.3030   -2.5390   -1.5930 hc        1 0YD     -0.006633
     26 H5         -0.7440   -2.3170    0.7210 ha        1 0YD      0.118000
     27 H7          3.1190   -0.9100    0.5250 ha        1 0YD      0.137000
     28 H8          4.8850   -0.5250    2.3720 ha        1 0YD      0.116000
     29 H9          8.4190   -0.7610    7.1750 ha        1 0YD      0.153500
     30 H12         5.9770   -0.9320    4.4490 ha        1 0YD      0.117000
     31 H13         3.4080   -2.4710    5.3390 ha        1 0YD      0.168000
     32 H19         2.4180   -3.1890    6.9780 ha        1 0YD      0.174000
     33 H20         3.4370   -2.0160   10.7640 hc        1 0YD      0.068200
     34 H21         2.9350   -3.7060   11.1930 hc        1 0YD      0.068200
     35 H22         5.2410   -4.3200   10.7740 ha        1 0YD      0.141000
     36 OXT        -2.0950   -0.4030    1.4140 o         1 0YD     -0.483500
@<TRIPOS>BOND
     1    1    3 1   
     2    1   23 1   
     3    1   24 1   
     4    1   25 1   
     5    2   19 1   
     6    3    5 2   
     7    3   26 1   
     8    4   14 2   
     9    5    6 1   
    10    5   16 1   
    11    6    7 2   
    12    6   27 1   
    13    7    8 1   
    14    7   15 1   
    15    8   13 2   
    16    8   28 1   
    17    9   10 3   
    18    9   29 1   
    19   10   11 1   
    20   11   12 2   
    21   11   17 1   
    22   12   13 1   
    23   12   31 1   
    24   13   30 1   
    25   14   36 2   
    26   15   16 1   
    27   17   18 1   
    28   17   22 2   
    29   18   19 2   
    30   18   32 1   
    31   19   20 1   
    32   20   21 1   
    33   20   33 1   
    34   20   34 1   
    35   21   22 2   
    36   21   35 1   
@<TRIPOS>SUBSTRUCTURE
     1 0YD         1 TEMP              0 ****  ****    0 ROOT
