@<TRIPOS>MOLECULE
0YD
   36    37     1     0     0
SMALL
bcc


@<TRIPOS>ATOM
      1 C1         -0.3350   -0.3440    0.2010 c3        1 0YD     -0.199400
      2 CL1         1.4380   -5.3650    8.1460 cl        1 0YD     -0.097400
      3 C2          0.5410   -1.5610    0.3920 c3        1 0YD     -0.130700
      4 O2         -0.3830   -0.9220   -2.1440 o         1 0YD     -0.840800
      5 C3          1.5340   -1.3830    1.4580 cc        1 0YD      0.325000
      6 C4          2.3360   -0.3510    1.9090 cd        1 0YD     -0.389600
      7 C5          3.1000   -0.9270    3.0150 cd        1 0YD      0.341100
      8 C6          4.0850   -0.1850    3.7640 cf        1 0YD     -0.163800
      9 C7          7.2260   -0.6760    7.5540 c1        1 0YD     -0.159500
     10 C8          6.2320   -1.2670    7.2410 cg        1 0YD     -0.139300
     11 C9          5.0630   -1.9680    6.8740 ce        1 0YD      0.055300
     12 C10         4.3090   -1.6000    5.8020 ce        1 0YD     -0.058000
     13 C11         4.6240   -0.4730    4.9620 ce        1 0YD     -0.141000
     14 C12        -0.9960   -0.3550   -1.1950 c         1 0YD      0.911600
     15 N12         2.7370   -2.2250    3.1620 nc        1 0YD     -0.388300
     16 O12         1.8210   -2.5170    2.2670 os        1 0YD     -0.130100
     17 C18         4.7110   -3.1050    7.7010 ce        1 0YD     -0.040100
     18 C19         3.5910   -4.0110    7.3600 ce        1 0YD     -0.123000
     19 C20         2.8840   -4.5140    8.4030 c2        1 0YD     -0.015800
     20 C21         3.2810   -4.3540    9.8570 c3        1 0YD     -0.015000
     21 C22         4.7700   -4.1460    9.9230 c2        1 0YD     -0.201300
     22 C23         5.2100   -3.4380    8.8980 c1        1 0YD     -0.023800
     23 H1         -1.1300   -0.3030    0.9850 hc        1 0YD      0.030200
     24 H2          0.2740    0.5920    0.2750 hc        1 0YD      0.030200
     25 H4         -0.0920   -2.4620    0.6090 hc        1 0YD      0.087700
     26 H5          1.0810   -1.7620   -0.5820 hc        1 0YD      0.087700
     27 H7          2.3980    0.6680    1.5440 ha        1 0YD      0.176000
     28 H8          4.4090    0.7380    3.2450 ha        1 0YD      0.132000
     29 H9          8.1050   -0.1550    7.8310 ha        1 0YD      0.160500
     30 H12         5.3890    0.2180    5.3670 ha        1 0YD      0.129000
     31 H13         3.3960   -2.1730    5.5610 ha        1 0YD      0.158000
     32 H19         3.3200   -4.1680    6.3080 ha        1 0YD      0.171000
     33 H20         3.0380   -5.2880   10.4280 hc        1 0YD      0.076200
     34 H21         2.6900   -3.5110   10.3040 hc        1 0YD      0.076200
     35 H22         5.3640   -4.6570   10.6830 ha        1 0YD      0.149000
     36 OXT        -2.1110    0.2260   -1.3090 o         1 0YD     -0.840800
@<TRIPOS>BOND
     1    1    3 1   
     2    1   14 1   
     3    1   23 1   
     4    1   24 1   
     5    2   19 1   
     6    3    5 1   
     7    3   25 1   
     8    3   26 1   
     9    4   14 1   
    10    5    6 2   
    11    5   16 1   
    12    6    7 1   
    13    6   27 1   
    14    7    8 1   
    15    7   15 2   
    16    8   13 2   
    17    8   28 1   
    18    9   10 3   
    19    9   29 1   
    20   10   11 1   
    21   11   12 2   
    22   11   17 1   
    23   12   13 1   
    24   12   31 1   
    25   13   30 1   
    26   14   36 1   
    27   15   16 1   
    28   17   18 1   
    29   17   22 2   
    30   18   19 2   
    31   18   32 1   
    32   19   20 1   
    33   20   21 1   
    34   20   33 1   
    35   20   34 1   
    36   21   22 2   
    37   21   35 1   
@<TRIPOS>SUBSTRUCTURE
     1 0YD         1 TEMP              0 ****  ****    0 ROOT
