@<TRIPOS>MOLECULE
0YD
   36    36     1     0     0
SMALL
bcc


@<TRIPOS>ATOM
      1 C1          0.3440   -1.9100   -0.8390 c3        1 0YD      0.026100
      2 CL1         1.0000   -4.2960    8.9400 cl        1 0YD     -0.110400
      3 C2          0.1050   -1.6670    0.5900 c2        1 0YD     -0.510200
      4 O2          0.3700    1.0400   -0.3960 o         1 0YD     -0.501000
      5 C3          1.1370   -1.6040    1.4880 cc        1 0YD      0.195100
      6 C4          2.5540   -1.5380    1.4150 cc        1 0YD     -0.433000
      7 C5          2.9940   -1.4400    2.7800 cd        1 0YD      0.004000
      8 C6          4.3850   -1.3350    3.1450 cf        1 0YD      0.013000
      9 C7          7.4870   -1.2530    7.0230 c1        1 0YD     -0.196500
     10 C8          6.3240   -1.5160    6.9180 cg        1 0YD     -0.111300
     11 C9          4.9510   -1.8260    6.7940 ce        1 0YD     -0.008700
     12 C10         4.3170   -1.8060    5.5860 ce        1 0YD      0.000000
     13 C11         4.9710   -1.4810    4.3500 ce        1 0YD     -0.211000
     14 C12        -0.5210    0.6780    0.3160 c1        1 0YD      0.927000
     15 N12         1.9170   -1.4410    3.6140 n2        1 0YD     -0.293700
     16 O12         0.8160   -1.5420    2.8860 os        1 0YD     -0.115400
     17 C18         4.2590   -2.1600    8.0190 ce        1 0YD     -0.013100
     18 C19         2.8450   -2.5980    8.0380 ce        1 0YD     -0.118000
     19 C20         2.5200   -3.5330    8.9660 c2        1 0YD     -0.019800
     20 C21         3.4480   -3.9990   10.0690 c3        1 0YD     -0.013000
     21 C22         4.4390   -2.9030   10.3510 c2        1 0YD     -0.213300
     22 C23         4.7730   -2.2430    9.2560 c1        1 0YD     -0.049800
     23 H1         -0.4570   -1.4280   -1.4570 hc        1 0YD     -0.004300
     24 H2          1.3290   -1.4910   -1.1630 hc        1 0YD     -0.004300
     25 H4          0.3400   -3.0060   -1.0790 hc        1 0YD     -0.004300
     26 H5         -0.9190   -1.7900    0.9590 ha        1 0YD      0.119000
     27 H7          3.1630   -1.5480    0.5250 ha        1 0YD      0.139000
     28 H8          5.0350   -1.1040    2.2780 ha        1 0YD      0.118000
     29 H9          8.5140   -1.0190    7.1180 ha        1 0YD      0.153500
     30 H12         6.0680   -1.3460    4.4150 ha        1 0YD      0.117000
     31 H13         3.2420   -2.0600    5.5360 ha        1 0YD      0.167000
     32 H19         2.1480   -2.2390    7.2680 ha        1 0YD      0.175000
     33 H20         2.8650   -4.1910   11.0070 hc        1 0YD      0.068700
     34 H21         3.9260   -4.9640    9.7550 hc        1 0YD      0.068700
     35 H22         4.7030   -2.6560   11.3800 ha        1 0YD      0.141000
     36 OXT        -1.5240    0.6110    0.9650 o         1 0YD     -0.501000
@<TRIPOS>BOND
     1    1    3 1   
     2    1   23 1   
     3    1   24 1   
     4    1   25 1   
     5    2   19 1   
     6    3    5 2   
     7    3   26 1   
     8    4   14 2   
     9    5    6 1   
    10    5   16 1   
    11    6    7 2   
    12    6   27 1   
    13    7    8 1   
    14    7   15 1   
    15    8   13 2   
    16    8   28 1   
    17    9   10 3   
    18    9   29 1   
    19   10   11 1   
    20   11   12 2   
    21   11   17 1   
    22   12   13 1   
    23   12   31 1   
    24   13   30 1   
    25   14   36 2   
    26   15   16 1   
    27   17   18 1   
    28   17   22 2   
    29   18   19 2   
    30   18   32 1   
    31   19   20 1   
    32   20   21 1   
    33   20   33 1   
    34   20   34 1   
    35   21   22 2   
    36   21   35 1   
@<TRIPOS>SUBSTRUCTURE
     1 0YD         1 TEMP              0 ****  ****    0 ROOT
