@<TRIPOS>MOLECULE
0YD
   36    38     1     0     0
SMALL
bcc


@<TRIPOS>ATOM
      1 C1         -5.7670    0.9760   -0.4340 c3        1 0YD     -0.198400
      2 CL1         6.3970    2.3550   -1.1960 cl        1 0YD     -0.105400
      3 C2         -5.4760   -0.2580    0.3890 c3        1 0YD     -0.130700
      4 O2         -7.3660    1.5710    1.2760 o         1 0YD     -0.841300
      5 C3         -4.0750   -0.6860    0.2960 cc        1 0YD      0.324000
      6 C4         -2.8450   -0.0570    0.2180 cd        1 0YD     -0.388600
      7 C5         -1.8720   -1.1460    0.1850 cd        1 0YD      0.350800
      8 C6         -0.4300   -0.9870    0.1070 ca        1 0YD     -0.095500
      9 C7          0.3920   -2.0340   -0.3360 ca        1 0YD     -0.110000
     10 C8          1.7710   -1.8650   -0.4050 ca        1 0YD     -0.122500
     11 C9          2.3600   -0.6470   -0.0370 cp        1 0YD     -0.054000
     12 C10         1.5380    0.4000    0.4030 ca        1 0YD     -0.122500
     13 C11         0.1590    0.2320    0.4770 ca        1 0YD     -0.110000
     14 C12        -7.0560    1.6730    0.0540 c         1 0YD      0.911600
     15 N12        -2.5370   -2.3260    0.2420 nc        1 0YD     -0.386300
     16 O12        -3.8280   -2.0860    0.3080 os        1 0YD     -0.130100
     17 C18         3.8090   -0.4730   -0.1090 cp        1 0YD     -0.013000
     18 C19         4.3540    0.7340   -0.5700 ca        1 0YD     -0.116000
     19 C20         5.7410    0.8880   -0.6330 ca        1 0YD      0.017400
     20 C21         6.5970   -0.1450   -0.2430 ca        1 0YD     -0.131000
     21 C22         6.0510   -1.3430    0.2150 ca        1 0YD     -0.125000
     22 C23         4.6690   -1.5100    0.2820 ca        1 0YD     -0.122000
     23 H1         -4.9310    1.7150   -0.3400 hc        1 0YD      0.030200
     24 H2         -5.8770    0.7130   -1.5150 hc        1 0YD      0.030200
     25 H4         -5.7170   -0.0250    1.4690 hc        1 0YD      0.087200
     26 H5         -6.1520   -1.0980    0.0760 hc        1 0YD      0.087200
     27 H7         -2.6350    1.0050    0.1760 ha        1 0YD      0.175000
     28 H8         -0.0540   -2.9960   -0.6320 ha        1 0YD      0.148500
     29 H9          2.4040   -2.6920   -0.7610 ha        1 0YD      0.131500
     30 H12         1.9870    1.3590    0.7020 ha        1 0YD      0.131500
     31 H13        -0.4760    1.0580    0.8330 ha        1 0YD      0.148500
     32 H19         3.6870    1.5510   -0.8860 ha        1 0YD      0.154000
     33 H20         7.6880   -0.0160   -0.2950 ha        1 0YD      0.142000
     34 H21         6.7170   -2.1610    0.5270 ha        1 0YD      0.133000
     35 H22         4.2470   -2.4570    0.6510 ha        1 0YD      0.141000
     36 OXT        -7.7180    2.3250   -0.8000 o         1 0YD     -0.841300
@<TRIPOS>BOND
     1    1    3 1   
     2    1   14 1   
     3    1   23 1   
     4    1   24 1   
     5    2   19 1   
     6    3    5 1   
     7    3   25 1   
     8    3   26 1   
     9    4   14 1   
    10    5    6 2   
    11    5   16 1   
    12    6    7 1   
    13    6   27 1   
    14    7    8 1   
    15    7   15 2   
    16    8    9 ar  
    17    8   13 ar  
    18    9   10 ar  
    19    9   28 1   
    20   10   11 ar  
    21   10   29 1   
    22   11   12 ar  
    23   11   17 1   
    24   12   13 ar  
    25   12   30 1   
    26   13   31 1   
    27   14   36 1   
    28   15   16 1   
    29   17   18 ar  
    30   17   22 ar  
    31   18   19 ar  
    32   18   32 1   
    33   19   20 ar  
    34   20   21 ar  
    35   20   33 1   
    36   21   22 ar  
    37   21   34 1   
    38   22   35 1   
@<TRIPOS>SUBSTRUCTURE
     1 0YD         1 TEMP              0 ****  ****    0 ROOT
