@<TRIPOS>MOLECULE
0YD
   36    31     1     0     0
SMALL
bcc


@<TRIPOS>ATOM
      1 C1         -1.9840    3.7030   -4.7240 c3        1 0YD     -0.227000
      2 CL1         4.6310   -3.7850    4.2910 cl        1 0YD     -0.029000
      3 C2         -0.7320    3.1580   -4.0740 c3        1 0YD     -0.115000
      4 O2         -1.4600    5.8210   -5.7320 o         1 0YD     -0.576000
      5 C3         -1.1130    2.2460   -2.9290 c2        1 0YD      0.035000
      6 C4         -0.2420    1.6150   -2.0760 c1        1 0YD     -0.259000
      7 C5         -0.9870    0.9110   -1.1530 c1        1 0YD     -0.085000
      8 C6         -0.4360    0.0490   -0.0370 c1        1 0YD      0.012000
      9 C7         -0.1470    0.6130    1.1960 c2        1 0YD     -0.112000
     10 C8          0.3120   -0.1850    2.2320 c1        1 0YD     -0.121000
     11 C9          0.4830   -1.5470    2.0360 c1        1 0YD     -0.054000
     12 C10         0.1940   -2.1110    0.8030 c1        1 0YD     -0.124000
     13 C11        -0.2650   -1.3130   -0.2340 c1        1 0YD     -0.107000
     14 C12        -1.6040    4.5810   -5.8960 c2        1 0YD      0.331000
     15 N12        -2.2920    1.1060   -1.4330 n2        1 0YD     -0.050000
     16 O12        -2.3740    1.9400   -2.5420 os        1 0YD     -0.073000
     17 C18         1.0450   -2.4080    3.1490 c1        1 0YD     -0.013000
     18 C19         2.4060   -2.6640    3.2070 c2        1 0YD     -0.117000
     19 C20         2.9150   -3.4860    4.2010 c1        1 0YD     -0.061000
     20 C21         2.0630   -4.0530    5.1350 c1        1 0YD     -0.127500
     21 C22         0.7020   -3.7980    5.0770 c1        1 0YD     -0.127500
     22 C23         0.1930   -2.9750    4.0840 c1        1 0YD     -0.121000
     23 H1         -2.4870    4.2300   -4.0710 hc        1 0YD      0.069500
     24 H2         -2.5370    2.9600   -5.0390 hc        1 0YD      0.069500
     25 H4         -0.1920    3.9000   -3.7340 hc        1 0YD      0.126500
     26 H5         -0.2150    2.6550   -4.7340 hc        1 0YD      0.126500
     27 H7          0.7320    1.6380   -2.1290 DU        1 0YD      0.175000
     28 H8         -0.2670    1.5720    1.3340 ha        1 0YD      0.146000
     29 H9          0.5160    0.2120    3.1010 ha        1 0YD      0.132000
     30 H12         0.3140   -3.0690    0.6650 ha        1 0YD      0.131000
     31 H13        -0.4690   -1.7100   -1.1020 ha        1 0YD      0.151000
     32 H19         3.0080   -2.2570    2.5550 ha        1 0YD      0.152000
     33 H20         2.4220   -4.6330    5.8350 ha        1 0YD      0.138000
     34 H21         0.1020   -4.1970    5.7360 ha        1 0YD      0.138000
     35 H22        -0.7650   -2.7940    4.0440 ha        1 0YD      0.142000
     36 OXT        -1.4680    4.0770   -7.0410 o         1 0YD     -0.576000
@<TRIPOS>BOND
     1    1    3 1   
     2    1   14 1   
     3    1   23 1   
     4    1   24 1   
     5    2   19 1   
     6    3    5 1   
     7    3   25 1   
     8    3   26 1   
     9    4   14 1   
    10    5    6 1   
    11    5   16 1   
    12    6    7 1   
    13    7   15 1   
    14    8    9 1   
    15    8   13 1   
    16    9   10 1   
    17    9   28 1   
    18   10   29 1   
    19   11   12 1   
    20   12   30 1   
    21   13   31 1   
    22   14   36 1   
    23   15   16 1   
    24   17   18 1   
    25   17   22 1   
    26   18   19 1   
    27   18   32 1   
    28   20   21 1   
    29   20   33 1   
    30   21   34 1   
    31   22   35 1   
@<TRIPOS>SUBSTRUCTURE
     1 0YD         1 TEMP              0 ****  ****    0 ROOT
