@<TRIPOS>MOLECULE
0YE
   26    22     1     0     0
SMALL
bcc


@<TRIPOS>ATOM
      1 O2         -1.9390   -2.6660   -5.0870 o         1 0YE     -0.576500
      2 N3          1.5960    0.2130   -0.6300 n2        1 0YE     -0.053000
      3 O5          0.9630   -0.2450   -1.7790 os        1 0YE     -0.075000
      4 C11        -2.1960   -1.5230   -4.6240 c1        1 0YE      0.330000
      5 C12        -1.1730   -0.8060   -3.7700 c2        1 0YE     -0.227000
      6 C13        -1.2350   -1.3370   -2.3550 c3        1 0YE     -0.114000
      7 C14        -0.5080   -0.2330   -0.1360 c1        1 0YE     -0.259000
      8 C16         0.6920    0.2180    0.3710 c1        1 0YE     -0.081000
      9 C21         0.9440    0.6630    1.7950 c1        1 0YE      0.001000
     10 C22         1.5760   -0.1900    2.6860 c1        1 0YE     -0.105000
     11 C23         1.8240    0.2240    3.9850 c1        1 0YE     -0.138000
     12 C24         1.4390    1.4910    4.3940 c1        1 0YE     -0.138000
     13 C25         0.8070    2.3440    3.5030 c1        1 0YE     -0.139000
     14 C26         0.5590    1.9300    2.2040 c2        1 0YE     -0.110000
     15 C27        -0.3260   -0.5160   -1.4680 c2        1 0YE      0.033000
     16 H16        -1.3650    0.1530   -3.7680 ha        1 0YE      0.069500
     17 H17        -0.2780   -0.9580   -4.1360 ha        1 0YE      0.069500
     18 H18        -2.1540   -1.2770   -2.0250 hc        1 0YE      0.126000
     19 H19        -0.9450   -2.2710   -2.3440 hc        1 0YE      0.126000
     20 H20        -1.3450   -0.3180    0.3590 DU        1 0YE      0.174000
     21 H21         1.8470   -1.0830    2.3980 ha        1 0YE      0.147000
     22 H22         2.2690   -0.3770    4.6120 ha        1 0YE      0.123000
     23 H23         1.6140    1.7820    5.3090 ha        1 0YE      0.123000
     24 H24         0.5360    3.2370    3.7910 ha        1 0YE      0.126000
     25 H25         0.1060    2.5280    1.5790 ha        1 0YE      0.143000
     26 OXT        -3.3060   -0.9820   -4.8640 o         1 0YE     -0.576500
@<TRIPOS>BOND
     1    1    4 1   
     2    2    3 1   
     3    2    8 1   
     4    3   15 1   
     5    4   26 1   
     6    5    6 1   
     7    5   16 1   
     8    5   17 1   
     9    6   15 1   
    10    6   18 1   
    11    6   19 1   
    12    7    8 1   
    13    7   15 1   
    14    9   10 1   
    15    9   14 1   
    16   10   21 1   
    17   11   12 1   
    18   11   22 1   
    19   12   23 1   
    20   13   14 1   
    21   13   24 1   
    22   14   25 1   
@<TRIPOS>SUBSTRUCTURE
     1 0YE         1 TEMP              0 ****  ****    0 ROOT
