@<TRIPOS>MOLECULE
0YE
   26    27     1     0     0
SMALL
bcc


@<TRIPOS>ATOM
      1 O2          1.0040    2.0650    1.8680 o         1 0YE     -0.827800
      2 N3          3.2510   -1.0030    5.0050 nc        1 0YE     -0.372300
      3 O5          2.7450   -1.3030    3.8330 os        1 0YE     -0.146100
      4 C11         0.6710    0.8960    1.5310 c         1 0YE      0.928600
      5 C12         2.6910   -0.3730    0.7760 c3        1 0YE     -0.064100
      6 C13         1.6390   -0.2890    1.8620 c3        1 0YE     -0.255000
      7 C14         2.4910    0.9330    4.0360 cd        1 0YE     -0.351600
      8 C16         3.1340    0.3360    5.2060 cd        1 0YE      0.346100
      9 C21         3.5790    1.0530    6.3680 cf        1 0YE     -0.154100
     10 C22         3.2010    2.5040    6.5650 c3        1 0YE     -0.022000
     11 C23         2.8290    2.7350    8.0080 c2        1 0YE     -0.162200
     12 C24         3.2590    1.9580    9.0270 ce        1 0YE     -0.145000
     13 C25         4.2950    0.9590    8.7130 ce        1 0YE     -0.189100
     14 C26         4.2210    0.5860    7.4420 c1        1 0YE     -0.009800
     15 C27         2.2540   -0.1290    3.1860 cc        1 0YE      0.330000
     16 H16         2.1860   -0.5330   -0.2070 hc        1 0YE      0.027700
     17 H17         3.3940   -1.2190    0.9660 hc        1 0YE      0.027700
     18 H18         3.2730    0.5780    0.7270 hc        1 0YE      0.027700
     19 H19         1.0290   -1.2350    1.8600 hc        1 0YE      0.067700
     20 H20         2.2300    1.9730    3.8480 ha        1 0YE      0.207000
     21 H21         2.3120    2.7170    5.9100 hc        1 0YE      0.084200
     22 H22         4.0180    3.2160    6.2760 hc        1 0YE      0.084200
     23 H23         2.1770    3.6030    8.1810 ha        1 0YE      0.126000
     24 H24         2.9570    2.1060   10.0690 ha        1 0YE      0.126000
     25 H25         5.0690    0.7120    9.4400 ha        1 0YE      0.144000
     26 OXT        -0.3860    0.5910    0.9180 o         1 0YE     -0.827800
@<TRIPOS>BOND
     1    1    4 1   
     2    2    3 1   
     3    2    8 2   
     4    3   15 1   
     5    4    6 1   
     6    4   26 1   
     7    5    6 1   
     8    5   16 1   
     9    5   17 1   
    10    5   18 1   
    11    6   15 1   
    12    6   19 1   
    13    7    8 1   
    14    7   15 2   
    15    7   20 1   
    16    8    9 1   
    17    9   10 1   
    18    9   14 2   
    19   10   11 1   
    20   10   21 1   
    21   10   22 1   
    22   11   12 2   
    23   11   23 1   
    24   12   13 1   
    25   12   24 1   
    26   13   14 2   
    27   13   25 1   
@<TRIPOS>SUBSTRUCTURE
     1 0YE         1 TEMP              0 ****  ****    0 ROOT
