@<TRIPOS>MOLECULE
0YE
   26    27     1     0     0
SMALL
bcc


@<TRIPOS>ATOM
      1 O2         -0.4800    0.5450    0.3550 o         1 0YE     -0.841800
      2 N3          2.7570   -1.0600    5.5020 nc        1 0YE     -0.363300
      3 O5          2.1200   -1.3900    4.4010 os        1 0YE     -0.132100
      4 C11         0.7460    0.5520    0.0420 c         1 0YE      0.910600
      5 C12         1.7900    0.3720    1.1650 c3        1 0YE     -0.198400
      6 C13         1.2340   -0.4610    2.2970 c3        1 0YE     -0.130700
      7 C14         2.5370    0.8180    4.2060 cd        1 0YE     -0.392600
      8 C16         3.0460    0.2670    5.4620 cd        1 0YE      0.366100
      9 C21         3.7500    1.0010    6.4760 cf        1 0YE     -0.170100
     10 C22         3.8450    2.5090    6.4170 c3        1 0YE     -0.017000
     11 C23         3.6390    3.0800    7.7980 c2        1 0YE     -0.164200
     12 C24         3.8690    2.3890    8.9370 ce        1 0YE     -0.141000
     13 C25         4.5330    1.0810    8.8010 ce        1 0YE     -0.183100
     14 C26         4.2710    0.5450    7.6160 c1        1 0YE      0.006200
     15 C27         1.9540   -0.2560    3.5590 cc        1 0YE      0.322000
     16 H16         2.7080   -0.1030    0.7410 hc        1 0YE      0.029700
     17 H17         2.0660    1.3930    1.5300 hc        1 0YE      0.029700
     18 H18         1.2510   -1.5490    2.0220 hc        1 0YE      0.086700
     19 H19         0.1490   -0.1750    2.4450 hc        1 0YE      0.086700
     20 H20         2.6140    1.8430    3.8640 ha        1 0YE      0.172000
     21 H21         3.0300    2.8790    5.7380 hc        1 0YE      0.078200
     22 H22         4.8250    2.8730    6.0110 hc        1 0YE      0.078200
     23 H23         3.2960    4.1240    7.8180 ha        1 0YE      0.128000
     24 H24         3.6840    2.7940    9.9380 ha        1 0YE      0.130000
     25 H25         5.2380    0.7300    9.5560 ha        1 0YE      0.150000
     26 OXT         1.1830    0.7190   -1.1300 o         1 0YE     -0.841800
@<TRIPOS>BOND
     1    1    4 1   
     2    2    3 1   
     3    2    8 2   
     4    3   15 1   
     5    4    5 1   
     6    4   26 1   
     7    5    6 1   
     8    5   16 1   
     9    5   17 1   
    10    6   15 1   
    11    6   18 1   
    12    6   19 1   
    13    7    8 1   
    14    7   15 2   
    15    7   20 1   
    16    8    9 1   
    17    9   10 1   
    18    9   14 2   
    19   10   11 1   
    20   10   21 1   
    21   10   22 1   
    22   11   12 2   
    23   11   23 1   
    24   12   13 1   
    25   12   24 1   
    26   13   14 2   
    27   13   25 1   
@<TRIPOS>SUBSTRUCTURE
     1 0YE         1 TEMP              0 ****  ****    0 ROOT
