@<TRIPOS>MOLECULE
0YE
   26    27     1     0     0
SMALL
bcc


@<TRIPOS>ATOM
      1 O2         -4.8010    0.7690    1.1830 o         1 0YE     -0.841800
      2 N3          0.8810   -1.8560    0.5050 nc        1 0YE     -0.388300
      3 O5         -0.4280   -1.9480    0.5940 os        1 0YE     -0.132100
      4 C11        -4.5280    0.7700   -0.0520 c         1 0YE      0.910600
      5 C12        -3.1010    0.3720   -0.4870 c3        1 0YE     -0.198400
      6 C13        -2.4940   -0.6130    0.4860 c3        1 0YE     -0.129700
      7 C14        -0.0080    0.2280    0.1700 cd        1 0YE     -0.389600
      8 C16         1.2160   -0.5670    0.2500 cd        1 0YE      0.354800
      9 C21         2.5660   -0.0550    0.0830 ca        1 0YE     -0.106500
     10 C22         2.8180    1.3120    0.2740 ca        1 0YE     -0.107500
     11 C23         4.1060    1.8170    0.1110 ca        1 0YE     -0.140500
     12 C24         5.1540    0.9660   -0.2420 ca        1 0YE     -0.134000
     13 C25         4.9100   -0.3930   -0.4300 ca        1 0YE     -0.140500
     14 C26         3.6240   -0.9050   -0.2690 ca        1 0YE     -0.107500
     15 C27        -1.0310   -0.6770    0.3930 cc        1 0YE      0.322000
     16 H16        -3.1370   -0.0620   -1.5160 hc        1 0YE      0.030200
     17 H17        -2.4900    1.3080   -0.5270 hc        1 0YE      0.030200
     18 H18        -2.7810   -0.2950    1.5330 hc        1 0YE      0.086700
     19 H19        -2.9300   -1.6350    0.3230 hc        1 0YE      0.086700
     20 H20        -0.0810    1.2900   -0.0340 ha        1 0YE      0.174000
     21 H21         1.9940    1.9850    0.5550 ha        1 0YE      0.145000
     22 H22         4.2950    2.8890    0.2620 ha        1 0YE      0.125000
     23 H23         6.1700    1.3670   -0.3700 ha        1 0YE      0.122000
     24 H24         5.7340   -1.0660   -0.7070 ha        1 0YE      0.125000
     25 H25         3.4390   -1.9800   -0.4190 ha        1 0YE      0.145000
     26 OXT        -5.3390    1.0950   -0.9630 o         1 0YE     -0.841800
@<TRIPOS>BOND
     1    1    4 1   
     2    2    3 1   
     3    2    8 2   
     4    3   15 1   
     5    4    5 1   
     6    4   26 1   
     7    5    6 1   
     8    5   16 1   
     9    5   17 1   
    10    6   15 1   
    11    6   18 1   
    12    6   19 1   
    13    7    8 1   
    14    7   15 2   
    15    7   20 1   
    16    8    9 1   
    17    9   10 ar  
    18    9   14 ar  
    19   10   11 ar  
    20   10   21 1   
    21   11   12 ar  
    22   11   22 1   
    23   12   13 ar  
    24   12   23 1   
    25   13   14 ar  
    26   13   24 1   
    27   14   25 1   
@<TRIPOS>SUBSTRUCTURE
     1 0YE         1 TEMP              0 ****  ****    0 ROOT
