@<TRIPOS>MOLECULE
0YE
   26    27     1     0     0
SMALL
bcc


@<TRIPOS>ATOM
      1 O2          0.7170    0.6920   -0.1380 o         1 0YE     -0.578500
      2 N3          2.6110   -1.0360    5.1970 n2        1 0YE      0.141000
      3 O5          1.6660   -1.3780    4.4320 os        1 0YE     -0.165000
      4 C11         1.8950    0.6880    0.3220 c2        1 0YE      0.334000
      5 C12         2.0880    0.4820    1.8400 c3        1 0YE     -0.244000
      6 C13         0.8410   -0.0930    2.4630 c3        1 0YE     -0.120000
      7 C14         1.5660    0.9900    4.6570 c1        1 0YE      0.016000
      8 C16         2.6390    0.3160    5.3840 c2        1 0YE     -0.255000
      9 C21         3.6070    1.0090    6.1900 c2        1 0YE      0.040000
     10 C22         3.6860    2.5160    6.1320 c3        1 0YE     -0.115000
     11 C23         3.8650    3.0590    7.5250 c2        1 0YE     -0.150000
     12 C24         4.3860    2.3440    8.5480 c2        1 0YE     -0.155000
     13 C25         4.9790    1.0370    8.2160 c2        1 0YE     -0.111000
     14 C26         4.4150    0.5190    7.1320 c1        1 0YE     -0.162000
     15 C27         0.8600   -0.1160    3.9720 c3        1 0YE     -0.101000
     16 H16         2.9630   -0.1940    2.0040 hc        1 0YE      0.074500
     17 H17         2.3260    1.4780    2.2930 hc        1 0YE      0.074500
     18 H18         0.6800   -1.1380    2.0890 hc        1 0YE      0.118500
     19 H19        -0.0410    0.5230    2.1300 hc        1 0YE      0.118500
     20 H20        -0.1550   -0.3070    4.4050 h1        1 0YE      0.151000
     21 H21         2.7180    2.8870    5.6910 hc        1 0YE      0.135500
     22 H22         4.5210    2.8870    5.4810 hc        1 0YE      0.135500
     23 H23         3.5510    4.1040    7.6570 ha        1 0YE      0.126000
     24 H24         4.4810    2.7300    9.5680 ha        1 0YE      0.125000
     25 H25         5.8540    0.6710    8.7540 ha        1 0YE      0.145000
     26 OXT         2.9330    0.8530   -0.3750 o         1 0YE     -0.578500
@<TRIPOS>BOND
     1    1    4 1   
     2    2    3 1   
     3    2    8 1   
     4    3   15 1   
     5    4    5 1   
     6    4   26 1   
     7    5    6 1   
     8    5   16 1   
     9    5   17 1   
    10    6   15 1   
    11    6   18 1   
    12    6   19 1   
    13    7    8 1   
    14    7   15 1   
    15    8    9 1   
    16    9   10 1   
    17    9   14 1   
    18   10   11 1   
    19   10   21 1   
    20   10   22 1   
    21   11   12 1   
    22   11   23 1   
    23   12   13 1   
    24   12   24 1   
    25   13   14 1   
    26   13   25 1   
    27   15   20 1   
@<TRIPOS>SUBSTRUCTURE
     1 0YE         1 TEMP              0 ****  ****    0 ROOT
