@<TRIPOS>MOLECULE
0YF
   30    25     1     0     0
SMALL
bcc


@<TRIPOS>ATOM
      1 C1          3.8750    0.6110   -1.1650 c3        1 0YF     -0.192400
      2 C2          5.3550    0.6080   -1.1760 c         1 0YF      0.908600
      3 O2          5.9850   -0.4790   -1.3780 o         1 0YF     -0.847300
      4 C14         3.3890    0.3760    0.2170 c3        1 0YF     -0.078300
      5 C15         1.3010   -1.0590    0.1490 c1        1 0YF     -0.075167
      6 C16        -0.0790   -1.2200    0.1830 c1        1 0YF     -0.075167
      7 C17        -0.9010   -0.1090    0.2660 cg        1 0YF     -0.044500
      8 C18         1.8440    0.2000    0.1970 c1        1 0YF      0.008900
      9 C19        -2.4060   -0.2780    0.3070 cg        1 0YF     -0.044500
     10 C20        -3.1320   -0.3040   -0.8760 c1        1 0YF     -0.064000
     11 C21        -4.4880   -0.4700   -0.8440 c1        1 0YF     -0.075167
     12 C22        -4.4350   -0.5890    1.5530 c1        1 0YF     -0.075167
     13 C23        -3.0560   -0.4210    1.5200 c1        1 0YF     -0.075167
     14 C27        -5.1480   -0.6140    0.3800 c1        1 0YF     -0.075167
     15 C30        -0.3490    1.1520    0.3150 c1        1 0YF     -0.064000
     16 C31         1.0200    1.3100    0.2810 c1        1 0YF     -0.090500
     17 H1          3.5450   -0.0990   -1.7500 hc        1 0YF      0.025700
     18 H2          3.5600    1.4390   -1.4700 hc        1 0YF      0.025700
     19 H16         3.8180   -0.4530    0.5850 hc        1 0YF      0.061700
     20 H17         3.6220    1.1440    0.7810 hc        1 0YF      0.061700
     21 H18         1.8710   -1.8220    0.0890 ha        1 0YF      0.070000
     22 H19        -0.4600   -2.1020    0.1920 ha        1 0YF      0.070000
     23 H20        -2.6600   -0.3200   -1.7350 ha        1 0YF      0.070000
     24 H21        -4.9850   -0.4860   -1.6610 ha        1 0YF      0.070000
     25 H22        -4.9060   -0.6920    2.4250 ha        1 0YF      0.070000
     26 H23        -2.5370   -0.4010    2.3670 ha        1 0YF      0.070000
     27 H24        -6.1020   -0.7320    0.4000 ha        1 0YF      0.070000
     28 H25        -0.9390    1.9520    0.3420 ha        1 0YF      0.070000
     29 H26         1.4030    2.1780    0.4300 ha        1 0YF      0.073500
     30 OXT         5.9960    1.6800   -0.9220 o         1 0YF     -0.847300
@<TRIPOS>BOND
     1    1    2 1   
     2    1    4 1   
     3    1   17 1   
     4    1   18 1   
     5    2    3 1   
     6    2   30 1   
     7    4    8 1   
     8    4   19 1   
     9    4   20 1   
    10    5    6 3   
    11    5   21 1   
    12    6   22 1   
    13    7    9 1   
    14    7   15 3   
    15    8   16 3   
    16    9   10 3   
    17   10   23 1   
    18   11   14 3   
    19   11   24 1   
    20   12   13 3   
    21   12   25 1   
    22   13   26 1   
    23   14   27 1   
    24   15   28 1   
    25   16   29 1   
@<TRIPOS>SUBSTRUCTURE
     1 0YF         1 TEMP              0 ****  ****    0 ROOT
