@<TRIPOS>MOLECULE
0YF
   30    31     1     0     0
SMALL
bcc


@<TRIPOS>ATOM
      1 C1          0.0680   -0.0200   -0.0260 c3        1 0YF     -0.192400
      2 C2          1.5760    0.2920    0.0350 c         1 0YF      0.908600
      3 O2          1.9870    1.1020    0.9160 o         1 0YF     -0.847300
      4 C14        -0.5100   -0.1620    1.3650 c3        1 0YF     -0.044100
      5 C15        -2.7420   -1.2680    1.7100 ca        1 0YF     -0.142000
      6 C16        -4.1330   -1.2280    1.7310 ca        1 0YF     -0.117500
      7 C17        -4.8160   -0.0420    1.4260 cp        1 0YF     -0.084000
      8 C18        -1.9970   -0.1300    1.3790 ca        1 0YF     -0.026300
      9 C19        -6.2750    0.0040    1.4530 cp        1 0YF     -0.005000
     10 C20        -6.9440    1.1310    1.9530 ca        1 0YF     -0.127000
     11 C21        -8.3360    1.1730    1.9780 ca        1 0YF     -0.134000
     12 C22        -8.4240   -1.0330    1.0060 ca        1 0YF     -0.134000
     13 C23        -7.0320   -1.0790    0.9790 ca        1 0YF     -0.127000
     14 C27        -9.0800    0.0920    1.5060 ca        1 0YF     -0.146000
     15 C30        -4.0710    1.1000    1.0950 ca        1 0YF     -0.117500
     16 C31        -2.6820    1.0550    1.0700 ca        1 0YF     -0.142000
     17 H1         -0.4320    0.8230   -0.5660 hc        1 0YF      0.025700
     18 H2         -0.0950   -0.9550   -0.6160 hc        1 0YF      0.025700
     19 H16        -0.1080    0.6830    1.9940 hc        1 0YF      0.061200
     20 H17        -0.1410   -1.1180    1.8220 hc        1 0YF      0.061200
     21 H18        -2.2190   -2.2060    1.9530 ha        1 0YF      0.138500
     22 H19        -4.7020   -2.1310    1.9980 ha        1 0YF      0.119500
     23 H20        -6.3610    1.9840    2.3320 ha        1 0YF      0.136000
     24 H21        -8.8490    2.0610    2.3740 ha        1 0YF      0.122000
     25 H22        -9.0060   -1.8860    0.6290 ha        1 0YF      0.122000
     26 H23        -6.5180   -1.9640    0.5770 ha        1 0YF      0.136000
     27 H24       -10.1780    0.1270    1.5260 ha        1 0YF      0.120000
     28 H25        -4.5930    2.0350    0.8430 ha        1 0YF      0.119500
     29 H26        -2.1020    1.9520    0.8010 ha        1 0YF      0.138500
     30 OXT         2.3230   -0.2670   -0.8180 o         1 0YF     -0.847300
@<TRIPOS>BOND
     1    1    2 1   
     2    1    4 1   
     3    1   17 1   
     4    1   18 1   
     5    2    3 1   
     6    2   30 1   
     7    4    8 1   
     8    4   19 1   
     9    4   20 1   
    10    5    6 ar  
    11    5    8 ar  
    12    5   21 1   
    13    6    7 ar  
    14    6   22 1   
    15    7    9 1   
    16    7   15 ar  
    17    8   16 ar  
    18    9   10 ar  
    19    9   13 ar  
    20   10   11 ar  
    21   10   23 1   
    22   11   14 ar  
    23   11   24 1   
    24   12   13 ar  
    25   12   14 ar  
    26   12   25 1   
    27   13   26 1   
    28   14   27 1   
    29   15   16 ar  
    30   15   28 1   
    31   16   29 1   
@<TRIPOS>SUBSTRUCTURE
     1 0YF         1 TEMP              0 ****  ****    0 ROOT
