@<TRIPOS>MOLECULE
0YF
   30    39     1     0     0
SMALL
bcc


@<TRIPOS>ATOM
      1 C1          0.0000    0.0000    0.0000 DU        1 0YF     -0.417000
      2 C2          1.5070    0.0000    0.0000 c3        1 0YF      0.422000
      3 O2          2.1110    0.0000    1.0460 o         1 0YF     -0.482500
      4 C14        -0.5100    0.0020    1.4430 c3        1 0YF     -0.496000
      5 C15        -2.7060   -1.1960    1.4450 c3        1 0YF     -0.388000
      6 C16        -4.0860   -1.2010    1.4450 c2        1 0YF     -0.317000
      7 C17        -4.7850    0.0050    1.4380 c3        1 0YF     -0.154000
      8 C18        -2.0170    0.0030    1.4430 c2        1 0YF      0.010000
      9 C19        -6.2690    0.0060    1.4390 c2        1 0YF     -0.057000
     10 C20        -6.9680    1.2120    1.4310 c3        1 0YF     -0.299000
     11 C21        -8.3480    1.2070    1.4330 c2        1 0YF     -0.298000
     12 C22        -8.3490   -1.1920    1.4410 c3        1 0YF      0.235000
     13 C23        -6.9690   -1.1990    1.4410 c2        1 0YF     -0.027000
     14 C27        -9.0370    0.0080    1.4410 c2        1 0YF      0.330000
     15 C30        -4.0850    1.2100    1.4300 c3        1 0YF     -0.505000
     16 C31        -2.7040    1.2030    1.4420 c2        1 0YF     -0.211000
     17 H1          0.9630    0.1600   -0.4690 DU        1 0YF      0.414000
     18 H2         -0.3610    0.8840   -0.5120 ha        1 0YF      0.131000
     19 H16        -0.4360   -0.4460    0.4600 DU        1 0YF      0.220000
     20 H17        -0.1490   -0.8820    1.9550 hc        1 0YF      0.092000
     21 H18        -1.8760   -0.5190    1.6100 hc        1 0YF      0.307000
     22 H19        -3.1120   -1.6740    1.4480 DU        1 0YF      0.263000
     23 H20        -6.2730    0.3820    1.4700 hc        1 0YF      0.105000
     24 H21        -7.3760    1.6860    1.4610 DU        1 0YF      0.251000
     25 H22        -8.5230   -0.1230    1.4370 DU        1 0YF     -0.332000
     26 H23        -7.9440   -1.6710    1.4420 DU        1 0YF      0.200000
     27 H24        -8.2020   -0.6810    1.4410 DU        1 0YF     -0.270000
     28 H25        -5.1470    0.9990    1.4320 DU        1 0YF      0.421000
     29 H26        -3.6750    1.6830    1.3960 DU        1 0YF      0.334000
     30 OXT         2.1780   -0.0030   -1.1630 o         1 0YF     -0.482500
@<TRIPOS>BOND
     1    1    2 1   
     2    1    4 1   
     3    1   17 1   
     4    1   18 1   
     5    1   19 1   
     6    2    3 1   
     7    2   17 1   
     8    2   30 1   
     9    4    8 1   
    10    4   19 1   
    11    4   20 1   
    12    5    6 1   
    13    5    8 1   
    14    5   21 1   
    15    5   22 1   
    16    6    7 1   
    17    6   22 1   
    18    7    9 1   
    19    7   15 1   
    20    7   28 1   
    21    8   16 1   
    22    9   10 1   
    23    9   13 1   
    24   10   11 1   
    25   10   23 1   
    26   10   24 1   
    27   11   14 1   
    28   11   24 1   
    29   12   13 1   
    30   12   14 1   
    31   12   25 1   
    32   12   26 1   
    33   13   26 1   
    34   14   27 1   
    35   15   16 1   
    36   15   28 1   
    37   15   29 1   
    38   16   29 1   
    39   25   27 1   
@<TRIPOS>SUBSTRUCTURE
     1 0YF         1 TEMP              0 ****  ****    0 ROOT
