@<TRIPOS>MOLECULE
0YF
   30    31     1     0     0
SMALL
bcc


@<TRIPOS>ATOM
      1 C1         -3.5830    0.0590   -0.5650 c3        1 0YF     -0.192400
      2 C2         -5.0670   -0.2690   -0.3070 c         1 0YF      0.908600
      3 O2         -5.3480   -1.1300    0.5760 o         1 0YF     -0.847300
      4 C14        -2.8120    0.1270    0.7350 c3        1 0YF     -0.044100
      5 C15        -0.5540    1.2310    0.8180 ca        1 0YF     -0.142000
      6 C16         0.8260    1.2000    0.6380 ca        1 0YF     -0.117500
      7 C17         1.4580    0.0380    0.1730 cp        1 0YF     -0.084000
      8 C18        -1.3390    0.1060    0.5350 ca        1 0YF     -0.026300
      9 C19         2.9060    0.0030   -0.0120 cp        1 0YF     -0.005000
     10 C20         3.6400   -1.1450    0.3240 ca        1 0YF     -0.127000
     11 C21         5.0210   -1.1770    0.1480 ca        1 0YF     -0.134000
     12 C22         4.9690    1.0790   -0.7030 ca        1 0YF     -0.134000
     13 C23         3.5870    1.1150   -0.5280 ca        1 0YF     -0.127000
     14 C27         5.6900   -0.0660   -0.3660 ca        1 0YF     -0.146000
     15 C30         0.6730   -1.0900   -0.1110 ca        1 0YF     -0.117500
     16 C31        -0.7050   -1.0540    0.0650 ca        1 0YF     -0.142000
     17 H1         -3.1660   -0.7490   -1.2180 hc        1 0YF      0.025700
     18 H2         -3.5060    1.0260   -1.1190 hc        1 0YF      0.025700
     19 H16        -3.1120    1.0530    1.2930 hc        1 0YF      0.061200
     20 H17        -3.1200   -0.7550    1.3660 hc        1 0YF      0.061200
     21 H18        -1.0360    2.1490    1.1850 ha        1 0YF      0.138500
     22 H19         1.4280    2.0910    0.8700 ha        1 0YF      0.119500
     23 H20         3.1170   -2.0220    0.7350 ha        1 0YF      0.136000
     24 H21         5.5850   -2.0820    0.4170 ha        1 0YF      0.122000
     25 H22         5.4910    1.9560   -1.1120 ha        1 0YF      0.122000
     26 H23         3.0210    2.0180   -0.8040 ha        1 0YF      0.136000
     27 H24         6.7790   -0.0930   -0.5050 ha        1 0YF      0.120000
     28 H25         1.1530   -2.0050   -0.4870 ha        1 0YF      0.119500
     29 H26        -1.3180   -1.9390   -0.1670 ha        1 0YF      0.138500
     30 OXT        -5.9280    0.3320   -1.0090 o         1 0YF     -0.847300
@<TRIPOS>BOND
     1    1    2 1   
     2    1    4 1   
     3    1   17 1   
     4    1   18 1   
     5    2    3 1   
     6    2   30 1   
     7    4    8 1   
     8    4   19 1   
     9    4   20 1   
    10    5    6 ar  
    11    5    8 ar  
    12    5   21 1   
    13    6    7 ar  
    14    6   22 1   
    15    7    9 1   
    16    7   15 ar  
    17    8   16 ar  
    18    9   10 ar  
    19    9   13 ar  
    20   10   11 ar  
    21   10   23 1   
    22   11   14 ar  
    23   11   24 1   
    24   12   13 ar  
    25   12   14 ar  
    26   12   25 1   
    27   13   26 1   
    28   14   27 1   
    29   15   16 ar  
    30   15   28 1   
    31   16   29 1   
@<TRIPOS>SUBSTRUCTURE
     1 0YF         1 TEMP              0 ****  ****    0 ROOT
