@<TRIPOS>MOLECULE
0YG
   28    28     1     0     0
SMALL
bcc


@<TRIPOS>ATOM
      1 C          -4.2480   -0.8330    0.2520 c         1 0YG      0.897600
      2 O          -3.2980   -1.6510    0.4560 o         1 0YG     -0.841300
      3 C2         -1.6220    1.2280    0.0930 c         1 0YG      0.638300
      4 O2         -1.8000    2.3170    0.6640 o         1 0YG     -0.584100
      5 N3         -2.5310    0.6690   -0.8100 n         1 0YG     -0.488900
      6 CZ          4.7660   -0.5670    0.0320 ca        1 0YG      0.085100
      7 CA2        -0.3200    0.4550    0.2910 ce        1 0YG      0.122800
      8 CA3        -3.9130    0.5470   -0.3860 c3        1 0YG     -0.082000
      9 CB2         0.8440    1.0580   -0.0830 cf        1 0YG     -0.297200
     10 CD1         3.2470    1.2640    0.3990 ca        1 0YG     -0.118000
     11 CD2         2.4210   -0.8400   -0.4550 ca        1 0YG     -0.118000
     12 CE1         4.5400    0.7570    0.4390 ca        1 0YG     -0.177000
     13 CE2         3.7090   -1.3660   -0.4180 ca        1 0YG     -0.177000
     14 CG2         2.1650    0.4750   -0.0370 ca        1 0YG     -0.007800
     15 O4         -5.4550   -1.0600    0.5200 o         1 0YG     -0.841300
     16 HN2        -1.3760   -1.1790    0.9490 hn        1 0YG      0.447300
     17 HN2A        0.3260   -1.3550    0.9550 hn        1 0YG      0.447300
     18 HN3        -2.2140   -0.2120   -1.1770 hn        1 0YG      0.281500
     19 HOH         6.0690   -1.9430   -0.1990 ho        1 0YG      0.408000
     20 HA3        -4.5570    0.6810   -1.2980 h1        1 0YG      0.056200
     21 HA3A       -4.1660    1.3550    0.3500 h1        1 0YG      0.056200
     22 HB2         0.7950    2.1060   -0.4190 ha        1 0YG      0.141000
     23 HD1         3.0580    2.3000    0.7190 ha        1 0YG      0.135000
     24 HD2         1.6000   -1.4630   -0.8410 ha        1 0YG      0.135000
     25 HE1         5.3830    1.3700    0.7850 ha        1 0YG      0.129000
     26 HE2         3.8960   -2.3980   -0.7450 ha        1 0YG      0.129000
     27 OH          6.0700   -1.0220    0.0950 oh        1 0YG     -0.512100
     28 N2         -0.4630   -0.7630    0.8950 nh        1 0YG     -0.864600
@<TRIPOS>BOND
     1    1    2 1   
     2    1    8 1   
     3    1   15 1   
     4    3    4 2   
     5    3    5 1   
     6    3    7 1   
     7    5    8 1   
     8    5   18 1   
     9    6   12 ar  
    10    6   13 ar  
    11    6   27 1   
    12    7    9 2   
    13    7   28 1   
    14    8   20 1   
    15    8   21 1   
    16    9   14 1   
    17    9   22 1   
    18   10   12 ar  
    19   10   14 ar  
    20   10   23 1   
    21   11   13 ar  
    22   11   14 ar  
    23   11   24 1   
    24   12   25 1   
    25   13   26 1   
    26   16   28 1   
    27   17   28 1   
    28   19   27 1   
@<TRIPOS>SUBSTRUCTURE
     1 0YG         1 TEMP              0 ****  ****    0 ROOT
