@<TRIPOS>MOLECULE
0YG
   28    23     1     0     0
SMALL
bcc


@<TRIPOS>ATOM
      1 C           2.5740    3.5290   -1.6510 c1        1 0YG      0.317000
      2 O           3.3640    2.7860   -2.2900 o         1 0YG     -0.576500
      3 C2          0.7420    1.2310    0.3350 c1        1 0YG      0.320000
      4 N2         -0.6510    1.9890    2.3190 n3        1 0YG     -0.340000
      5 O2          1.5190    0.3340    0.0780 o         1 0YG     -0.354000
      6 N3          0.8980    2.5020   -0.2780 n2        1 0YG     -0.293000
      7 OH         -1.2540   -4.9180   -1.5450 oh        1 0YG     -0.268000
      8 CZ         -1.2140   -3.6860   -0.8670 c2        1 0YG      0.047000
      9 CA2        -0.3700    1.0050    1.3360 c2        1 0YG      0.031000
     10 CA3         2.1590    3.1590   -0.2430 c2        1 0YG     -0.148000
     11 CB2        -1.0950   -0.1320    1.2930 c1        1 0YG     -0.273000
     12 CD1        -1.8480   -1.3820   -0.6340 c1        1 0YG     -0.113000
     13 CD2         0.0480   -2.2330    0.5690 c1        1 0YG     -0.094000
     14 CE1        -2.0570   -2.6340   -1.1900 c1        1 0YG     -0.161000
     15 CE2        -0.1620   -3.4850    0.0130 c2        1 0YG     -0.205000
     16 CG2        -0.7950   -1.1810    0.2450 c1        1 0YG     -0.015000
     17 O4          2.1400    4.5870   -2.1770 o         1 0YG     -0.576500
     18 HN2        -1.4220    2.4790    2.2680 hn        1 0YG      0.219500
     19 HN2A       -0.0630    2.1320    3.0040 hn        1 0YG      0.219500
     20 HN3         0.1850    2.9050   -0.6790 hn        1 0YG      0.195000
     21 HOH        -1.7560   -5.4930   -1.0870 ho        1 0YG      0.208000
     22 HA3         2.8290    2.5600    0.1480 h4        1 0YG      0.095500
     23 HA3A        2.0900    3.9700    0.3010 h4        1 0YG      0.095500
     24 HB2        -1.8120   -0.2770    1.9390 ha        1 0YG      0.116000
     25 HD1        -2.4540   -0.6470   -0.8460 ha        1 0YG      0.125000
     26 HD2         0.7730   -2.0980    1.2080 ha        1 0YG      0.170000
     27 HE1        -2.7980   -2.7760   -1.8100 ha        1 0YG      0.134000
     28 HE2         0.4320   -4.2260    0.2410 ha        1 0YG      0.125000
@<TRIPOS>BOND
     1    1    2 1   
     2    1   17 1   
     3    3    5 1   
     4    3    9 1   
     5    4    9 1   
     6    4   18 1   
     7    4   19 1   
     8    6   10 1   
     9    6   20 1   
    10    7    8 1   
    11    7   21 1   
    12    8   14 1   
    13    8   15 1   
    14    9   11 1   
    15   10   22 1   
    16   10   23 1   
    17   11   24 1   
    18   12   16 1   
    19   12   25 1   
    20   13   15 1   
    21   13   26 1   
    22   14   27 1   
    23   15   28 1   
@<TRIPOS>SUBSTRUCTURE
     1 0YG         1 TEMP              0 ****  ****    0 ROOT
