@<TRIPOS>MOLECULE
0YH
   64    64     1     0     0
SMALL
bcc


@<TRIPOS>ATOM
      1 C1          2.6820    2.1230   -0.1120 c2        1 0YH     -0.020000
      2 C2         12.1410   -3.3200   -0.9300 c3        1 0YH     -0.184000
      3 C3          7.4280    1.6710    5.6030 c3        1 0YH     -0.203667
      4 C4          7.8180   -0.4800    6.7790 c3        1 0YH     -0.203667
      5 C5          5.6540    0.7050    7.0560 c3        1 0YH     -0.203667
      6 C6         17.1990   -1.2410    1.8040 c3        1 0YH     -0.077000
      7 C7          1.5930    0.2010   -0.9850 c1        1 0YH     -0.080000
      8 C8          0.9190    2.4850   -1.7840 c2        1 0YH     -0.478000
      9 C9          3.9960   -1.1050    0.9120 c2        1 0YH     -0.265000
     10 C10         0.5360    3.7180   -1.5320 c1        1 0YH      0.201000
     11 C11        14.8620   -2.6970    2.3410 ca        1 0YH     -0.215000
     12 C12        13.6800   -3.4060    2.5380 ca        1 0YH     -0.068000
     13 C13        14.2500   -2.3890   -0.0000 ca        1 0YH     -0.167000
     14 C14        10.3060   -3.5870    1.9190 c2        1 0YH     -0.068000
     15 C15         6.5950   -1.6920    4.4720 c2        1 0YH     -0.184000
     16 C16         1.7420    1.6160   -0.9490 c2        1 0YH     -0.138000
     17 C17        13.0690   -3.1030    0.2050 ca        1 0YH     -0.009000
     18 C18         3.9820   -0.6340    2.1650 c2        1 0YH     -0.044000
     19 C19        15.1430   -2.1890    1.0670 ca        1 0YH      0.097000
     20 C20        12.7810   -3.6110    1.4870 ca        1 0YH     -0.064000
     21 C21        11.5280   -4.3360    1.7450 c2        1 0YH     -0.198000
     22 C22         6.2140   -0.3620    4.8990 c2        1 0YH     -0.099000
     23 C23         9.0960   -4.1130    2.1940 c2        1 0YH     -0.120000
     24 C24         5.8120   -1.9520    3.3320 c2        1 0YH      0.014000
     25 C25         6.8580   -3.4870    1.7800 c2        1 0YH      0.193000
     26 C26         6.7740    0.3770    6.0750 c3        1 0YH      0.021000
     27 N27        11.5990   -6.7920    1.8910 n1        1 0YH     -0.014000
     28 N28        11.5610   -5.6620    1.8220 n2        1 0YH      0.149000
     29 N29         5.2550    0.1400    4.0720 n2        1 0YH     -0.070000
     30 N30         6.7630   -3.9930    0.5890 n2        1 0YH     -0.330000
     31 N31         5.7320   -3.1370    2.5830 nh        1 0YH     -0.188000
     32 N32         5.0290   -0.7720    3.1090 na        1 0YH     -0.113000
     33 O33         8.0610   -3.2250    2.4830 os        1 0YH     -0.200000
     34 H1          0.8660   -0.2160   -1.6950 ha        1 0YH      0.054000
     35 H2          3.2940    1.4560    0.5200 ha        1 0YH      0.137500
     36 H3          2.8820    3.2010   -0.0250 ha        1 0YH      0.137500
     37 H4         11.0790   -3.2360   -0.5900 hc        1 0YH      0.090000
     38 H5         12.3160   -2.5720   -1.7420 hc        1 0YH      0.090000
     39 H6         12.2940   -4.3430   -1.3560 hc        1 0YH      0.090000
     40 H7          6.6720    2.3430    5.1310 hc        1 0YH      0.078111
     41 H8          7.8840    2.2030    6.4730 hc        1 0YH      0.078111
     42 H9          8.2290    1.4520    4.8580 hc        1 0YH      0.078111
     43 H10         8.2310    0.0740    7.6560 hc        1 0YH      0.078111
     44 H11         7.3610   -1.4320    7.1410 hc        1 0YH      0.078111
     45 H12         8.6560   -0.7250    6.0840 hc        1 0YH      0.078111
     46 H13         6.0760    1.2170    7.9540 hc        1 0YH      0.078111
     47 H14         5.1410   -0.2300    7.3860 hc        1 0YH      0.078111
     48 H15         4.9010    1.3790    6.5820 hc        1 0YH      0.078111
     49 H16        16.7200   -0.6500    2.6220 h1        1 0YH      0.085667
     50 H17        18.0150   -0.6510    1.3140 h1        1 0YH      0.085667
     51 H18        17.5950   -2.2080    2.2000 h1        1 0YH      0.085667
     52 H19         4.8290   -1.6480    0.4490 ha        1 0YH      0.158000
     53 H20         0.5710    2.0220   -2.7330 ha        1 0YH      0.194000
     54 H21         3.1180   -0.9370    0.2560 ha        1 0YH      0.158000
     55 H22         3.1180   -0.0560    2.5520 h4        1 0YH      0.155000
     56 H23        13.4470   -3.8030    3.5390 ha        1 0YH      0.138000
     57 H24        15.5540   -2.5450    3.1800 ha        1 0YH      0.141000
     58 H25        14.4940   -1.9770   -0.9900 ha        1 0YH      0.153000
     59 H26        10.4350   -2.4920    1.8400 ha        1 0YH      0.166000
     60 H27         7.3360   -2.3480    4.9150 ha        1 0YH      0.180000
     61 H28         8.8410   -5.1750    2.2990 h4        1 0YH      0.141000
     62 H29         7.6250   -4.2960    0.1910 hn        1 0YH      0.165000
     63 H30         4.8620   -3.2420    2.0850 hn        1 0YH      0.230000
     64 O34        16.2780   -1.4720    0.7440 os        1 0YH     -0.208000
@<TRIPOS>BOND
     1    1   16 1   
     2    1   35 1   
     3    1   36 1   
     4    2   17 1   
     5    2   37 1   
     6    2   38 1   
     7    2   39 1   
     8    3   26 1   
     9    3   40 1   
    10    3   41 1   
    11    3   42 1   
    12    4   26 1   
    13    4   43 1   
    14    4   44 1   
    15    4   45 1   
    16    5   26 1   
    17    5   46 1   
    18    5   47 1   
    19    5   48 1   
    20    6   49 1   
    21    6   50 1   
    22    6   51 1   
    23    6   64 1   
    24    7   16 1   
    25    7   34 1   
    26    8   10 1   
    27    8   16 1   
    28    8   53 1   
    29    9   18 1   
    30    9   52 1   
    31    9   54 1   
    32   11   12 1   
    33   11   19 1   
    34   11   57 1   
    35   12   20 1   
    36   12   56 1   
    37   13   17 1   
    38   13   19 1   
    39   13   58 1   
    40   14   21 1   
    41   14   23 1   
    42   14   59 1   
    43   15   22 1   
    44   15   24 1   
    45   15   60 1   
    46   17   20 1   
    47   18   32 1   
    48   18   55 1   
    49   19   64 1   
    50   20   21 1   
    51   21   28 1   
    52   22   26 1   
    53   22   29 1   
    54   23   33 1   
    55   23   61 1   
    56   24   31 1   
    57   24   32 1   
    58   25   30 1   
    59   25   31 1   
    60   25   33 1   
    61   27   28 1   
    62   29   32 1   
    63   30   62 1   
    64   31   63 1   
@<TRIPOS>SUBSTRUCTURE
     1 0YH         1 TEMP              0 ****  ****    0 ROOT
