@<TRIPOS>MOLECULE
0YH
   64    64     1     0     0
SMALL
bcc


@<TRIPOS>ATOM
      1 C1         -2.4230   -0.4680    3.1830 c3        1 0YH     -0.249000
      2 C2         14.8060   -3.0130   -0.8120 c3        1 0YH     -0.187000
      3 C3          8.3030    0.6200    5.3380 c3        1 0YH     -0.203000
      4 C4          6.1050   -0.3320    5.9970 c3        1 0YH     -0.203000
      5 C5          6.3060    2.0920    5.4600 c3        1 0YH     -0.203000
      6 C6         16.6820   -4.1590    4.8880 c3        1 0YH     -0.076000
      7 C7          2.9110   -0.5140   -0.8890 c2        1 0YH     -0.139000
      8 C8         -0.0960    0.1210    2.5850 c1        1 0YH     -0.555000
      9 C9          4.0950   -0.2210   -0.3360 c2        1 0YH     -0.189000
     10 C10         0.9310    0.0110    1.8460 c1        1 0YH      0.139000
     11 C11        14.3440   -3.9970    3.3480 ca        1 0YH     -0.210000
     12 C12        13.2260   -3.9040    2.5240 ca        1 0YH     -0.073000
     13 C13        15.7580   -3.4630    1.4350 ca        1 0YH     -0.162000
     14 C14        11.1310   -2.5100    0.7460 c2        1 0YH     -0.101000
     15 C15         7.4280    0.1050    2.6610 c2        1 0YH     -0.414000
     16 C16        -1.1500    0.2470    3.3740 c2        1 0YH      0.200000
     17 C17        14.6310   -3.3650    0.6170 ca        1 0YH     -0.022000
     18 C18         4.1720    0.0350    1.0920 c2        1 0YH      0.069000
     19 C19        15.6120   -3.7800    2.7960 ca        1 0YH      0.089000
     20 C20        13.3550   -3.5920    1.1660 ca        1 0YH     -0.051000
     21 C21        12.1320   -3.4820    0.3590 c2        1 0YH     -0.184000
     22 C22         6.4860    0.4000    3.6670 c2        1 0YH      0.071000
     23 C23         9.9470   -2.3170    0.1330 c2        1 0YH     -0.089000
     24 C24         6.6940   -0.1130    1.4360 c2        1 0YH      0.182000
     25 C25         8.3310   -0.6050   -0.2030 c2        1 0YH      0.199000
     26 C26         6.7980    0.6930    5.1070 c3        1 0YH      0.003000
     27 N27        11.8100   -4.9980   -1.5520 n1        1 0YH     -0.029000
     28 N28        11.9510   -4.3070   -0.6640 n2        1 0YH      0.143000
     29 N29         5.1930    0.3950    3.1860 n2        1 0YH     -0.259000
     30 N30         8.8360   -0.1100   -1.2880 n2        1 0YH     -0.280000
     31 N31         6.9920   -0.4130    0.1990 n2        1 0YH     -0.248000
     32 N32         5.2520    0.0990    1.8500 na        1 0YH      0.040000
     33 O33         9.0570   -1.4290    0.7180 os        1 0YH     -0.241000
     34 H1         -3.2560    0.2730    3.0700 hc        1 0YH      0.115333
     35 H2         -2.6390   -1.0950    4.0870 hc        1 0YH      0.115333
     36 H3         -2.4070   -1.1300    2.2830 hc        1 0YH      0.115333
     37 H4         14.0030   -2.3100   -1.1460 hc        1 0YH      0.089333
     38 H5         15.7960   -2.5240   -0.9860 hc        1 0YH      0.089333
     39 H6         14.7590   -3.9340   -1.4460 hc        1 0YH      0.089333
     40 H7          8.8320    1.3650    4.6990 hc        1 0YH      0.079778
     41 H8          8.5300    0.8400    6.4090 hc        1 0YH      0.079778
     42 H9          8.6850   -0.4000    5.0930 hc        1 0YH      0.079778
     43 H10         6.4220   -1.3650    5.7180 hc        1 0YH      0.079778
     44 H11         6.3790   -0.1480    7.0640 hc        1 0YH      0.079778
     45 H12         4.9960   -0.2560    5.8940 hc        1 0YH      0.079778
     46 H13         5.1970    2.1560    5.3570 hc        1 0YH      0.079778
     47 H14         6.7740    2.8490    4.7870 hc        1 0YH      0.079778
     48 H15         6.5820    2.3320    6.5150 hc        1 0YH      0.079778
     49 H16        16.0880   -3.3770    5.4200 h1        1 0YH      0.084333
     50 H17        17.7440   -4.1580    5.2430 h1        1 0YH      0.084333
     51 H18        16.2200   -5.1660    5.0310 h1        1 0YH      0.084333
     52 H19         2.8140   -0.7040   -1.9670 ha        1 0YH      0.133500
     53 H20        -1.1090    0.9280    4.2510 ha        1 0YH      0.129000
     54 H21         5.0100   -0.1550   -0.9510 ha        1 0YH      0.186000
     55 H22         3.1830    0.2010    1.6030 h4        1 0YH      0.210000
     56 H23        12.2220   -4.0720    2.9460 ha        1 0YH      0.142000
     57 H24        14.2190   -4.2390    4.4120 ha        1 0YH      0.139000
     58 H25        16.7650   -3.2910    1.0280 ha        1 0YH      0.151000
     59 H26        11.4050   -1.9160    1.6360 ha        1 0YH      0.161000
     60 H27         8.5050    0.0100    2.7400 ha        1 0YH      0.183000
     61 H28         9.5760   -2.8440   -0.7560 h4        1 0YH      0.135000
     62 H29         9.7690   -0.4080   -1.4820 hn        1 0YH      0.154000
     63 H30         1.9790   -0.5830   -0.3030 ha        1 0YH      0.133500
     64 O34        16.7960   -3.8510    3.5040 os        1 0YH     -0.210000
@<TRIPOS>BOND
     1    1   16 1   
     2    1   34 1   
     3    1   35 1   
     4    1   36 1   
     5    2   17 1   
     6    2   37 1   
     7    2   38 1   
     8    2   39 1   
     9    3   26 1   
    10    3   40 1   
    11    3   41 1   
    12    3   42 1   
    13    4   26 1   
    14    4   43 1   
    15    4   44 1   
    16    4   45 1   
    17    5   26 1   
    18    5   46 1   
    19    5   47 1   
    20    5   48 1   
    21    6   49 1   
    22    6   50 1   
    23    6   51 1   
    24    6   64 1   
    25    7    9 1   
    26    7   52 1   
    27    7   63 1   
    28    8   10 1   
    29    8   16 1   
    30    9   18 1   
    31    9   54 1   
    32   11   12 1   
    33   11   19 1   
    34   11   57 1   
    35   12   20 1   
    36   12   56 1   
    37   13   17 1   
    38   13   19 1   
    39   13   58 1   
    40   14   21 1   
    41   14   23 1   
    42   14   59 1   
    43   15   22 1   
    44   15   24 1   
    45   15   60 1   
    46   16   53 1   
    47   17   20 1   
    48   18   32 1   
    49   18   55 1   
    50   19   64 1   
    51   20   21 1   
    52   21   28 1   
    53   22   26 1   
    54   22   29 1   
    55   23   33 1   
    56   23   61 1   
    57   24   31 1   
    58   24   32 1   
    59   25   30 1   
    60   25   31 1   
    61   25   33 1   
    62   27   28 1   
    63   29   32 1   
    64   30   62 1   
@<TRIPOS>SUBSTRUCTURE
     1 0YH         1 TEMP              0 ****  ****    0 ROOT
