@<TRIPOS>MOLECULE
0YH
   64    52     1     0     0
SMALL
bcc


@<TRIPOS>ATOM
      1 C1         -3.0470    1.6840   -5.2700 c3        1 0YH     -0.182500
      2 C2          5.6120   -0.1360   -1.4760 c3        1 0YH     -0.182500
      3 C3         -4.0150    3.9040    3.6750 c3        1 0YH     -0.204333
      4 C4         -5.7470    2.1510    4.0060 c3        1 0YH     -0.204333
      5 C5         -3.3620    1.7280    4.7540 c3        1 0YH     -0.204333
      6 C6          9.2000   -3.8370    0.0400 c3        1 0YH     -0.076000
      7 C7         -2.3850    2.9800   -3.2630 c1        1 0YH     -0.147000
      8 C8         -4.2990    1.5090   -3.2060 c1        1 0YH     -0.124000
      9 C9         -2.3010    2.9240   -1.8680 c1        1 0YH     -0.155000
     10 C10        -4.2160    1.4540   -1.8290 c1        1 0YH     -0.124000
     11 C11         6.0430   -3.9390    0.3840 c1        1 0YH     -0.155000
     12 C12         4.7520   -3.6960   -0.0960 c1        1 0YH     -0.078000
     13 C13         6.7140   -1.7200   -0.2790 c1        1 0YH     -0.147000
     14 C14         1.8810   -1.9100   -0.2500 c1        1 0YH     -0.262000
     15 C15        -3.6180    0.4960    1.9780 c1        1 0YH     -0.227000
     16 C16        -3.3840    2.2730   -3.9300 c1        1 0YH     -0.032500
     17 C17         5.4160   -1.4760   -0.7610 c1        1 0YH     -0.032500
     18 C18        -3.2050    2.1690   -1.1540 c1        1 0YH      0.072500
     19 C19         7.0230   -2.9440    0.2890 c1        1 0YH      0.072500
     20 C20         4.4410   -2.4620   -0.6680 c1        1 0YH     -0.044000
     21 C21         2.9620   -2.1340   -1.0630 c2        1 0YH     -0.056000
     22 C22        -3.9320    1.8140    2.2380 c1        1 0YH     -0.035500
     23 C23         0.7330   -2.1970   -0.9740 c1        1 0YH      0.042000
     24 C24        -3.1220    0.4230    0.7030 c1        1 0YH     -0.035500
     25 C25        -1.1620   -0.8860   -0.0940 c1        1 0YH      0.385000
     26 C26        -4.2710    2.4140    3.6740 c2        1 0YH      0.021000
     27 N27         1.1120   -2.5920   -2.2190 n2        1 0YH     -0.142000
     28 N28         2.4950   -2.5540   -2.2790 n2        1 0YH     -0.070000
     29 N29        -3.6330    2.5390    1.1360 n2        1 0YH     -0.056500
     30 N30        -0.6050   -2.1270   -0.4480 n2        1 0YH     -0.290000
     31 N31        -2.5370   -0.8230    0.3910 n1        1 0YH     -0.288000
     32 N32        -3.1280    1.6760    0.1790 n2        1 0YH     -0.056500
     33 O33        -0.5110    0.1420   -0.2300 o         1 0YH     -0.363000
     34 O34         8.2840   -3.1440    0.8750 o         1 0YH     -0.210000
     35 H1         -2.5410    2.3260   -5.7850 hc        1 0YH      0.089000
     36 H2         -3.8910    1.4550   -5.7580 hc        1 0YH      0.089000
     37 H3         -2.5050    0.8610   -5.1430 hc        1 0YH      0.089000
     38 H4          6.3500   -0.2170   -2.1320 hc        1 0YH      0.089000
     39 H5          4.7770    0.1120   -1.9480 hc        1 0YH      0.089000
     40 H6          5.8370    0.5680   -0.8060 hc        1 0YH      0.089000
     41 H7         -3.0610    4.0690    3.5560 hc        1 0YH      0.078667
     42 H8         -4.3170    4.2960    4.5550 hc        1 0YH      0.078667
     43 H9         -4.5170    4.3270    2.9360 hc        1 0YH      0.078667
     44 H10        -5.8590    1.2210    4.2770 hc        1 0YH      0.078667
     45 H11        -6.2960    2.3290    3.2180 hc        1 0YH      0.078667
     46 H12        -6.0280    2.7440    4.7450 hc        1 0YH      0.078667
     47 H13        -2.4340    1.8370    4.5130 hc        1 0YH      0.078667
     48 H14        -3.5730    0.7850    4.8010 hc        1 0YH      0.078667
     49 H15        -3.5200    2.1320    5.6040 hc        1 0YH      0.078667
     50 H16         9.0950   -3.5170   -0.9140 h1        1 0YH      0.083000
     51 H17         9.0180   -4.8060    0.0850 h1        1 0YH      0.083000
     52 H18        10.1090   -3.6640    0.3420 h1        1 0YH      0.083000
     53 H19        -1.7440    3.5160   -3.7700 ha        1 0YH      0.144500
     54 H20        -4.9930    1.0170   -3.6690 ha        1 0YH      0.138500
     55 H21        -1.6070    3.4160   -1.4040 ha        1 0YH      0.146000
     56 H22        -4.8790    0.9010   -1.3060 ha        1 0YH      0.138500
     57 H23         6.2630   -4.8090    0.7880 ha        1 0YH      0.146000
     58 H24         4.0870   -4.3710   -0.0310 ha        1 0YH      0.134000
     59 H25         7.3940   -1.0290   -0.3450 ha        1 0YH      0.144500
     60 H26         1.9130   -1.6080    0.6650 DU        1 0YH      0.211667
     61 H27        -3.7480   -0.2560    2.5880 DU        1 0YH      0.211667
     62 H28         0.5560   -2.8370   -2.8920 DU        1 0YH      0.211667
     63 H29        -1.0800   -2.9020   -0.3000 hn        1 0YH      0.239000
     64 H30        -2.9910   -1.5970    0.5700 hn        1 0YH      0.231000
@<TRIPOS>BOND
     1    1   16 1   
     2    1   35 1   
     3    1   36 1   
     4    1   37 1   
     5    2   17 1   
     6    2   38 1   
     7    2   39 1   
     8    2   40 1   
     9    3   26 1   
    10    3   41 1   
    11    3   42 1   
    12    3   43 1   
    13    4   26 1   
    14    4   44 1   
    15    4   45 1   
    16    4   46 1   
    17    5   26 1   
    18    5   47 1   
    19    5   48 1   
    20    5   49 1   
    21    6   34 1   
    22    6   50 1   
    23    6   51 1   
    24    6   52 1   
    25    7   16 1   
    26    7   53 1   
    27    8   10 1   
    28    8   54 1   
    29    9   18 1   
    30    9   55 1   
    31   10   56 1   
    32   11   19 1   
    33   11   57 1   
    34   12   20 1   
    35   12   58 1   
    36   13   17 1   
    37   13   59 1   
    38   14   21 1   
    39   14   23 1   
    40   15   22 1   
    41   15   24 1   
    42   20   21 1   
    43   21   28 1   
    44   22   29 1   
    45   23   27 1   
    46   24   32 1   
    47   25   30 1   
    48   25   33 1   
    49   27   28 1   
    50   29   32 1   
    51   30   63 1   
    52   31   64 1   
@<TRIPOS>SUBSTRUCTURE
     1 0YH         1 TEMP              0 ****  ****    0 ROOT
