@<TRIPOS>MOLECULE
0YH
   64    67     1     0     0
SMALL
bcc


@<TRIPOS>ATOM
      1 C1          7.3920    3.7260    0.9050 c3        1 0YH     -0.056800
      2 C2         -5.9570    2.2110   -1.9760 c3        1 0YH     -0.057800
      3 C3          3.1980   -4.6770   -2.0710 c3        1 0YH     -0.085100
      4 C4          2.4130   -4.9480    0.2770 c3        1 0YH     -0.085100
      5 C5          4.8440   -4.9010   -0.2270 c3        1 0YH     -0.085100
      6 C6         -9.0020   -1.5250    1.7730 c3        1 0YH      0.113700
      7 C7          5.7530    2.4590   -0.4960 ca        1 0YH     -0.124500
      8 C8          6.4450    1.5250    1.6170 ca        1 0YH     -0.124500
      9 C9          4.9390    1.3550   -0.7290 ca        1 0YH     -0.128000
     10 C10         5.6300    0.4170    1.4080 ca        1 0YH     -0.128000
     11 C11        -6.4630   -0.3900    1.4130 ca        1 0YH     -0.213000
     12 C12        -5.2290    0.2060    1.1720 ca        1 0YH     -0.073000
     13 C13        -7.3490    0.7280   -0.5620 ca        1 0YH     -0.168000
     14 C14        -2.4740    0.9190    0.1480 cc        1 0YH     -0.262300
     15 C15         2.2770   -2.0300   -0.7740 cc        1 0YH     -0.266300
     16 C16         6.5120    2.5580    0.6750 ca        1 0YH     -0.072300
     17 C17        -6.1080    1.3240   -0.7970 ca        1 0YH     -0.009300
     18 C18         4.8550    0.3300    0.2340 ca        1 0YH      0.003800
     19 C19        -7.5250   -0.1230    0.5410 ca        1 0YH      0.134100
     20 C20        -5.0370    1.0640    0.0800 ca        1 0YH     -0.158500
     21 C21        -3.7130    1.6410   -0.0990 cc        1 0YH      0.388800
     22 C22         3.4390   -2.8410   -0.4580 cc        1 0YH      0.332600
     23 C23        -1.4550    1.8510   -0.1180 cd        1 0YH     -0.006700
     24 C24         2.6600   -0.7110   -0.4730 cd        1 0YH      0.008300
     25 C25         0.5400    0.4670   -0.3070 c         1 0YH      0.758100
     26 C26         3.4860   -4.3300   -0.6140 c3        1 0YH     -0.076300
     27 N27        -2.1120    3.0400   -0.5760 na        1 0YH     -0.035600
     28 N28        -3.4390    2.9220   -0.4750 nd        1 0YH     -0.511800
     29 N29         4.4540   -2.0590   -0.0040 nd        1 0YH     -0.489800
     30 N30        -0.0660    1.7200   -0.0170 n         1 0YH     -0.430100
     31 N31         1.9330    0.4800   -0.5920 n         1 0YH     -0.423100
     32 N32         3.9970   -0.7920    0.0410 na        1 0YH      0.124300
     33 O33        -0.1210   -0.5880   -0.3160 o         1 0YH     -0.569100
     34 H1          7.4450    3.9770    1.9930 hc        1 0YH      0.048700
     35 H2          8.4280    3.4980    0.5480 hc        1 0YH      0.048700
     36 H3          7.0220    4.6250    0.3520 hc        1 0YH      0.048700
     37 H4         -5.9170    3.2800   -1.6490 hc        1 0YH      0.051700
     38 H5         -5.0160    1.9750   -2.5310 hc        1 0YH      0.051700
     39 H6         -6.8190    2.0920   -2.6800 hc        1 0YH      0.051700
     40 H7          2.2070   -4.2660   -2.3800 hc        1 0YH      0.039700
     41 H8          3.9860   -4.2490   -2.7350 hc        1 0YH      0.039700
     42 H9          3.1830   -5.7860   -2.2000 hc        1 0YH      0.039700
     43 H10         2.4000   -6.0560    0.1390 hc        1 0YH      0.039700
     44 H11         2.6220   -4.7220    1.3490 hc        1 0YH      0.039700
     45 H12         1.4080   -4.5400    0.0150 hc        1 0YH      0.039700
     46 H13         5.6490   -4.4680   -0.8680 hc        1 0YH      0.039700
     47 H14         5.0750   -4.6740    0.8410 hc        1 0YH      0.039700
     48 H15         4.8360   -6.0090   -0.3620 hc        1 0YH      0.039700
     49 H16       -10.0770   -1.8220    1.6730 h1        1 0YH      0.044033
     50 H17        -8.3370   -2.4200    1.6960 h1        1 0YH      0.044033
     51 H18        -8.8290   -0.9920    2.7390 h1        1 0YH      0.044033
     52 H19         5.8100    3.2570   -1.2530 ha        1 0YH      0.139500
     53 H20         7.0480    1.5870    2.5360 ha        1 0YH      0.139500
     54 H21         4.3870    1.2810   -1.6790 ha        1 0YH      0.152500
     55 H22         5.6010   -0.3910    2.1560 ha        1 0YH      0.152500
     56 H23        -6.5880   -1.0560    2.2770 ha        1 0YH      0.138000
     57 H24        -4.3870    0.0020    1.8520 ha        1 0YH      0.138000
     58 H25        -8.1980    0.9160   -1.2350 ha        1 0YH      0.149000
     59 H26        -2.3590   -0.1210    0.4360 ha        1 0YH      0.194000
     60 H27         1.3090   -2.3670   -1.1330 ha        1 0YH      0.192000
     61 H28        -1.7220    3.9530   -0.5110 hn        1 0YH      0.302700
     62 H29         0.4620    2.5460   -0.2000 hn        1 0YH      0.305500
     63 H30         2.4440    1.3120   -0.3700 hn        1 0YH      0.311500
     64 O34        -8.7960   -0.6490    0.6710 os        1 0YH     -0.327900
@<TRIPOS>BOND
     1    1   16 1   
     2    1   34 1   
     3    1   35 1   
     4    1   36 1   
     5    2   17 1   
     6    2   37 1   
     7    2   38 1   
     8    2   39 1   
     9    3   26 1   
    10    3   40 1   
    11    3   41 1   
    12    3   42 1   
    13    4   26 1   
    14    4   43 1   
    15    4   44 1   
    16    4   45 1   
    17    5   26 1   
    18    5   46 1   
    19    5   47 1   
    20    5   48 1   
    21    6   49 1   
    22    6   50 1   
    23    6   51 1   
    24    6   64 1   
    25    7    9 ar  
    26    7   16 ar  
    27    7   52 1   
    28    8   10 ar  
    29    8   16 ar  
    30    8   53 1   
    31    9   18 ar  
    32    9   54 1   
    33   10   18 ar  
    34   10   55 1   
    35   11   12 ar  
    36   11   19 ar  
    37   11   56 1   
    38   12   20 ar  
    39   12   57 1   
    40   13   17 ar  
    41   13   19 ar  
    42   13   58 1   
    43   14   21 1   
    44   14   23 2   
    45   14   59 1   
    46   15   22 1   
    47   15   24 2   
    48   15   60 1   
    49   17   20 ar  
    50   18   32 1   
    51   19   64 1   
    52   20   21 1   
    53   21   28 2   
    54   22   26 1   
    55   22   29 2   
    56   23   27 1   
    57   23   30 1   
    58   24   31 1   
    59   24   32 1   
    60   25   30 1   
    61   25   31 1   
    62   25   33 2   
    63   27   28 1   
    64   27   61 1   
    65   29   32 1   
    66   30   62 1   
    67   31   63 1   
@<TRIPOS>SUBSTRUCTURE
     1 0YH         1 TEMP              0 ****  ****    0 ROOT
