@<TRIPOS>MOLECULE
0YJ
   70    73     1     0     0
SMALL
bcc


@<TRIPOS>ATOM
      1 C1          2.5340    3.7690    0.9720 c3        1 0YJ     -0.089800
      2 C2          6.7870   -3.5130   -7.8780 c3        1 0YJ     -0.143600
      3 C3          8.6570   -4.9910   -8.6430 c3        1 0YJ     -0.143600
      4 C4          8.6890   -1.4870    5.8030 c3        1 0YJ     -0.098433
      5 C5          7.7150   -3.7760    5.6900 c3        1 0YJ     -0.098433
      6 C6          6.5360   -1.9870    6.9530 c3        1 0YJ     -0.098433
      7 C7          8.7910    0.5780   -1.3020 ca        1 0YJ     -0.138000
      8 C8          9.0310    0.1720   -2.6150 ca        1 0YJ      0.054000
      9 C9          8.1710   -0.2610   -0.3770 ca        1 0YJ     -0.019000
     10 C10         4.1740    1.8950    0.6770 ca        1 0YJ     -0.104000
     11 C11         3.2310    2.2980    2.8660 ca        1 0YJ     -0.104000
     12 C12         4.9250    0.8410    1.1800 ca        1 0YJ     -0.120500
     13 C13         3.9700    1.2400    3.3940 ca        1 0YJ     -0.120500
     14 C14         8.7110   -1.8150   -4.2610 cc        1 0YJ     -0.028200
     15 C15         6.2480   -2.7640    3.4170 cc        1 0YJ     -0.213300
     16 C16         3.3160    2.6350    1.5100 ca        1 0YJ      0.005700
     17 C17         4.8100    0.4960    2.5450 ca        1 0YJ     -0.108200
     18 C18         8.6140   -1.0980   -3.0100 ca        1 0YJ     -0.118800
     19 C19         7.7560   -1.5610   -0.7360 ca        1 0YJ     -0.147400
     20 C20         8.1160   -3.0620   -4.0670 cd        1 0YJ     -0.172300
     21 C21         6.6370   -1.9040    4.4880 cc        1 0YJ      0.373600
     22 C22         5.5630   -1.9070    2.4970 cd        1 0YJ     -0.295700
     23 C23         7.9440   -1.9870   -2.0760 ca        1 0YJ      0.029800
     24 C24         7.7680   -4.5990   -7.4730 c3        1 0YJ      0.144500
     25 C25         7.9170   -4.1890   -4.9850 c         1 0YJ      0.572300
     26 C26         5.7590   -2.6900    0.1760 c         1 0YJ      0.481100
     27 C27         7.3940   -2.2880    5.7280 c3        1 0YJ     -0.088300
     28 N28         7.6650   -3.1790   -2.7230 na        1 0YJ     -0.162400
     29 N29         6.1970   -0.6120    4.2300 nd        1 0YJ     -0.370800
     30 N30         7.2380   -2.4600    0.2930 n4        1 0YJ     -0.477200
     31 N31         4.8570   -2.2700    1.3040 n4        1 0YJ     -0.437200
     32 N32         8.6340   -4.1420   -6.2950 n4        1 0YJ     -0.669800
     33 N33         5.5760   -0.5990    3.0720 na        1 0YJ      0.266300
     34 O34         7.2280   -5.1730   -4.7390 o         1 0YJ     -0.406100
     35 O35         5.2950   -3.2330   -0.8150 o         1 0YJ     -0.345100
     36 H1          2.5060    3.7580   -0.1450 hc        1 0YJ      0.083367
     37 H2          1.4810    3.7410    1.3550 hc        1 0YJ      0.083367
     38 H3          2.9930    4.7370    1.3030 hc        1 0YJ      0.083367
     39 H4          7.3080   -2.6110   -8.2820 hc        1 0YJ      0.089200
     40 H5          6.1240   -3.2150   -7.0300 hc        1 0YJ      0.089200
     41 H6          6.1350   -3.9250   -8.6940 hc        1 0YJ      0.089200
     42 H7          9.2240   -4.1180   -9.0480 hc        1 0YJ      0.089200
     43 H8          9.3710   -5.8080   -8.3720 hc        1 0YJ      0.089200
     44 H9          7.9940   -5.3800   -9.4610 hc        1 0YJ      0.089200
     45 H10         8.4790   -0.3940    5.8860 hc        1 0YJ      0.058256
     46 H11         9.3220   -1.6730    4.9040 hc        1 0YJ      0.058256
     47 H12         9.2640   -1.8010    6.7110 hc        1 0YJ      0.058256
     48 H13         8.2840   -4.0540    6.6130 hc        1 0YJ      0.058256
     49 H14         6.7800   -4.3850    5.6630 hc        1 0YJ      0.058256
     50 H15         8.3450   -4.0260    4.8040 hc        1 0YJ      0.058256
     51 H16         6.3380   -0.8920    7.0420 hc        1 0YJ      0.058256
     52 H17         7.0780   -2.3210    7.8730 hc        1 0YJ      0.058256
     53 H18         5.5640   -2.5330    6.8980 hc        1 0YJ      0.058256
     54 H19         9.1140    1.5870   -0.9750 ha        1 0YJ      0.207000
     55 H20         9.5450    0.8460   -3.3280 ha        1 0YJ      0.203000
     56 H21         8.0320    0.1130    0.6550 ha        1 0YJ      0.176000
     57 H22         4.2620    2.1720   -0.3870 ha        1 0YJ      0.176500
     58 H23         2.5740    2.8840    3.5360 ha        1 0YJ      0.176500
     59 H24         5.6520    0.3390    0.5240 ha        1 0YJ      0.139500
     60 H25         3.8900    1.0070    4.4720 ha        1 0YJ      0.139500
     61 H26         9.1730   -1.4120   -5.1650 ha        1 0YJ      0.198000
     62 H27         6.4110   -3.8380    3.3510 ha        1 0YJ      0.202000
     63 H28         7.2050   -5.5110   -7.1020 hx        1 0YJ      0.131700
     64 H29         7.0400   -3.8920   -2.4290 hn        1 0YJ      0.332700
     65 H30         7.4790   -2.0750    1.2320 hn        1 0YJ      0.506800
     66 H31         4.2700   -1.4680    0.9680 hn        1 0YJ      0.523800
     67 H32         8.9750   -3.1940   -6.4860 hn        1 0YJ      0.469300
     68 H302        7.6990   -3.3840    0.1930 hn        1 0YJ      0.506800
     69 H312        4.2290   -3.0750    1.5150 hn        1 0YJ      0.523800
     70 H322        9.4450   -4.7780   -6.2410 hn        1 0YJ      0.469300
@<TRIPOS>BOND
     1    1   16 1   
     2    1   36 1   
     3    1   37 1   
     4    1   38 1   
     5    2   24 1   
     6    2   39 1   
     7    2   40 1   
     8    2   41 1   
     9    3   24 1   
    10    3   42 1   
    11    3   43 1   
    12    3   44 1   
    13    4   27 1   
    14    4   45 1   
    15    4   46 1   
    16    4   47 1   
    17    5   27 1   
    18    5   48 1   
    19    5   49 1   
    20    5   50 1   
    21    6   27 1   
    22    6   51 1   
    23    6   52 1   
    24    6   53 1   
    25    7    8 ar  
    26    7    9 ar  
    27    7   54 1   
    28    8   18 ar  
    29    8   55 1   
    30    9   19 ar  
    31    9   56 1   
    32   10   12 ar  
    33   10   16 ar  
    34   10   57 1   
    35   11   13 ar  
    36   11   16 ar  
    37   11   58 1   
    38   12   17 ar  
    39   12   59 1   
    40   13   17 ar  
    41   13   60 1   
    42   14   18 1   
    43   14   20 2   
    44   14   61 1   
    45   15   21 1   
    46   15   22 2   
    47   15   62 1   
    48   17   33 1   
    49   18   23 ar  
    50   19   23 ar  
    51   19   30 1   
    52   20   25 1   
    53   20   28 1   
    54   21   27 1   
    55   21   29 2   
    56   22   31 1   
    57   22   33 1   
    58   23   28 1   
    59   24   32 1   
    60   24   63 1   
    61   25   32 1   
    62   25   34 2   
    63   26   30 1   
    64   26   31 1   
    65   26   35 2   
    66   28   64 1   
    67   29   33 1   
    68   30   65 1   
    69   30   68 1   
    70   31   66 1   
    71   31   69 1   
    72   32   67 1   
    73   32   70 1   
@<TRIPOS>SUBSTRUCTURE
     1 0YJ         1 TEMP              0 ****  ****    0 ROOT
