@<TRIPOS>MOLECULE
0YJ
   68    71     1     0     0
SMALL
bcc


@<TRIPOS>ATOM
      1 C1         -0.5640   -2.2750    2.1480 c3        1 0YJ     -0.062800
      2 C2          9.0510   -1.1580   -6.4460 c3        1 0YJ     -0.132100
      3 C3          9.1170    0.6750   -4.7440 c3        1 0YJ     -0.132100
      4 C4          7.1020    3.1730    1.5420 c3        1 0YJ     -0.086767
      5 C5          8.8310    1.7790    2.6550 c3        1 0YJ     -0.086767
      6 C6          6.9230    2.6680    3.9710 c3        1 0YJ     -0.086767
      7 C7          8.5630   -7.5960   -0.3360 ca        1 0YJ     -0.130000
      8 C8          9.3980   -7.2660   -1.3890 ca        1 0YJ     -0.052000
      9 C9          7.6450   -6.6760    0.1980 ca        1 0YJ     -0.097000
     10 C10         1.6590   -2.1480    1.0060 ca        1 0YJ     -0.121500
     11 C11         1.3440   -0.9570    3.0790 ca        1 0YJ     -0.121500
     12 C12         2.9680   -1.6830    0.9260 ca        1 0YJ     -0.126500
     13 C13         2.6530   -0.4880    3.0220 ca        1 0YJ     -0.126500
     14 C14        10.0310   -5.2980   -2.9660 cc        1 0YJ      0.033800
     15 C15         7.0910   -0.4370    2.0630 cc        1 0YJ     -0.256300
     16 C16         0.8340   -1.7930    2.0790 ca        1 0YJ     -0.059300
     17 C17         3.4820   -0.8560    1.9440 ca        1 0YJ     -0.012200
     18 C18         9.3100   -5.9760   -1.9220 ca        1 0YJ     -0.132800
     19 C19         7.5020   -5.3780   -0.3160 ca        1 0YJ      0.025600
     20 C20         9.5080   -3.9950   -3.0470 cd        1 0YJ     -0.261300
     21 C21         6.5500    0.8860    2.3000 cc        1 0YJ      0.330600
     22 C22         5.9700   -1.2500    1.8150 cd        1 0YJ     -0.009700
     23 C23         8.3490   -5.0310   -1.4030 ca        1 0YJ      0.011800
     24 C24         9.5840   -0.7340   -5.0850 c3        1 0YJ      0.132500
     25 C25         9.9650   -2.9990   -3.9830 c         1 0YJ      0.589300
     26 C26         6.8030   -3.2120    0.6530 c         1 0YJ      0.770100
     27 C27         7.3460    2.1170    2.6140 c3        1 0YJ     -0.076300
     28 N28         8.4080   -3.8450   -2.1530 na        1 0YJ     -0.156400
     29 N29         5.1920    0.8630    2.2060 nd        1 0YJ     -0.480800
     30 N30         6.4990   -4.5090    0.1680 n         1 0YJ     -0.449100
     31 N31         5.9060   -2.6240    1.5620 n         1 0YJ     -0.422100
     32 N32         9.1670   -1.7050   -4.0050 n4        1 0YJ     -0.679800
     33 N33         4.8270   -0.3820    1.8540 na        1 0YJ      0.143300
     34 O34        10.9180   -3.0760   -4.7500 o         1 0YJ     -0.441100
     35 O35         7.8320   -2.5990    0.2740 o         1 0YJ     -0.653100
     36 H1         -1.2550   -1.4910    1.7460 hc        1 0YJ      0.054367
     37 H2         -0.8590   -2.4900    3.2050 hc        1 0YJ      0.054367
     38 H3         -0.7010   -3.2060    1.5460 hc        1 0YJ      0.054367
     39 H4          7.9350   -1.1450   -6.4730 hc        1 0YJ      0.076700
     40 H5          9.4290   -0.4340   -7.2110 hc        1 0YJ      0.076700
     41 H6          9.4180   -2.1780   -6.7220 hc        1 0YJ      0.076700
     42 H7          9.4960    1.3670   -5.5380 hc        1 0YJ      0.076700
     43 H8          9.5240    1.0200   -3.7620 hc        1 0YJ      0.076700
     44 H9          8.0030    0.7450   -4.7250 hc        1 0YJ      0.076700
     45 H10         6.0270    3.4740    1.5240 hc        1 0YJ      0.041256
     46 H11         7.7220    4.0770    1.7560 hc        1 0YJ      0.041256
     47 H12         7.3800    2.7780    0.5360 hc        1 0YJ      0.041256
     48 H13         9.1710    1.3840    1.6690 hc        1 0YJ      0.041256
     49 H14         9.4180    2.6990    2.8930 hc        1 0YJ      0.041256
     50 H15         9.0360    1.0130    3.4410 hc        1 0YJ      0.041256
     51 H16         7.0590    1.8950    4.7640 hc        1 0YJ      0.041256
     52 H17         5.8510    2.9790    3.9520 hc        1 0YJ      0.041256
     53 H18         7.5470    3.5580    4.2280 hc        1 0YJ      0.041256
     54 H19         8.6150   -8.6040    0.1100 ha        1 0YJ      0.161000
     55 H20        10.1160   -7.9910   -1.8000 ha        1 0YJ      0.161000
     56 H21         7.0200   -7.0020    1.0470 ha        1 0YJ      0.153000
     57 H22         1.2640   -2.7930    0.2060 ha        1 0YJ      0.145000
     58 H23         0.7010   -0.6630    3.9240 ha        1 0YJ      0.145000
     59 H24         3.5790   -1.9450    0.0490 ha        1 0YJ      0.146500
     60 H25         3.0270    0.1770    3.8170 ha        1 0YJ      0.146500
     61 H26        10.8240   -5.7160   -3.5880 ha        1 0YJ      0.190000
     62 H27         8.1330   -0.7410    2.0610 ha        1 0YJ      0.184000
     63 H28        10.7180   -0.7580   -5.1090 hx        1 0YJ      0.123700
     64 H29         8.2470   -2.9780   -1.6810 hn        1 0YJ      0.306700
     65 H30         5.7540   -4.9960    0.6260 hn        1 0YJ      0.315500
     66 H31         5.0260   -3.0630    1.7400 hn        1 0YJ      0.331500
     67 H32         8.1770   -1.9390   -4.1370 hn        1 0YJ      0.457300
     68 H322        9.2730   -1.2460   -3.0930 hn        1 0YJ      0.457300
@<TRIPOS>BOND
     1    1   16 1   
     2    1   36 1   
     3    1   37 1   
     4    1   38 1   
     5    2   24 1   
     6    2   39 1   
     7    2   40 1   
     8    2   41 1   
     9    3   24 1   
    10    3   42 1   
    11    3   43 1   
    12    3   44 1   
    13    4   27 1   
    14    4   45 1   
    15    4   46 1   
    16    4   47 1   
    17    5   27 1   
    18    5   48 1   
    19    5   49 1   
    20    5   50 1   
    21    6   27 1   
    22    6   51 1   
    23    6   52 1   
    24    6   53 1   
    25    7    8 ar  
    26    7    9 ar  
    27    7   54 1   
    28    8   18 ar  
    29    8   55 1   
    30    9   19 ar  
    31    9   56 1   
    32   10   12 ar  
    33   10   16 ar  
    34   10   57 1   
    35   11   13 ar  
    36   11   16 ar  
    37   11   58 1   
    38   12   17 ar  
    39   12   59 1   
    40   13   17 ar  
    41   13   60 1   
    42   14   18 1   
    43   14   20 2   
    44   14   61 1   
    45   15   21 1   
    46   15   22 2   
    47   15   62 1   
    48   17   33 1   
    49   18   23 ar  
    50   19   23 ar  
    51   19   30 1   
    52   20   25 1   
    53   20   28 1   
    54   21   27 1   
    55   21   29 2   
    56   22   31 1   
    57   22   33 1   
    58   23   28 1   
    59   24   32 1   
    60   24   63 1   
    61   25   32 1   
    62   25   34 2   
    63   26   30 1   
    64   26   31 1   
    65   26   35 2   
    66   28   64 1   
    67   29   33 1   
    68   30   65 1   
    69   31   66 1   
    70   32   67 1   
    71   32   68 1   
@<TRIPOS>SUBSTRUCTURE
     1 0YJ         1 TEMP              0 ****  ****    0 ROOT
