@<TRIPOS>MOLECULE
0YJ
   68    71     1     0     0
SMALL
bcc


@<TRIPOS>ATOM
      1 C1         -0.5850   -2.1990    2.1160 c3        1 0YJ     -0.062800
      2 C2          9.0880   -1.1610   -6.4310 c3        1 0YJ     -0.132100
      3 C3          9.1700    0.6630   -4.7200 c3        1 0YJ     -0.132100
      4 C4          7.1500    3.1550    1.5670 c3        1 0YJ     -0.086767
      5 C5          8.8580    1.7330    2.6790 c3        1 0YJ     -0.086767
      6 C6          6.9570    2.6380    3.9940 c3        1 0YJ     -0.086767
      7 C7          8.4830   -7.6240   -0.3590 ca        1 0YJ     -0.130000
      8 C8          9.3280   -7.2980   -1.4060 ca        1 0YJ     -0.052000
      9 C9          7.5740   -6.6940    0.1750 ca        1 0YJ     -0.097000
     10 C10         1.6430   -2.0940    0.9820 ca        1 0YJ     -0.121500
     11 C11         1.3360   -0.9110    3.0610 ca        1 0YJ     -0.121500
     12 C12         2.9580   -1.6450    0.9090 ca        1 0YJ     -0.126500
     13 C13         2.6510   -0.4580    3.0120 ca        1 0YJ     -0.126500
     14 C14         9.9950   -5.3310   -2.9690 cc        1 0YJ      0.033800
     15 C15         7.0930   -0.4580    2.0690 cc        1 0YJ     -0.256300
     16 C16         0.8190   -1.7350    2.0550 ca        1 0YJ     -0.059300
     17 C17         3.4790   -0.8300    1.9340 ca        1 0YJ     -0.012200
     18 C18         9.2600   -6.0040   -1.9330 ca        1 0YJ     -0.132800
     19 C19         7.4510   -5.3910   -0.3330 ca        1 0YJ      0.025600
     20 C20         9.4910   -4.0210   -3.0450 cd        1 0YJ     -0.261300
     21 C21         6.5670    0.8710    2.3120 cc        1 0YJ      0.330600
     22 C22         5.9620   -1.2550    1.8130 cd        1 0YJ     -0.009700
     23 C23         8.3080   -5.0500   -1.4130 ca        1 0YJ      0.011800
     24 C24         9.6200   -0.7500   -5.0660 c3        1 0YJ      0.132500
     25 C25         9.9650   -3.0260   -3.9730 c         1 0YJ      0.589300
     26 C26         6.7750   -3.2210    0.6440 c         1 0YJ      0.770100
     27 C27         7.3770    2.0900    2.6340 c3        1 0YJ     -0.076300
     28 N28         8.3870   -3.8610   -2.1560 na        1 0YJ     -0.156400
     29 N29         5.2090    0.8650    2.2120 nd        1 0YJ     -0.480800
     30 N30         6.4570   -4.5120    0.1500 ns        1 0YJ     -0.449100
     31 N31         5.8810   -2.6270    1.5510 ns        1 0YJ     -0.422100
     32 N32         9.1850   -1.7210   -3.9930 ny        1 0YJ     -0.679800
     33 N33         4.8300   -0.3730    1.8520 na        1 0YJ      0.143300
     34 O34        10.9210   -3.1110   -4.7350 o         1 0YJ     -0.441100
     35 O35         7.8140   -2.6210    0.2740 o         1 0YJ     -0.653100
     36 H1         -1.2650   -1.4050    1.7150 hc        1 0YJ      0.054367
     37 H2         -0.7330   -3.1250    1.5070 hc        1 0YJ      0.054367
     38 H3         -0.8870   -2.4160    3.1700 hc        1 0YJ      0.054367
     39 H4          9.4420   -2.1840   -6.7100 hc        1 0YJ      0.076700
     40 H5          7.9710   -1.1320   -6.4640 hc        1 0YJ      0.076700
     41 H6          9.4790   -0.4380   -7.1910 hc        1 0YJ      0.076700
     42 H7          9.5770    0.9980   -3.7350 hc        1 0YJ      0.076700
     43 H8          8.0560    0.7480   -4.7060 hc        1 0YJ      0.076700
     44 H9          9.5620    1.3540   -5.5090 hc        1 0YJ      0.076700
     45 H10         7.4270    2.7620    0.5610 hc        1 0YJ      0.041256
     46 H11         7.7800    4.0500    1.7890 hc        1 0YJ      0.041256
     47 H12         6.0790    3.4690    1.5490 hc        1 0YJ      0.041256
     48 H13         9.0510    0.9610    3.4610 hc        1 0YJ      0.041256
     49 H14         9.4560    2.6440    2.9230 hc        1 0YJ      0.041256
     50 H15         9.1960    1.3390    1.6910 hc        1 0YJ      0.041256
     51 H16         5.8890    2.9630    3.9730 hc        1 0YJ      0.041256
     52 H17         7.5910    3.5190    4.2570 hc        1 0YJ      0.041256
     53 H18         7.0810    1.8590    4.7830 hc        1 0YJ      0.041256
     54 H19         8.5190   -8.6340    0.0810 ha        1 0YJ      0.161000
     55 H20        10.0380   -8.0310   -1.8180 ha        1 0YJ      0.161000
     56 H21         6.9400   -7.0170    1.0180 ha        1 0YJ      0.153000
     57 H22         1.2430   -2.7290    0.1770 ha        1 0YJ      0.145000
     58 H23         0.6940   -0.6140    3.9060 ha        1 0YJ      0.145000
     59 H24         3.5690   -1.9090    0.0330 ha        1 0YJ      0.146500
     60 H25         3.0300    0.1970    3.8120 ha        1 0YJ      0.146500
     61 H26        10.7870   -5.7560   -3.5880 ha        1 0YJ      0.190000
     62 H27         8.1300   -0.7750    2.0690 ha        1 0YJ      0.184000
     63 H28        10.7530   -0.7890   -5.0850 hx        1 0YJ      0.123700
     64 H29         8.2350   -2.9940   -1.6810 hn        1 0YJ      0.306700
     65 H30         5.7030   -4.9910    0.6020 hn        1 0YJ      0.315500
     66 H31         4.9950   -3.0550    1.7230 hn        1 0YJ      0.331500
     67 H32         8.1920   -1.9420   -4.1300 hn        1 0YJ      0.457300
     68 H322        9.2920   -1.2680   -3.0780 hn        1 0YJ      0.457300
@<TRIPOS>BOND
     1    1   16 1   
     2    1   36 1   
     3    1   37 1   
     4    1   38 1   
     5    2   24 1   
     6    2   39 1   
     7    2   40 1   
     8    2   41 1   
     9    3   24 1   
    10    3   42 1   
    11    3   43 1   
    12    3   44 1   
    13    4   27 1   
    14    4   45 1   
    15    4   46 1   
    16    4   47 1   
    17    5   27 1   
    18    5   48 1   
    19    5   49 1   
    20    5   50 1   
    21    6   27 1   
    22    6   51 1   
    23    6   52 1   
    24    6   53 1   
    25    7    8 ar  
    26    7    9 ar  
    27    7   54 1   
    28    8   18 ar  
    29    8   55 1   
    30    9   19 ar  
    31    9   56 1   
    32   10   12 ar  
    33   10   16 ar  
    34   10   57 1   
    35   11   13 ar  
    36   11   16 ar  
    37   11   58 1   
    38   12   17 ar  
    39   12   59 1   
    40   13   17 ar  
    41   13   60 1   
    42   14   18 1   
    43   14   20 2   
    44   14   61 1   
    45   15   21 1   
    46   15   22 2   
    47   15   62 1   
    48   17   33 1   
    49   18   23 ar  
    50   19   23 ar  
    51   19   30 1   
    52   20   25 1   
    53   20   28 1   
    54   21   27 1   
    55   21   29 2   
    56   22   31 1   
    57   22   33 1   
    58   23   28 1   
    59   24   32 1   
    60   24   63 1   
    61   25   32 1   
    62   25   34 2   
    63   26   30 1   
    64   26   31 1   
    65   26   35 2   
    66   28   64 1   
    67   29   33 1   
    68   30   65 1   
    69   31   66 1   
    70   32   67 1   
    71   32   68 1   
@<TRIPOS>SUBSTRUCTURE
     1 0YJ         1 TEMP              0 ****  ****    0 ROOT
