@<TRIPOS>MOLECULE
0YJ
   67    55     1     0     0
SMALL
bcc


@<TRIPOS>ATOM
      1 C1         -7.5080    4.0040    0.9710 c3        1 0YJ     -0.182000
      2 C2          3.3430   -5.8500   -7.1010 c3        1 0YJ     -0.229000
      3 C3          2.3950   -7.7830   -5.8860 c3        1 0YJ     -0.229000
      4 C4          1.6230    5.2250    3.4340 c3        1 0YJ     -0.202667
      5 C5          0.8480    3.8540    5.3670 c3        1 0YJ     -0.202667
      6 C6         -0.5310    5.7890    4.5990 c3        1 0YJ     -0.202667
      7 C7          3.7110   -2.6440    0.9870 c1        1 0YJ     -0.120000
      8 C8          3.9130   -3.5170   -0.0790 c1        1 0YJ     -0.087000
      9 C9          2.5610   -1.8560    1.0350 c1        1 0YJ     -0.120000
     10 C10        -5.5930    2.8090    2.1330 c1        1 0YJ     -0.124000
     11 C11        -5.0790    4.3000    0.3150 c1        1 0YJ     -0.120000
     12 C12        -4.2380    2.4950    2.2600 c1        1 0YJ     -0.153000
     13 C13        -3.7240    3.9870    0.4410 c1        1 0YJ     -0.120000
     14 C14         2.8910   -4.3820   -2.2540 c1        1 0YJ     -0.152000
     15 C15         0.1130    2.5390    2.5950 c1        1 0YJ     -0.205000
     16 C16        -6.0100    3.7120    1.1590 c1        1 0YJ     -0.065000
     17 C17        -3.3060    3.0840    1.4140 c1        1 0YJ      0.051000
     18 C18         2.9540   -3.6050   -1.1120 c1        1 0YJ     -0.085000
     19 C19         1.6170   -1.9410    0.0200 c1        1 0YJ      0.041000
     20 C20         1.7110   -4.0780   -2.9100 c1        1 0YJ     -0.084000
     21 C21        -0.3840    3.6870    3.1690 c1        1 0YJ     -0.022500
     22 C22        -0.8260    2.0700    1.7030 c1        1 0YJ     -0.022500
     23 C23         1.8220   -2.8280   -1.0640 c1        1 0YJ     -0.003000
     24 C24         2.2970   -6.2890   -6.0970 c3        1 0YJ      0.021000
     25 C25         1.5080   -4.7390   -4.3090 c1        1 0YJ      0.369000
     26 C26         0.4040    0.0650    0.8530 c1        1 0YJ      0.390000
     27 C27         0.3960    4.6410    4.1520 c2        1 0YJ      0.018000
     28 N28         1.0520   -3.1230   -2.1790 n1        1 0YJ     -0.176000
     29 N29        -1.6160    3.9240    2.6360 n2        1 0YJ     -0.088000
     30 N30         0.4820   -1.0750   -0.0310 n3        1 0YJ     -0.322000
     31 N31        -0.7440    0.9330    0.8100 n1        1 0YJ     -0.282000
     32 N32         2.5210   -5.6120   -4.8470 n3        1 0YJ     -0.368000
     33 N33        -1.8900    2.9210    1.7270 n2        1 0YJ     -0.088000
     34 O34         0.5190   -4.4740   -4.9690 o         1 0YJ     -0.386000
     35 O35         1.3010    0.2870    1.6370 o         1 0YJ     -0.349000
     36 H1         -7.7700    3.7860    0.0610 hc        1 0YJ      0.087667
     37 H2         -7.6790    4.9480    1.1390 hc        1 0YJ      0.087667
     38 H3         -8.0270    3.4620    1.5990 hc        1 0YJ      0.087667
     39 H4          3.2610   -6.3900   -7.9180 hc        1 0YJ      0.081500
     40 H5          3.2090   -4.8980   -7.3210 hc        1 0YJ      0.081500
     41 H6          4.2410   -5.9750   -6.7150 hc        1 0YJ      0.081500
     42 H7          2.2730   -8.2400   -6.7370 hc        1 0YJ      0.081500
     43 H8          1.6950   -8.0720   -5.2530 hc        1 0YJ      0.081500
     44 H9          3.2770   -8.0030   -5.5200 hc        1 0YJ      0.081500
     45 H10         2.1990    4.4930    3.1200 hc        1 0YJ      0.078667
     46 H11         1.3300    5.7570    2.6730 hc        1 0YJ      0.078667
     47 H12         2.1260    5.7930    4.0560 hc        1 0YJ      0.078667
     48 H13         1.7100    3.4430    5.1840 hc        1 0YJ      0.078667
     49 H14         0.9300    4.4560    6.1330 hc        1 0YJ      0.078667
     50 H15         0.1900    3.1580    5.5680 hc        1 0YJ      0.078667
     51 H16        -0.7290    6.3670    3.8320 hc        1 0YJ      0.078667
     52 H17        -1.3660    5.4160    4.9520 hc        1 0YJ      0.078667
     53 H18        -0.0810    6.3200    5.3060 hc        1 0YJ      0.078667
     54 H19         4.3820   -2.5820    1.7090 ha        1 0YJ      0.149500
     55 H20         4.7220   -4.0710   -0.1120 ha        1 0YJ      0.138000
     56 H21         2.4180   -1.2380    1.7890 ha        1 0YJ      0.149500
     57 H22        -6.2540    2.3900    2.7330 ha        1 0YJ      0.138000
     58 H23        -5.3720    4.9310   -0.3650 ha        1 0YJ      0.149500
     59 H24        -3.9450    1.8610    2.9430 ha        1 0YJ      0.147000
     60 H25        -3.0710    4.4010   -0.1530 ha        1 0YJ      0.149500
     61 H26         3.5280   -5.0760   -2.5130 DU        1 0YJ      0.204667
     62 H27         0.9950    2.1480    2.7610 DU        1 0YJ      0.204667
     63 H28         1.4000   -6.0650   -6.4370 h1        1 0YJ      0.130000
     64 H29         0.2450   -2.7450   -2.3900 DU        1 0YJ      0.204667
     65 H30        -0.2090   -1.2670   -0.5840 hn        1 0YJ      0.222000
     66 H31        -1.4400    0.7420    0.2490 hn        1 0YJ      0.223000
     67 H32         3.2770   -5.7800   -4.3680 hn        1 0YJ      0.227000
@<TRIPOS>BOND
     1    1   16 1   
     2    1   36 1   
     3    1   37 1   
     4    1   38 1   
     5    2   24 1   
     6    2   39 1   
     7    2   40 1   
     8    2   41 1   
     9    3   24 1   
    10    3   42 1   
    11    3   43 1   
    12    3   44 1   
    13    4   27 1   
    14    4   45 1   
    15    4   46 1   
    16    4   47 1   
    17    5   27 1   
    18    5   48 1   
    19    5   49 1   
    20    5   50 1   
    21    6   27 1   
    22    6   51 1   
    23    6   52 1   
    24    6   53 1   
    25    7    9 1   
    26    7   54 1   
    27    8   18 1   
    28    8   55 1   
    29    9   56 1   
    30   10   16 1   
    31   10   57 1   
    32   11   13 1   
    33   11   58 1   
    34   12   17 1   
    35   12   59 1   
    36   13   60 1   
    37   14   18 1   
    38   14   20 1   
    39   15   21 1   
    40   15   22 1   
    41   19   23 1   
    42   19   30 1   
    43   20   28 1   
    44   21   29 1   
    45   22   33 1   
    46   24   32 1   
    47   24   63 1   
    48   25   32 1   
    49   25   34 1   
    50   26   30 1   
    51   26   35 1   
    52   29   33 1   
    53   30   65 1   
    54   31   66 1   
    55   32   67 1   
@<TRIPOS>SUBSTRUCTURE
     1 0YJ         1 TEMP              0 ****  ****    0 ROOT
