@<TRIPOS>MOLECULE
0YJ
   67    70     1     0     0
SMALL
bcc


@<TRIPOS>ATOM
      1 C1          2.2680    5.9540   -0.0240 c3        1 0YJ     -0.056800
      2 C2         -7.2500    3.3010    0.6550 c3        1 0YJ     -0.111100
      3 C3         -5.7080    4.0250   -1.1590 c3        1 0YJ     -0.111100
      4 C4          6.4660   -2.1820   -2.2190 c3        1 0YJ     -0.086767
      5 C5          5.8210   -3.6570   -0.3280 c3        1 0YJ     -0.086767
      6 C6          7.3220   -1.7200    0.0730 c3        1 0YJ     -0.086767
      7 C7         -2.6100   -4.3380    1.3050 ca        1 0YJ     -0.138000
      8 C8         -3.9240   -3.9720    1.0550 ca        1 0YJ     -0.084000
      9 C9         -1.5480   -3.4310    1.1750 ca        1 0YJ     -0.110000
     10 C10         1.7790    3.6150   -0.7640 ca        1 0YJ     -0.123000
     11 C11         3.8480    4.0630    0.3880 ca        1 0YJ     -0.123000
     12 C12         2.1150    2.2690   -0.8650 ca        1 0YJ     -0.129500
     13 C13         4.1990    2.7190    0.3060 ca        1 0YJ     -0.129500
     14 C14        -5.3920   -1.9530    0.2880 cc        1 0YJ     -0.085200
     15 C15         3.6680   -1.7940    0.0740 cc        1 0YJ     -0.267300
     16 C16         2.6360    4.5250   -0.1360 ca        1 0YJ     -0.073300
     17 C17         3.3270    1.8030   -0.3160 ca        1 0YJ      0.007800
     18 C18        -4.1820   -2.6640    0.6460 ca        1 0YJ     -0.096800
     19 C19        -1.7610   -2.1040    0.7780 ca        1 0YJ      0.030600
     20 C20        -5.0220   -0.6560   -0.0480 cd        1 0YJ     -0.155300
     21 C21         4.9380   -1.3490   -0.4660 cc        1 0YJ      0.335600
     22 C22         2.8690   -0.6380    0.1310 cd        1 0YJ      0.019300
     23 C23        -3.1010   -1.7250    0.4990 ca        1 0YJ     -0.061200
     24 C24        -6.4600    2.8300   -0.5690 c3        1 0YJ      0.087700
     25 C25        -5.9480    0.4130   -0.4940 c         1 0YJ      0.685300
     26 C26         0.6020   -1.4880    0.4120 c         1 0YJ      0.763100
     27 C27         6.1280   -2.2210   -0.7320 c3        1 0YJ     -0.074300
     28 N28        -3.6270   -0.4670    0.1470 na        1 0YJ     -0.170400
     29 N29         4.9070   -0.0110   -0.7080 nd        1 0YJ     -0.499800
     30 N30        -0.7460   -1.1320    0.6350 n         1 0YJ     -0.463100
     31 N31         1.5740   -0.4730    0.6260 n         1 0YJ     -0.439100
     32 N32        -5.5630    1.7270   -0.2810 n         1 0YJ     -0.558900
     33 N33         3.6630    0.4230   -0.4240 na        1 0YJ      0.127300
     34 O34        -7.0140    0.1220   -1.0720 o         1 0YJ     -0.588100
     35 O35         0.9380   -2.6340    0.0520 o         1 0YJ     -0.587100
     36 H1          1.8070    6.1520    0.9770 hc        1 0YJ      0.048033
     37 H2          3.1700    6.6060   -0.1280 hc        1 0YJ      0.048033
     38 H3          1.5310    6.2440   -0.8130 hc        1 0YJ      0.048033
     39 H4         -7.9430    4.1200    0.3470 hc        1 0YJ      0.041700
     40 H5         -7.8560    2.4650    1.0800 hc        1 0YJ      0.041700
     41 H6         -6.5680    3.6910    1.4480 hc        1 0YJ      0.041700
     42 H7         -4.9800    4.4440   -0.4250 hc        1 0YJ      0.041700
     43 H8         -5.1570    3.7330   -2.0850 hc        1 0YJ      0.041700
     44 H9         -6.4470    4.8190   -1.4200 hc        1 0YJ      0.041700
     45 H10         5.5900   -2.5160   -2.8240 hc        1 0YJ      0.039700
     46 H11         6.7460   -1.1480   -2.5310 hc        1 0YJ      0.039700
     47 H12         7.3270   -2.8630   -2.4270 hc        1 0YJ      0.039700
     48 H13         6.7120   -4.3010   -0.5240 hc        1 0YJ      0.039700
     49 H14         5.5720   -3.7120    0.7590 hc        1 0YJ      0.039700
     50 H15         4.9580   -4.0530   -0.9160 hc        1 0YJ      0.039700
     51 H16         7.6050   -0.6880   -0.2450 hc        1 0YJ      0.039700
     52 H17         7.0780   -1.7080    1.1610 hc        1 0YJ      0.039700
     53 H18         8.1960   -2.3950   -0.0910 hc        1 0YJ      0.039700
     54 H19        -2.3800   -5.3690    1.6170 ha        1 0YJ      0.139000
     55 H20        -4.7470   -4.6910    1.1710 ha        1 0YJ      0.142000
     56 H21        -0.5210   -3.7850    1.3700 ha        1 0YJ      0.164000
     57 H22         0.8310    3.9690   -1.1990 ha        1 0YJ      0.138000
     58 H23         4.5370    4.7730    0.8720 ha        1 0YJ      0.138000
     59 H24         1.4410    1.5830   -1.4020 ha        1 0YJ      0.150000
     60 H25         5.1630    2.3820    0.7180 ha        1 0YJ      0.150000
     61 H26        -6.4020   -2.3590    0.2830 ha        1 0YJ      0.175000
     62 H27         3.3750   -2.8030    0.3470 ha        1 0YJ      0.191000
     63 H28        -7.2020    2.4610   -1.3430 h1        1 0YJ      0.090700
     64 H29        -3.1180    0.1420   -0.4490 hn        1 0YJ      0.284700
     65 H30        -0.9290   -0.2850    1.1300 hn        1 0YJ      0.306500
     66 H31         1.2640    0.4710    0.7240 hn        1 0YJ      0.314500
     67 H32        -4.8560    1.9110    0.3910 hn        1 0YJ      0.303500
@<TRIPOS>BOND
     1    1   16 1   
     2    1   36 1   
     3    1   37 1   
     4    1   38 1   
     5    2   24 1   
     6    2   39 1   
     7    2   40 1   
     8    2   41 1   
     9    3   24 1   
    10    3   42 1   
    11    3   43 1   
    12    3   44 1   
    13    4   27 1   
    14    4   45 1   
    15    4   46 1   
    16    4   47 1   
    17    5   27 1   
    18    5   48 1   
    19    5   49 1   
    20    5   50 1   
    21    6   27 1   
    22    6   51 1   
    23    6   52 1   
    24    6   53 1   
    25    7    8 ar  
    26    7    9 ar  
    27    7   54 1   
    28    8   18 ar  
    29    8   55 1   
    30    9   19 ar  
    31    9   56 1   
    32   10   12 ar  
    33   10   16 ar  
    34   10   57 1   
    35   11   13 ar  
    36   11   16 ar  
    37   11   58 1   
    38   12   17 ar  
    39   12   59 1   
    40   13   17 ar  
    41   13   60 1   
    42   14   18 1   
    43   14   20 2   
    44   14   61 1   
    45   15   21 1   
    46   15   22 2   
    47   15   62 1   
    48   17   33 1   
    49   18   23 ar  
    50   19   23 ar  
    51   19   30 1   
    52   20   25 1   
    53   20   28 1   
    54   21   27 1   
    55   21   29 2   
    56   22   31 1   
    57   22   33 1   
    58   23   28 1   
    59   24   32 1   
    60   24   63 1   
    61   25   32 1   
    62   25   34 2   
    63   26   30 1   
    64   26   31 1   
    65   26   35 2   
    66   28   64 1   
    67   29   33 1   
    68   30   65 1   
    69   31   66 1   
    70   32   67 1   
@<TRIPOS>SUBSTRUCTURE
     1 0YJ         1 TEMP              0 ****  ****    0 ROOT
