@<TRIPOS>MOLECULE
0YL
   53    56     1     0     0
SMALL
bcc


@<TRIPOS>ATOM
      1 O4         -2.7180   -4.3620   -1.6440 o         1 0YL     -0.829300
      2 N1          2.3290   -3.0360    1.6800 nc        1 0YL     -0.385300
      3 O1          1.1590   -3.6230    1.5690 os        1 0YL     -0.134100
      4 C25        -3.0580   -3.3270   -1.0140 c         1 0YL      0.916600
      5 C17        -1.9400   -2.5290   -0.2710 c3        1 0YL     -0.175700
      6 C16        -0.9680   -3.5270    0.3380 c3        1 0YL     -0.116700
      7 C14         1.1160   -1.9190    0.0860 cd        1 0YL     -0.358600
      8 C13         2.3820   -1.9920    0.8170 cd        1 0YL      0.348800
      9 C12         3.4960   -1.0770    0.6430 ca        1 0YL     -0.100500
     10 C11         3.2800    0.1670    0.0290 ca        1 0YL     -0.109000
     11 C10         4.3350    1.0560   -0.1450 ca        1 0YL     -0.125000
     12 C7          5.6270    0.7250    0.2880 cp        1 0YL     -0.056000
     13 C8          5.8410   -0.5180    0.9000 ca        1 0YL     -0.125000
     14 C9          4.7870   -1.4100    1.0780 ca        1 0YL     -0.109000
     15 C15         0.3640   -2.9620    0.5900 cc        1 0YL      0.282000
     16 C1          9.0500    2.1050   -0.4300 ca        1 0YL      0.017400
     17 C2          8.0020    1.1980   -0.2630 ca        1 0YL     -0.118000
     18 C3          8.8550    3.4750   -0.2330 ca        1 0YL     -0.133000
     19 C4          7.5910    3.9330    0.1350 ca        1 0YL     -0.124000
     20 C5          6.5360    3.0390    0.3040 ca        1 0YL     -0.121000
     21 C6          6.7320    1.6640    0.1080 cp        1 0YL     -0.010000
     22 C18        -2.5100   -1.5660    0.7530 c3        1 0YL     -0.453600
     23 P1         -2.1920   -0.0150    0.3680 py        1 0YL      1.578400
     24 O2         -1.7400    0.6580    1.7870 oh        1 0YL     -0.818400
     25 O3         -1.0230    0.2950   -0.4650 o         1 0YL     -0.909300
     26 C19        -3.5670    0.7540   -0.0200 ca        1 0YL     -0.440500
     27 C20        -4.5260    0.1590   -0.8350 ca        1 0YL     -0.035500
     28 C21        -5.6760    0.8620   -1.2040 ca        1 0YL     -0.137500
     29 C22        -5.8640    2.1680   -0.7510 ca        1 0YL      0.022100
     30 BR1        -7.4050    3.1240   -1.2410 br        1 0YL     -0.116100
     31 C23        -4.9080    2.7730    0.0740 ca        1 0YL     -0.137500
     32 C24        -3.7680    2.0610    0.4300 ca        1 0YL     -0.035500
     33 H10        -1.3990   -1.9460   -1.0710 hc        1 0YL      0.067700
     34 H8         -1.3880   -3.9490    1.2900 hc        1 0YL      0.089200
     35 H9         -0.8570   -4.3900   -0.3870 hc        1 0YL      0.089200
     36 H7          0.8380   -1.1810   -0.6670 ha        1 0YL      0.216000
     37 H17         2.2670    0.4390   -0.3160 ha        1 0YL      0.158500
     38 H18         4.1540    2.0250   -0.6350 ha        1 0YL      0.131500
     39 H5          6.8480   -0.7880    1.2510 ha        1 0YL      0.131500
     40 H6          4.9710   -2.3800    1.5640 ha        1 0YL      0.158500
     41 H3          7.4270    5.0090    0.2930 ha        1 0YL      0.133000
     42 H4          5.5430    3.4090    0.6010 ha        1 0YL      0.143000
     43 H12        -3.6150   -1.7950    0.8270 hc        1 0YL      0.123700
     44 H11        -2.1090   -1.8210    1.7710 hc        1 0YL      0.123700
     45 H31        -0.8470    0.9870    1.7860 ho        1 0YL      0.458000
     46 H13        -4.3870   -0.8940   -1.1760 ha        1 0YL      0.188500
     47 H14        -6.4230    0.3710   -1.8470 ha        1 0YL      0.146500
     48 H15        -5.0520    3.8000    0.4390 ha        1 0YL      0.146500
     49 H16        -3.0050    2.5130    1.0850 ha        1 0YL      0.188500
     50 OXT        -4.2420   -2.8780   -0.9730 o         1 0YL     -0.829300
     51 H1          8.1630    0.1220   -0.4290 ha        1 0YL      0.152000
     52 CL1        10.5910    1.5330   -0.8820 cl        1 0YL     -0.109400
     53 H2          9.6850    4.1830   -0.3670 ha        1 0YL      0.141000
@<TRIPOS>BOND
     1    1    4 1   
     2    2    3 1   
     3    2    8 2   
     4    3   15 1   
     5    4    5 1   
     6    4   50 1   
     7    5    6 1   
     8    5   22 1   
     9    5   33 1   
    10    6   15 1   
    11    6   34 1   
    12    6   35 1   
    13    7    8 1   
    14    7   15 2   
    15    7   36 1   
    16    8    9 1   
    17    9   10 ar  
    18    9   14 ar  
    19   10   11 ar  
    20   10   37 1   
    21   11   12 ar  
    22   11   38 1   
    23   12   13 ar  
    24   12   21 1   
    25   13   14 ar  
    26   13   39 1   
    27   14   40 1   
    28   16   17 ar  
    29   16   18 ar  
    30   16   52 1   
    31   17   21 ar  
    32   17   51 1   
    33   18   19 ar  
    34   18   53 1   
    35   19   20 ar  
    36   19   41 1   
    37   20   21 ar  
    38   20   42 1   
    39   22   23 1   
    40   22   43 1   
    41   22   44 1   
    42   23   24 1   
    43   23   25 2   
    44   23   26 1   
    45   24   45 1   
    46   26   27 ar  
    47   26   32 ar  
    48   27   28 ar  
    49   27   46 1   
    50   28   29 ar  
    51   28   47 1   
    52   29   30 1   
    53   29   31 ar  
    54   31   32 ar  
    55   31   48 1   
    56   32   49 1   
@<TRIPOS>SUBSTRUCTURE
     1 0YL         1 TEMP              0 ****  ****    0 ROOT
