@<TRIPOS>MOLECULE
0YL
   52    52     1     0     0
SMALL
bcc


@<TRIPOS>ATOM
      1 O4          0.5220   -1.5910   -1.1230 o         1 0YL     -0.567500
      2 N1         -0.0880   -4.5150    3.5290 n2        1 0YL     -0.053000
      3 O1         -0.2590   -3.4850    2.7390 os        1 0YL     -0.059000
      4 C25         1.4790   -2.1820   -0.5480 c2        1 0YL      0.344000
      5 C17         1.9960   -1.5770    0.7620 c2        1 0YL      0.002000
      6 C16         0.9160   -1.5280    1.8020 c3        1 0YL     -0.089000
      7 C14         1.8640   -3.3100    3.5010 c2        1 0YL     -0.217000
      8 C13         1.1760   -4.4890    4.0230 c2        1 0YL     -0.123000
      9 C12         1.7830   -5.4950    4.8800 c2        1 0YL      0.050000
     10 C11         3.1070   -5.4600    5.1510 c2        1 0YL     -0.189000
     11 C10         3.7410   -6.6400    3.2380 c1        1 0YL      0.125000
     12 C7          3.6400   -5.9970    2.0880 c2        1 0YL     -0.421000
     13 C8         -0.3680   -6.6950    5.3980 c1        1 0YL      0.213000
     14 C9          0.9410   -6.5490    5.4200 c2        1 0YL     -0.439000
     15 C15         0.9330   -2.7070    2.6780 c2        1 0YL      0.018000
     16 C1          4.2910   -6.3750   -1.6030 c2        1 0YL      0.093000
     17 C2          3.8260   -5.8300   -0.3570 c2        1 0YL     -0.185000
     18 C3          4.9970   -7.5600   -1.6580 c2        1 0YL     -0.281000
     19 C4          5.3070   -8.2820   -0.4970 c1        1 0YL     -0.150000
     20 C5          4.8800   -7.7570    0.7960 c3        1 0YL     -0.199000
     21 C6          4.0970   -6.4890    0.8050 c2        1 0YL      0.027000
     22 C18         3.2540   -1.1350    0.8350 c2        1 0YL     -0.918000
     23 P1          4.2220   -0.5310    2.0180 p5        1 0YL      2.082000
     24 O2          3.8850   -1.0460    3.3730 o         1 0YL     -0.870000
     25 O3          5.6370   -0.4390    1.5840 o         1 0YL     -0.870000
     26 C19         3.5740    1.0870    1.9100 c2        1 0YL     -0.396000
     27 C20         4.1920    2.0130    0.9840 c3        1 0YL     -0.219000
     28 C21         4.2920    3.4180    1.4360 c1        1 0YL     -0.137500
     29 C22         3.7250    3.7290    2.6710 c2        1 0YL     -0.363000
     30 Br1         4.0680    5.4480    3.3760 br        1 0YL     -0.038000
     31 C23         2.8730    2.9060    3.3620 c1        1 0YL     -0.137500
     32 C24         2.6140    1.5270    2.8860 c3        1 0YL     -0.219000
     33 H10         3.8240   -1.2750   -0.1120 ha        1 0YL      0.159000
     34 H8         -0.0740   -1.4670    1.2620 hc        1 0YL      0.119000
     35 H9          1.0010   -0.6130    2.4530 hc        1 0YL      0.119000
     36 H7          2.8650   -2.9450    3.7510 ha        1 0YL      0.240000
     37 H17         3.7560   -4.6450    4.7940 ha        1 0YL      0.135000
     38 H18         3.5870   -6.2070    5.7960 ha        1 0YL      0.135000
     39 H5          3.1580   -4.9860    2.0700 ha        1 0YL      0.224000
     40 H6          1.5000   -7.3690    5.9280 ha        1 0YL      0.183000
     41 H3          4.2870   -8.5680    1.3110 hc        1 0YL      0.149000
     42 H4          5.8190   -7.6130    1.4100 hc        1 0YL      0.149000
     43 H12         4.6610   -3.0640    2.0830 ha        1 0YL      0.001500
     44 H11         5.2990   -2.8330    2.0510 ha        1 0YL      0.001500
     45 H13         5.2280    1.6230    0.7250 hc        1 0YL      0.185250
     46 H14         3.6130    2.0610    0.0070 hc        1 0YL      0.185250
     47 H15         1.5600    1.5850    2.4690 hc        1 0YL      0.185250
     48 H16         2.5940    0.7880    3.7460 hc        1 0YL      0.185250
     49 OXT         2.0230   -3.2400   -0.9750 o         1 0YL     -0.567500
     50 H1          3.2450   -4.8770   -0.3800 ha        1 0YL      0.240000
     51 Cl1         3.9390   -5.5160   -3.0160 cl        1 0YL      0.023000
     52 H2          5.3350   -7.9630   -2.6250 ha        1 0YL      0.135000
@<TRIPOS>BOND
     1    1    4 1   
     2    2    3 1   
     3    2    8 1   
     4    3   15 1   
     5    4    5 1   
     6    4   49 1   
     7    5    6 1   
     8    5   22 1   
     9    6   15 1   
    10    6   34 1   
    11    6   35 1   
    12    7    8 1   
    13    7   15 1   
    14    7   36 1   
    15    8    9 1   
    16    9   10 1   
    17    9   14 1   
    18   10   37 1   
    19   10   38 1   
    20   11   12 1   
    21   12   21 1   
    22   12   39 1   
    23   13   14 1   
    24   14   40 1   
    25   16   17 1   
    26   16   18 1   
    27   16   51 1   
    28   17   21 1   
    29   17   50 1   
    30   18   19 1   
    31   18   52 1   
    32   19   20 1   
    33   20   21 1   
    34   20   41 1   
    35   20   42 1   
    36   22   23 1   
    37   22   33 1   
    38   23   24 1   
    39   23   25 1   
    40   23   26 1   
    41   26   27 1   
    42   26   32 1   
    43   27   28 1   
    44   27   45 1   
    45   27   46 1   
    46   28   29 1   
    47   29   30 1   
    48   29   31 1   
    49   31   32 1   
    50   32   47 1   
    51   32   48 1   
    52   43   44 1   
@<TRIPOS>SUBSTRUCTURE
     1 0YL         1 TEMP              0 ****  ****    0 ROOT
