@<TRIPOS>MOLECULE
0YL
   53    52     1     0     0
SMALL
bcc


@<TRIPOS>ATOM
      1 O4          2.9700   -3.7870   -0.0090 o         1 0YL     -0.584000
      2 N1         -1.7450   -5.4980    2.4130 n2        1 0YL     -0.048000
      3 O1         -2.0680   -5.0130    1.2340 os        1 0YL     -0.077000
      4 C25         3.3230   -2.9220    0.8430 c2        1 0YL      0.341000
      5 C17         3.9380   -1.6410    0.3160 cx        1 0YL     -0.139000
      6 C16         5.2020   -1.0770    0.8730 cx        1 0YL     -0.148000
      7 C14         0.1490   -4.6330    1.4490 c2        1 0YL     -0.199000
      8 C13        -0.4210   -5.3100    2.6230 c2        1 0YL     -0.079000
      9 C12         0.3250   -5.7130    3.8080 c2        1 0YL      0.009000
     10 C11         1.5710   -5.2510    4.0310 c2        1 0YL     -0.176000
     11 C10         3.3210   -6.6930    2.9950 c1        1 0YL      0.175000
     12 C7          3.6300   -6.3890    1.7570 c2        1 0YL     -0.475000
     13 C8         -1.5560   -7.0480    4.8250 c1        1 0YL      0.204000
     14 C9         -0.3090   -6.6310    4.7380 c2        1 0YL     -0.438000
     15 C15        -0.9230   -4.4700    0.6040 c2        1 0YL     -0.101000
     16 C1          5.1490   -7.3770   -1.5300 c2        1 0YL      0.079000
     17 C2          4.4640   -6.6170   -0.5280 c2        1 0YL     -0.216000
     18 C3          5.6700   -8.6240   -1.2670 c2        1 0YL     -0.263000
     19 C4          5.5480   -9.2080    0.0070 c1        1 0YL     -0.124000
     20 C5          4.8570   -8.4750    1.0620 c3        1 0YL     -0.208000
     21 C6          4.3130   -7.1300    0.7300 c2        1 0YL      0.070000
     22 C18         3.9460   -0.2560    0.9310 cx        1 0YL     -0.953000
     23 P1          3.3620    0.2070    2.3700 p5        1 0YL      2.949000
     24 O2          4.0730   -0.7030    3.4880 oh        1 0YL     -0.845000
     25 O3          3.5680    1.6240    2.6880 o         1 0YL     -1.192000
     26 C19         1.8100   -0.2820    2.3960 c2        1 0YL     -1.229000
     27 C20         4.2190    4.0960    3.6340 c2        1 0YL     -0.145000
     28 C21         4.4560    5.2830    4.0800 c1        1 0YL     -0.026000
     29 C22         4.6850    6.5030    4.5470 c2        1 0YL     -0.253000
     30 BR1         6.1260    7.4780    3.7920 br        1 0YL      0.015000
     31 C23         3.9490    7.1470    5.5590 c1        1 0YL     -0.063000
     32 C24         0.7020    0.3790    2.5350 c1        1 0YL      0.302000
     33 H10         3.8370   -1.6430   -0.7950 hc        1 0YL      0.128000
     34 H8         -1.0940   -4.0510   -0.3800 h4        1 0YL      0.196000
     35 H9          6.0140   -0.7790    0.1880 hc        1 0YL      0.120000
     36 H7          1.1960   -4.3450    1.3010 ha        1 0YL      0.228000
     37 H17         2.0680   -4.5320    3.3560 ha        1 0YL      0.149500
     38 H18         2.1430   -5.5440    4.9220 ha        1 0YL      0.149500
     39 H5          3.2960   -5.3430    1.4440 ha        1 0YL      0.283000
     40 H6          0.3810   -7.0510    5.5080 ha        1 0YL      0.188000
     41 H3          4.0180   -9.1400    1.4270 hc        1 0YL      0.159500
     42 H4          5.5810   -8.3840    1.9260 hc        1 0YL      0.159500
     43 H12         3.8610    0.5570    0.1730 hc        1 0YL      0.159000
     44 H11         5.5840   -1.4740    1.8340 hc        1 0YL      0.120000
     45 H31         3.9480   -1.6540    3.4210 ho        1 0YL      0.294000
     46 H13         3.5340    3.8680    2.7930 ha        1 0YL      0.214000
     47 H14         4.6610    3.1690    4.0500 ha        1 0YL      0.214000
     48 H15         3.1150    6.5710    5.9950 ha        1 0YL      0.039000
     49 H16         1.7390   -1.4020    2.2790 ha        1 0YL      0.289000
     50 OXT         3.1830   -3.1540    2.0880 o         1 0YL     -0.584000
     51 H1          4.0570   -5.6170   -0.7790 ha        1 0YL      0.202000
     52 CL1         5.2980   -6.6780   -3.0730 cl        1 0YL     -0.020000
     53 H2          6.1940   -9.1930   -2.0500 ha        1 0YL      0.145000
@<TRIPOS>BOND
     1    1    4 1   
     2    2    3 1   
     3    2    8 1   
     4    3   15 1   
     5    4    5 1   
     6    4   50 1   
     7    5    6 1   
     8    5   22 1   
     9    5   33 1   
    10    6   22 1   
    11    6   35 1   
    12    6   44 1   
    13    7    8 1   
    14    7   15 1   
    15    7   36 1   
    16    8    9 1   
    17    9   10 1   
    18    9   14 1   
    19   10   37 1   
    20   10   38 1   
    21   11   12 1   
    22   12   21 1   
    23   12   39 1   
    24   13   14 1   
    25   14   40 1   
    26   15   34 1   
    27   16   17 1   
    28   16   18 1   
    29   16   52 1   
    30   17   21 1   
    31   17   51 1   
    32   18   19 1   
    33   18   53 1   
    34   19   20 1   
    35   20   21 1   
    36   20   41 1   
    37   20   42 1   
    38   22   23 1   
    39   22   43 1   
    40   23   24 1   
    41   23   25 1   
    42   23   26 1   
    43   24   45 1   
    44   26   32 1   
    45   26   49 1   
    46   27   28 1   
    47   27   46 1   
    48   27   47 1   
    49   28   29 1   
    50   29   30 1   
    51   29   31 1   
    52   31   48 1   
@<TRIPOS>SUBSTRUCTURE
     1 0YL         1 TEMP              0 ****  ****    0 ROOT
