@<TRIPOS>MOLECULE
0YL
   53    44     1     0     0
SMALL
bcc


@<TRIPOS>ATOM
      1 O4         -2.5390    1.6620   -0.6070 o         1 0YL     -0.564000
      2 N1         -0.1350   -1.0420   -0.7190 n2        1 0YL     -0.050000
      3 O1         -0.5180    0.2700   -0.4680 os        1 0YL     -0.077000
      4 C25        -1.4810    2.1700   -1.0630 c1        1 0YL      0.336000
      5 C17        -0.6120    3.0320   -0.1740 c2        1 0YL     -0.165000
      6 C16         0.0210    2.1720    0.8980 c3        1 0YL     -0.101000
      7 C14         1.4140   -0.0930    0.5350 c1        1 0YL     -0.228000
      8 C13         1.0460   -1.2580   -0.1040 c1        1 0YL     -0.087000
      9 C12         1.8150   -2.5620   -0.0860 c1        1 0YL     -0.024500
     10 C11         2.6090   -2.9120   -1.1670 c1        1 0YL     -0.115500
     11 C10         3.2420   -4.1450   -1.1930 c1        1 0YL     -0.115500
     12 C7          3.0810   -5.0280   -0.1370 c1        1 0YL     -0.024500
     13 C8          2.2880   -4.6790    0.9440 c2        1 0YL     -0.118500
     14 C9          1.6550   -3.4460    0.9700 c2        1 0YL     -0.118500
     15 C15         0.4370    0.8440    0.3010 c2        1 0YL     -0.007000
     16 CL1         2.0640  -10.0420   -0.0980 cl        1 0YL     -0.031000
     17 C1          3.1840   -8.7190    0.0950 c2        1 0YL     -0.061000
     18 C2          2.8260   -7.4440   -0.3140 c2        1 0YL     -0.118000
     19 C3          4.4430   -8.9480    0.6280 c1        1 0YL     -0.133000
     20 C4          5.3440   -7.9020    0.7520 c1        1 0YL     -0.101750
     21 C5          4.9860   -6.6270    0.3420 c1        1 0YL     -0.101750
     22 C6          3.7280   -6.3980   -0.1900 c1        1 0YL     -0.010000
     23 C18        -1.4610    4.1040    0.4750 c3        1 0YL     -0.940000
     24 P1         -2.1000    5.2250   -0.8030 p3        1 0YL      2.880000
     25 O2         -1.0870    6.4200   -1.0110 oh        1 0YL     -0.850000
     26 O3         -2.2580    4.4850   -2.0760 o         1 0YL     -1.180000
     27 C19        -3.7110    5.8820   -0.2810 c1        1 0YL     -0.474000
     28 C20        -4.8780    5.3580   -0.8140 c1        1 0YL     -0.101750
     29 C21        -6.1060    5.8960   -0.4590 c1        1 0YL     -0.101750
     30 C22        -6.1660    6.9580    0.4290 c1        1 0YL     -0.474000
     31 BR1        -7.8610    7.6480    0.9800 br        1 0YL      0.024000
     32 C23        -4.9990    7.4820    0.9620 c1        1 0YL     -0.092000
     33 C24        -3.7720    6.9440    0.6070 c1        1 0YL     -0.092000
     34 H10         0.0870    3.4510   -0.7110 ha        1 0YL      0.107000
     35 H8          0.8080    2.6280    1.2590 hc        1 0YL      0.128500
     36 H9         -0.6250    2.0180    1.6170 hc        1 0YL      0.128500
     37 H7          2.2270    0.0440    1.0570 DU        1 0YL      0.216000
     38 H17         2.7220   -2.2900   -1.9110 ha        1 0YL      0.151500
     39 H18         3.8010   -4.3910   -1.9540 ha        1 0YL      0.151500
     40 H5          2.1750   -5.3010    1.6880 ha        1 0YL      0.138500
     41 H6          1.1200   -3.1880    1.7450 ha        1 0YL      0.138500
     42 H1          1.9510   -7.2880   -0.7170 ha        1 0YL      0.152000
     43 H2          4.6950   -9.8460    0.9160 ha        1 0YL      0.141000
     44 H3          6.2270   -8.0620    1.1380 ha        1 0YL      0.164750
     45 H4          5.6210   -5.8900    0.4300 ha        1 0YL      0.164750
     46 H12        -2.2090    3.6870    0.9470 hc        1 0YL      0.163000
     47 H11        -0.9160    4.6110    1.1100 hc        1 0YL      0.163000
     48 H31        -1.2620    6.8260   -1.7810 ho        1 0YL      0.257000
     49 H13        -4.8360    4.6100   -1.4400 ha        1 0YL      0.164750
     50 H14        -6.9280    5.5270   -0.8350 ha        1 0YL      0.164750
     51 H15        -5.0410    8.2300    1.5880 ha        1 0YL      0.143500
     52 H16        -2.9480    7.3280    0.9660 ha        1 0YL      0.143500
     53 OXT        -1.1660    1.9910   -2.2680 o         1 0YL     -0.564000
@<TRIPOS>BOND
     1    1    4 1   
     2    2    3 1   
     3    2    8 1   
     4    3   15 1   
     5    4   53 1   
     6    5    6 1   
     7    5   23 1   
     8    5   34 1   
     9    6   15 1   
    10    6   35 1   
    11    6   36 1   
    12    7    8 1   
    13    7   15 1   
    14    9   10 1   
    15    9   14 1   
    16   10   38 1   
    17   11   12 1   
    18   11   39 1   
    19   12   13 1   
    20   13   14 1   
    21   13   40 1   
    22   14   41 1   
    23   16   17 1   
    24   17   18 1   
    25   17   19 1   
    26   18   22 1   
    27   18   42 1   
    28   19   43 1   
    29   20   21 1   
    30   20   44 1   
    31   21   45 1   
    32   23   24 1   
    33   23   46 1   
    34   23   47 1   
    35   24   25 1   
    36   24   26 1   
    37   25   48 1   
    38   27   33 1   
    39   28   29 1   
    40   28   49 1   
    41   29   50 1   
    42   30   32 1   
    43   32   51 1   
    44   33   52 1   
@<TRIPOS>SUBSTRUCTURE
     1 0YL         1 TEMP              0 ****  ****    0 ROOT
