@<TRIPOS>MOLECULE
0YN
   35    36     1     0     0
SMALL
bcc


@<TRIPOS>ATOM
      1 C2A         0.2980    0.4830    0.1460 c3        1 0YN     -0.135400
      2 C35         6.0000   -0.0810    0.1950 c3        1 0YN      0.049200
      3 C2          6.8640   -0.9780    2.4040 cc        1 0YN     -0.171100
      4 S1          7.6310   -0.4660    3.7860 ss        1 0YN      0.030200
      5 C5          7.6830    1.1450    3.3040 cc        1 0YN     -0.116400
      6 C4          7.1100    1.3130    2.0550 cd        1 0YN     -0.091300
      7 C4A         7.0050    2.5810    1.3170 c3        1 0YN     -0.037800
      8 C5A         8.2970    2.1860    4.1420 c3        1 0YN     -0.010100
      9 C5B         7.2430    3.0040    4.8800 c3        1 0YN      0.133400
     10 O5G         7.9440    3.9830    5.6330 oh        1 0YN     -0.604800
     11 N1'         2.4400    0.4680    1.3570 nb        1 0YN     -0.733000
     12 C2'         1.8010    0.3330    0.1500 ca        1 0YN      0.676300
     13 N3'         2.4060    0.0720   -1.0420 nb        1 0YN     -0.762000
     14 C4'         3.7760   -0.0490   -1.0400 ca        1 0YN      0.664200
     15 N4'         4.4350   -0.2120   -2.2580 nv        1 0YN     -0.933500
     16 C5'         4.5230    0.0650    0.1820 ca        1 0YN     -0.369900
     17 C6'         3.7760    0.3280    1.3430 ca        1 0YN      0.463200
     18 C3          6.6240    0.0630    1.5280 cd        1 0YN     -0.112300
     19 H1          0.0320    1.5180    0.4760 hc        1 0YN      0.061033
     20 H2         -0.1280    0.3080   -0.8710 hc        1 0YN      0.061033
     21 H3         -0.1520   -0.2500    0.8590 hc        1 0YN      0.061033
     22 H4          6.2700   -1.0950   -0.2170 hc        1 0YN      0.053700
     23 H5          6.4480    0.6910   -0.4950 hc        1 0YN      0.053700
     24 H6          6.5940   -2.0190    2.2270 h4        1 0YN      0.172000
     25 H7          7.6710    2.5590    0.4170 hc        1 0YN      0.048367
     26 H8          5.9540    2.7430    0.9690 hc        1 0YN      0.048367
     27 H9          7.3050    3.4470    1.9580 hc        1 0YN      0.048367
     28 H10         8.9920    1.7270    4.8970 hc        1 0YN      0.066200
     29 H11         8.9150    2.8790    3.5090 hc        1 0YN      0.066200
     30 H12         6.5510    3.5020    4.1500 h1        1 0YN      0.027700
     31 H13         6.6420    2.3510    5.5670 h1        1 0YN      0.027700
     32 H14         7.2760    4.5050    6.0910 ho        1 0YN      0.402000
     33 H15         5.3080   -0.6840   -2.2040 hn        1 0YN      0.414800
     34 H16         3.8740   -0.4450   -3.0460 hn        1 0YN      0.414800
     35 H17         4.2840    0.4340    2.3210 h4        1 0YN      0.034100
@<TRIPOS>BOND
     1    1   12 1   
     2    1   19 1   
     3    1   20 1   
     4    1   21 1   
     5    2   16 1   
     6    2   18 1   
     7    2   22 1   
     8    2   23 1   
     9    3    4 1   
    10    3   18 2   
    11    3   24 1   
    12    4    5 1   
    13    5    6 2   
    14    5    8 1   
    15    6    7 1   
    16    6   18 1   
    17    7   25 1   
    18    7   26 1   
    19    7   27 1   
    20    8    9 1   
    21    8   28 1   
    22    8   29 1   
    23    9   10 1   
    24    9   30 1   
    25    9   31 1   
    26   10   32 1   
    27   11   12 ar  
    28   11   17 ar  
    29   12   13 ar  
    30   13   14 ar  
    31   14   15 1   
    32   14   16 ar  
    33   15   33 1   
    34   15   34 1   
    35   16   17 ar  
    36   17   35 1   
@<TRIPOS>SUBSTRUCTURE
     1 0YN         1 TEMP              0 ****  ****    0 ROOT
