@<TRIPOS>MOLECULE
0YN
   35    36     1     0     0
SMALL
bcc


@<TRIPOS>ATOM
      1 C2A         5.1100    1.7440    1.2320 c3        1 0YN     -0.135400
      2 C35         0.8010   -0.5980   -1.7300 c3        1 0YN      0.045200
      3 C2         -0.9340   -2.1620   -0.7550 cc        1 0YN     -0.199100
      4 S1         -2.3770   -2.1410    0.0690 ss        1 0YN      0.034200
      5 C5         -2.4310   -0.4650    0.1680 cc        1 0YN     -0.115400
      6 C4         -1.3260    0.1120   -0.4400 cd        1 0YN     -0.088300
      7 C4A        -1.0830    1.5580   -0.5530 c3        1 0YN     -0.038800
      8 C5A        -3.5290    0.2370    0.8480 c3        1 0YN     -0.010100
      9 C5B        -4.4410    0.9470   -0.1460 c3        1 0YN      0.134400
     10 O5G        -5.4330    1.6150    0.6170 oh        1 0YN     -0.603800
     11 N1'         3.4110    1.8450   -0.5440 nb        1 0YN     -0.736000
     12 C2'         3.9710    1.1070    0.4700 ca        1 0YN      0.681300
     13 N3'         3.5860   -0.1420    0.8470 nb        1 0YN     -0.764000
     14 C4'         2.5570   -0.7260    0.1430 ca        1 0YN      0.680200
     15 N4'         2.2130   -2.0430    0.4300 nh        1 0YN     -0.932500
     16 C5'         1.9010   -0.0180   -0.9210 ca        1 0YN     -0.372900
     17 C6'         2.3960    1.2670   -1.2070 ca        1 0YN      0.455200
     18 C3         -0.4420   -0.8890   -0.9780 cd        1 0YN     -0.105300
     19 H1          4.7670    2.7110    1.6750 hc        1 0YN      0.061367
     20 H2          5.4740    1.0790    2.0520 hc        1 0YN      0.061367
     21 H3          5.9540    1.9480    0.5290 hc        1 0YN      0.061367
     22 H4          0.5420    0.1160   -2.5640 hc        1 0YN      0.059200
     23 H5          1.1690   -1.5470   -2.2130 hc        1 0YN      0.059200
     24 H6         -0.4610   -3.0840   -1.0950 h4        1 0YN      0.172000
     25 H7          0.0140    1.7780   -0.5140 hc        1 0YN      0.048700
     26 H8         -1.4820    1.9380   -1.5280 hc        1 0YN      0.048700
     27 H9         -1.5910    2.1140    0.2740 hc        1 0YN      0.048700
     28 H10        -4.1440   -0.4820    1.4540 hc        1 0YN      0.066200
     29 H11        -3.1150    0.9990    1.5650 hc        1 0YN      0.066200
     30 H12        -3.8520    1.6900   -0.7500 h1        1 0YN      0.026700
     31 H13        -4.9230    0.2090   -0.8410 h1        1 0YN      0.026700
     32 H14        -6.0010    2.0740   -0.0120 ho        1 0YN      0.402000
     33 H15         2.5720   -2.4290    1.2740 hn        1 0YN      0.418800
     34 H16         1.2720   -2.2880    0.2160 hn        1 0YN      0.418800
     35 H17         1.9510    1.8690   -2.0210 h4        1 0YN      0.022100
@<TRIPOS>BOND
     1    1   12 1   
     2    1   19 1   
     3    1   20 1   
     4    1   21 1   
     5    2   16 1   
     6    2   18 1   
     7    2   22 1   
     8    2   23 1   
     9    3    4 1   
    10    3   18 2   
    11    3   24 1   
    12    4    5 1   
    13    5    6 2   
    14    5    8 1   
    15    6    7 1   
    16    6   18 1   
    17    7   25 1   
    18    7   26 1   
    19    7   27 1   
    20    8    9 1   
    21    8   28 1   
    22    8   29 1   
    23    9   10 1   
    24    9   30 1   
    25    9   31 1   
    26   10   32 1   
    27   11   12 ar  
    28   11   17 ar  
    29   12   13 ar  
    30   13   14 ar  
    31   14   15 1   
    32   14   16 ar  
    33   15   33 1   
    34   15   34 1   
    35   16   17 ar  
    36   17   35 1   
@<TRIPOS>SUBSTRUCTURE
     1 0YN         1 TEMP              0 ****  ****    0 ROOT
