@<TRIPOS>MOLECULE
0YN
   36    37     1     0     0
SMALL
bcc


@<TRIPOS>ATOM
      1 C2A         0.1750   -0.1250   -0.9560 c3        1 0YN     -0.148400
      2 C35         5.5410    0.0510    1.1080 c3        1 0YN      0.017200
      3 C2          7.5120    1.3600    0.2020 cc        1 0YN     -0.194100
      4 S1          8.2100    2.8550    0.3000 ss        1 0YN      0.151200
      5 C5          7.0500    3.4600    1.3400 cc        1 0YN     -0.132400
      6 C4          6.1460    2.4750    1.7220 cd        1 0YN     -0.140300
      7 C4A         5.1050    2.6330    2.7510 c3        1 0YN     -0.048800
      8 C5A         6.9480    4.8820    1.7100 c3        1 0YN     -0.052100
      9 C5B         6.0780    5.6460    0.7120 c3        1 0YN      0.128400
     10 O5G         4.7750    5.0880    0.6080 oh        1 0YN     -0.658800
     11 N1'         2.0820   -1.1040    0.2780 nb        1 0YN     -0.642000
     12 C2'         1.5850   -0.0250   -0.4330 ca        1 0YN      0.702300
     13 N3'         2.2890    1.1090   -0.6850 nb        1 0YN     -0.709000
     14 C4'         3.5680    1.1730   -0.2000 ca        1 0YN      0.496200
     15 N4'         4.2820    2.4290   -0.5000 n4        1 0YN     -0.823300
     16 C5'         4.1720    0.1350    0.5340 ca        1 0YN     -0.257900
     17 C6'         3.3260   -1.0090    0.7340 ca        1 0YN      0.453200
     18 C3          6.3830    1.2560    1.0000 cd        1 0YN     -0.171300
     19 H1         -0.1280    0.8010   -1.5030 hc        1 0YN      0.087033
     20 H2          0.1020   -1.0000   -1.6510 hc        1 0YN      0.087033
     21 H3         -0.5260   -0.2890   -0.0990 hc        1 0YN      0.087033
     22 H4          6.0680   -0.8150    0.6080 hc        1 0YN      0.095200
     23 H5          5.4430   -0.2210    2.2010 hc        1 0YN      0.095200
     24 H6          7.9220    0.5470   -0.4030 h4        1 0YN      0.193000
     25 H7          4.3350    1.8260    2.6800 hc        1 0YN      0.056033
     26 H8          4.5960    3.6260    2.6590 hc        1 0YN      0.056033
     27 H9          5.5730    2.5800    3.7680 hc        1 0YN      0.056033
     28 H10         6.5100    4.9770    2.7410 hc        1 0YN      0.080200
     29 H11         7.9630    5.3630    1.7320 hc        1 0YN      0.080200
     30 H12         6.5030    5.5710   -0.3260 h1        1 0YN      0.065700
     31 H13         6.0190    6.7260    1.0090 h1        1 0YN      0.065700
     32 H14         4.2500    5.4460    1.3340 ho        1 0YN      0.424000
     33 H15         4.3490    3.0100    0.3580 hn        1 0YN      0.479467
     34 H16         5.2330    2.2030   -0.8160 hn        1 0YN      0.479467
     35 H17         3.7150   -1.8800    1.3010 h4        1 0YN      0.065100
     36 H4'3        3.7940    2.9730   -1.2240 hn        1 0YN      0.479467
@<TRIPOS>BOND
     1    1   12 1   
     2    1   19 1   
     3    1   20 1   
     4    1   21 1   
     5    2   16 1   
     6    2   18 1   
     7    2   22 1   
     8    2   23 1   
     9    3    4 1   
    10    3   18 2   
    11    3   24 1   
    12    4    5 1   
    13    5    6 2   
    14    5    8 1   
    15    6    7 1   
    16    6   18 1   
    17    7   25 1   
    18    7   26 1   
    19    7   27 1   
    20    8    9 1   
    21    8   28 1   
    22    8   29 1   
    23    9   10 1   
    24    9   30 1   
    25    9   31 1   
    26   10   32 1   
    27   11   12 ar  
    28   11   17 ar  
    29   12   13 ar  
    30   13   14 ar  
    31   14   15 1   
    32   14   16 ar  
    33   15   33 1   
    34   15   34 1   
    35   15   36 1   
    36   16   17 ar  
    37   17   35 1   
@<TRIPOS>SUBSTRUCTURE
     1 0YN         1 TEMP              0 ****  ****    0 ROOT
