@<TRIPOS>MOLECULE
0YN
   35    35     1     0     0
SMALL
bcc


@<TRIPOS>ATOM
      1 C2A        -0.6320   -0.3210    0.4900 c3        1 0YN     -0.172000
      2 C35         5.0000    0.0920    0.3830 c1        1 0YN     -0.195000
      3 C2          6.7550   -0.4000   -3.3120 c2        1 0YN     -0.454000
      4 S1          7.4170    0.1190   -4.7560 ss        1 0YN      0.528000
      5 C5          7.8720    1.6190   -4.1430 c2        1 0YN     -0.374000
      6 C4          7.5190    1.7390   -2.8080 c2        1 0YN     -0.098000
      7 C4A         7.7650    2.9070   -1.9510 c3        1 0YN     -0.158000
      8 C5A         8.5320    2.6350   -4.9760 c3        1 0YN     -0.093000
      9 C5B         9.9970    2.8050   -4.5920 c3        1 0YN     -0.017000
     10 O5G        10.5180    3.8350   -5.4180 oh        1 0YN     -0.333000
     11 N1'         1.5280   -0.2650    1.6760 n2        1 0YN     -0.244000
     12 C2'         0.8730   -0.2150    0.4420 c2        1 0YN      0.133000
     13 N3'         1.4560   -0.0850   -0.7610 n2        1 0YN     -0.279000
     14 C4'         2.8500    0.0120   -0.7910 c2        1 0YN      0.263000
     15 N4'         3.4820    0.1320   -1.9800 nh        1 0YN     -0.301000
     16 C5'         3.6260   -0.0220    0.4450 c2        1 0YN     -0.336000
     17 C6'         2.8470   -0.1700    1.6410 c2        1 0YN      0.054000
     18 C3          6.8670    0.5530   -2.3270 c2        1 0YN     -0.169000
     19 H1         -1.0390    0.5200    1.1060 hc        1 0YN      0.109667
     20 H2         -1.0820   -0.2750   -0.5310 hc        1 0YN      0.109667
     21 H3         -0.9170   -1.2900    0.9710 hc        1 0YN      0.109667
     22 H4          5.5840    0.0650    1.3100 ha        1 0YN      0.063000
     23 H5          6.5050    0.4450   -1.2900 ha        1 0YN      0.205000
     24 H6          6.3120   -1.3860   -3.1890 h4        1 0YN      0.167000
     25 H7          7.7710    3.8500   -2.5540 hc        1 0YN      0.084000
     26 H8          6.9780    2.9900   -1.1610 hc        1 0YN      0.084000
     27 H9          8.7590    2.8110   -1.4450 hc        1 0YN      0.084000
     28 H10         8.4710    2.3590   -6.0630 hc        1 0YN      0.103000
     29 H11         8.0120    3.6260   -4.8580 hc        1 0YN      0.103000
     30 H12        10.0840    3.0960   -3.5100 h1        1 0YN      0.067000
     31 H13        10.5660    1.8520   -4.7630 h1        1 0YN      0.067000
     32 H14        11.4430    3.9430   -5.1700 ho        1 0YN      0.199000
     33 H15         2.9830    0.1770   -2.8350 hn        1 0YN      0.263500
     34 H16         4.4820    0.2080   -1.9740 hn        1 0YN      0.263500
     35 H17         3.3710   -0.2070    2.6170 h4        1 0YN      0.163000
@<TRIPOS>BOND
     1    1   12 1   
     2    1   19 1   
     3    1   20 1   
     4    1   21 1   
     5    2   16 1   
     6    2   22 1   
     7    3    4 1   
     8    3   18 1   
     9    3   24 1   
    10    4    5 1   
    11    5    6 1   
    12    5    8 1   
    13    6    7 1   
    14    6   18 1   
    15    7   25 1   
    16    7   26 1   
    17    7   27 1   
    18    8    9 1   
    19    8   28 1   
    20    8   29 1   
    21    9   10 1   
    22    9   30 1   
    23    9   31 1   
    24   10   32 1   
    25   11   12 1   
    26   11   17 1   
    27   12   13 1   
    28   13   14 1   
    29   14   15 1   
    30   14   16 1   
    31   15   33 1   
    32   15   34 1   
    33   16   17 1   
    34   17   35 1   
    35   18   23 1   
@<TRIPOS>SUBSTRUCTURE
     1 0YN         1 TEMP              0 ****  ****    0 ROOT
