@<TRIPOS>MOLECULE
0YN
   35    30     1     0     0
SMALL
bcc


@<TRIPOS>ATOM
      1 C2A        -5.5110   -1.3090    0.0490 c3        1 0YN     -0.159000
      2 C35         0.1620   -1.9580   -0.0790 c3        1 0YN     -0.043000
      3 C2          1.6770   -0.6940   -1.4940 c1        1 0YN     -0.440000
      4 S1          2.6160    0.5690   -1.6020 ss        1 0YN      0.556000
      5 C5          2.2500    1.5260   -0.4190 c1        1 0YN     -0.372000
      6 C4          1.1780    0.9010    0.3460 c1        1 0YN     -0.088000
      7 C4A         0.5730    1.4350    1.7110 c2        1 0YN     -0.163000
      8 C5A         2.9100    2.9120   -0.1100 c2        1 0YN     -0.098000
      9 C5B         4.1380    3.1330   -1.0450 c3        1 0YN     -0.022000
     10 O5G         4.5710    4.5140   -0.9500 oh        1 0YN     -0.326000
     11 N1'        -3.2790   -0.7620   -0.8710 n1        1 0YN     -0.206000
     12 C2'        -4.0190   -1.5090   -0.0240 c1        1 0YN      0.056000
     13 N3'        -3.4030   -2.4230    0.8110 n1        1 0YN     -0.237000
     14 C4'        -2.0690   -2.5680    0.7800 c1        1 0YN      0.142000
     15 N4'        -1.4390   -3.5610    1.5990 n2        1 0YN     -0.331000
     16 C5'        -1.3320   -1.8240   -0.0620 c2        1 0YN     -0.233000
     17 C6'        -1.9550   -0.9030   -0.9030 c2        1 0YN     -0.001000
     18 C3          0.8210   -0.5150   -0.3490 c2        1 0YN     -0.101000
     19 H1         -5.9260   -1.5510   -0.8430 hc        1 0YN      0.100333
     20 H2         -5.7140   -0.3410    0.2640 hc        1 0YN      0.100333
     21 H3         -5.8660   -1.8560    0.7170 hc        1 0YN      0.100333
     22 H4          0.4370   -2.5990   -0.8180 hc        1 0YN      0.092500
     23 H5          0.4590   -2.2910    0.7540 hc        1 0YN      0.092500
     24 H6          1.6750   -1.4530   -2.0900 DU        1 0YN      0.172000
     25 H7          0.2620    0.6920    2.2340 ha        1 0YN      0.087667
     26 H8         -0.2230    2.0750    1.5110 ha        1 0YN      0.087667
     27 H9          1.2680    1.9200    2.2120 ha        1 0YN      0.087667
     28 H10         2.2890    3.5890   -0.2530 ha        1 0YN      0.110500
     29 H11         3.2170    2.9310    0.8690 ha        1 0YN      0.110500
     30 H12         4.8370    2.5680   -0.7840 h1        1 0YN      0.065000
     31 H13         3.8870    2.9350   -1.9640 h1        1 0YN      0.065000
     32 H14         5.3840    4.6030   -1.3340 ho        1 0YN      0.201000
     33 H15        -0.5860   -3.9350    1.3370 hn        1 0YN      0.209000
     34 H16        -1.8640   -3.8850    2.3120 hn        1 0YN      0.209000
     35 H17        -1.4250   -0.3660   -1.5100 h4        1 0YN      0.173000
@<TRIPOS>BOND
     1    1   12 1   
     2    1   19 1   
     3    1   20 1   
     4    1   21 1   
     5    2   16 1   
     6    2   18 1   
     7    2   22 1   
     8    2   23 1   
     9    3    4 1   
    10    3   18 1   
    11    4    5 1   
    12    5    6 1   
    13    6   18 1   
    14    7   25 1   
    15    7   26 1   
    16    7   27 1   
    17    8    9 1   
    18    8   28 1   
    19    8   29 1   
    20    9   10 1   
    21    9   30 1   
    22    9   31 1   
    23   10   32 1   
    24   11   17 1   
    25   12   13 1   
    26   14   16 1   
    27   15   33 1   
    28   15   34 1   
    29   16   17 1   
    30   17   35 1   
@<TRIPOS>SUBSTRUCTURE
     1 0YN         1 TEMP              0 ****  ****    0 ROOT
