@<TRIPOS>MOLECULE
0YO
   45    49     1     0     0
SMALL
bcc


@<TRIPOS>ATOM
      1 C1         -0.0570    0.3480    0.0740 cp        1 0YO      0.692500
      2 C2         -0.1690    0.6170    2.3640 ca        1 0YO      0.376200
      3 C3          1.2340    0.4780    2.4620 ca        1 0YO     -0.127500
      4 C7         -2.0340   -0.2280   -1.3380 ca        1 0YO     -0.036000
      5 C8         -2.6610   -0.2700   -2.6160 ca        1 0YO     -0.161300
      6 C9         -1.9360    0.2180   -3.7450 ca        1 0YO      0.405600
      7 C10        -2.5660    0.1750   -5.0300 ca        1 0YO     -0.168300
      8 C11        -3.8370   -0.3260   -5.1600 ca        1 0YO     -0.118000
      9 C12        -4.5490   -0.8070   -4.0350 ca        1 0YO     -0.132000
     10 C13        -3.9730   -0.7800   -2.7890 ca        1 0YO     -0.105000
     11 C14         3.4090    0.0890    1.2000 cc        1 0YO     -0.223800
     12 C15         4.1650   -0.4010    0.1080 cd        1 0YO     -0.045000
     13 C16         5.5760    0.1120    1.8420 cc        1 0YO     -0.058600
     14 C19         7.9390   -0.5880    1.9720 c3        1 0YO      0.109000
     15 C20         6.8410    0.2990    2.5830 c3        1 0YO     -0.028100
     16 C21         1.1330    0.4710    4.8370 c3        1 0YO      0.114700
     17 C17         5.5290   -0.3890    0.5150 cd        1 0YO     -0.229600
     18 C18         6.7450   -0.7760   -0.1950 c         1 0YO      0.742100
     19 O1          6.7900   -1.1280   -1.3890 o         1 0YO     -0.635500
     20 N5          7.9290   -0.6880    0.5400 n         1 0YO     -0.579900
     21 N4          4.2940    0.4050    2.2480 na        1 0YO     -0.131100
     22 C4          1.9640    0.2640    1.2530 ca        1 0YO      0.532800
     23 N2          1.3030    0.2040    0.0670 nb        1 0YO     -0.673000
     24 N1         -0.8230    0.5560    1.1950 nb        1 0YO     -0.674000
     25 C5         -0.7570    0.2770   -1.2290 cp        1 0YO     -0.259800
     26 N3         -0.6540    0.7250   -3.6210 nb        1 0YO     -0.662000
     27 C6         -0.1050    0.7460   -2.4230 ca        1 0YO      0.449200
     28 O2          1.9220    0.5620    3.6520 os        1 0YO     -0.337900
     29 H1         -0.7980    0.7840    3.2570 h4        1 0YO      0.032100
     30 H2         -2.5890   -0.6030   -0.4630 ha        1 0YO      0.153000
     31 H3         -2.0140    0.5480   -5.9070 ha        1 0YO      0.152000
     32 H4         -4.3210   -0.3600   -6.1480 ha        1 0YO      0.136000
     33 H5         -5.5660   -1.2020   -4.1750 ha        1 0YO      0.135000
     34 H6         -4.5160   -1.1510   -1.9060 ha        1 0YO      0.135000
     35 H7          3.7770   -0.7220   -0.8570 ha        1 0YO      0.186000
     36 H8          7.8440   -1.6190    2.4290 h1        1 0YO      0.038700
     37 H9          7.1460    1.3790    2.5230 hc        1 0YO      0.064200
     38 H10         6.7320    0.0330    3.6670 hc        1 0YO      0.064200
     39 H11         0.5100    1.3910    4.9560 h1        1 0YO      0.051033
     40 H12         1.8980    0.4050    5.6510 h1        1 0YO      0.051033
     41 H13         0.4920   -0.4420    4.8200 h1        1 0YO      0.051033
     42 H14         4.0220    0.7480    3.1350 hn        1 0YO      0.314700
     43 H15         0.9230    1.1560   -2.3680 h4        1 0YO      0.043100
     44 H16         8.9380   -0.1690    2.2850 h1        1 0YO      0.038700
     45 H17         8.7580   -1.0270    0.1100 hn        1 0YO      0.318500
@<TRIPOS>BOND
     1    1   23 ar  
     2    1   24 ar  
     3    1   25 1   
     4    2    3 ar  
     5    2   24 ar  
     6    2   29 1   
     7    3   22 ar  
     8    3   28 1   
     9    4    5 ar  
    10    4   25 ar  
    11    4   30 1   
    12    5    6 ar  
    13    5   10 ar  
    14    6    7 ar  
    15    6   26 ar  
    16    7    8 ar  
    17    7   31 1   
    18    8    9 ar  
    19    8   32 1   
    20    9   10 ar  
    21    9   33 1   
    22   10   34 1   
    23   11   12 2   
    24   11   21 1   
    25   11   22 1   
    26   12   17 1   
    27   12   35 1   
    28   13   15 1   
    29   13   17 2   
    30   13   21 1   
    31   14   15 1   
    32   14   20 1   
    33   14   36 1   
    34   14   44 1   
    35   15   37 1   
    36   15   38 1   
    37   16   28 1   
    38   16   39 1   
    39   16   40 1   
    40   16   41 1   
    41   17   18 1   
    42   18   19 2   
    43   18   20 1   
    44   20   45 1   
    45   21   42 1   
    46   22   23 ar  
    47   25   27 ar  
    48   26   27 ar  
    49   27   43 1   
@<TRIPOS>SUBSTRUCTURE
     1 0YO         1 TEMP              0 ****  ****    0 ROOT
