@<TRIPOS>MOLECULE
0YO
   45    36     1     0     0
SMALL
bcc


@<TRIPOS>ATOM
      1 C1         -1.8780    0.1930    0.1860 c1        1 0YO      0.050000
      2 C2         -1.8790    0.3770    2.5650 c1        1 0YO     -0.100000
      3 C3         -0.5240    0.3090    2.5710 c1        1 0YO     -0.013000
      4 C7         -3.1790   -0.9470   -1.7270 c1        1 0YO     -0.037000
      5 C8         -3.8660   -0.8930   -2.9200 c1        1 0YO     -0.093000
      6 C9         -4.0440    0.3310   -3.5640 c1        1 0YO      0.009000
      7 C10        -4.7530    0.3950   -4.7850 c1        1 0YO     -0.114250
      8 C11        -5.2760   -0.7660   -5.3500 c1        1 0YO     -0.114250
      9 C12        -5.1000   -2.0010   -4.7070 c1        1 0YO     -0.114250
     10 C13        -4.3910   -2.0650   -3.4850 c1        1 0YO     -0.114250
     11 C14         1.6720    0.1960    1.3800 c1        1 0YO     -0.053500
     12 C15         2.5320   -0.9700    1.4090 c1        1 0YO     -0.133000
     13 C16         3.7900    0.8860    1.2520 c1        1 0YO     -0.053500
     14 C19         6.2000    0.7580    0.5610 c3        1 0YO     -0.008000
     15 C20         5.1150    1.5900    0.9310 c2        1 0YO     -0.115000
     16 C21        -0.4750    0.1960    4.9480 c3        1 0YO     -0.083000
     17 C17         3.8020   -0.5520    1.3320 c1        1 0YO     -0.133000
     18 C18         5.2040   -1.2720    1.2420 c1        1 0YO      0.380000
     19 O1          5.3050   -2.4940    1.5480 o         1 0YO     -0.366000
     20 N5          6.2950   -0.4830    1.2310 n2        1 0YO     -0.388000
     21 N4          2.4670    1.3060    1.2840 n2        1 0YO     -0.128000
     22 C4          0.1700    0.1810    1.3760 c1        1 0YO      0.085000
     23 N2         -0.5160    0.1240    0.1860 n1        1 0YO     -0.180000
     24 N1         -2.5640    0.3200    1.3820 n1        1 0YO     -0.142000
     25 C5         -2.6680    0.2120   -1.1740 c2        1 0YO     -0.082000
     26 N3         -3.5290    1.4920   -3.0050 n2        1 0YO     -0.138000
     27 C6         -2.8480    1.4390   -1.8250 c2        1 0YO     -0.022000
     28 O2          0.2660    0.1560    3.7410 os        1 0YO     -0.186000
     29 H1         -2.3930    0.4710    3.4510 ha        1 0YO      0.172000
     30 H2         -3.1390   -1.7850   -1.2230 ha        1 0YO      0.155000
     31 H3         -4.8790    1.2850   -5.2490 ha        1 0YO      0.139750
     32 H4         -5.7540   -0.7210   -6.1750 ha        1 0YO      0.139750
     33 H5         -5.4750   -2.8240   -5.1080 ha        1 0YO      0.139750
     34 H6         -4.2620   -2.9660   -3.0140 ha        1 0YO      0.139750
     35 H7          2.2410   -1.8930    1.4750 DU        1 0YO      0.226500
     36 H8          6.1080    0.5720   -0.3400 h1        1 0YO      0.078500
     37 H9          5.3820    2.0890    1.7070 ha        1 0YO      0.106000
     38 H10         4.9460    2.2390    0.1840 ha        1 0YO      0.106000
     39 H11         0.1370    0.2250    5.6980 h1        1 0YO      0.091667
     40 H12        -1.0340    0.9870    4.9580 h1        1 0YO      0.091667
     41 H13        -1.0570   -0.6350    5.0180 h1        1 0YO      0.091667
     42 H14         2.1760    2.1720    1.2470 DU        1 0YO      0.226500
     43 H15        -2.4900    2.2980   -1.4020 h4        1 0YO      0.171000
     44 H16         7.0810    1.2950    0.7850 h1        1 0YO      0.078500
     45 H17         7.0850   -0.8240    1.4080 hn        1 0YO      0.231000
@<TRIPOS>BOND
     1    1   24 1   
     2    1   25 1   
     3    2    3 1   
     4    2   29 1   
     5    3   28 1   
     6    4   25 1   
     7    4   30 1   
     8    5    6 1   
     9    6   26 1   
    10    7    8 1   
    11    7   31 1   
    12    8   32 1   
    13    9   10 1   
    14    9   33 1   
    15   10   34 1   
    16   11   12 1   
    17   11   21 1   
    18   12   17 1   
    19   13   17 1   
    20   13   21 1   
    21   14   15 1   
    22   14   20 1   
    23   14   36 1   
    24   14   44 1   
    25   15   37 1   
    26   15   38 1   
    27   16   28 1   
    28   16   39 1   
    29   16   40 1   
    30   16   41 1   
    31   18   19 1   
    32   20   45 1   
    33   22   23 1   
    34   25   27 1   
    35   26   27 1   
    36   27   43 1   
@<TRIPOS>SUBSTRUCTURE
     1 0YO         1 TEMP              0 ****  ****    0 ROOT
