@<TRIPOS>MOLECULE
0YO
   45    49     1     0     0
SMALL
bcc


@<TRIPOS>ATOM
      1 C1         -0.0590    0.3380    0.0770 cp        1 0YO      0.692500
      2 C2         -0.1730    0.5790    2.3710 ca        1 0YO      0.376200
      3 C3          1.2300    0.4470    2.4670 ca        1 0YO     -0.127500
      4 C7         -2.0320   -0.2350   -1.3410 ca        1 0YO     -0.036000
      5 C8         -2.6590   -0.2670   -2.6200 ca        1 0YO     -0.161300
      6 C9         -1.9360    0.2400   -3.7440 ca        1 0YO      0.405600
      7 C10        -2.5660    0.2080   -5.0290 ca        1 0YO     -0.168300
      8 C11        -3.8340   -0.3000   -5.1650 ca        1 0YO     -0.118000
      9 C12        -4.5430   -0.7990   -4.0460 ca        1 0YO     -0.132000
     10 C13        -3.9670   -0.7830   -2.8000 ca        1 0YO     -0.105000
     11 C14         3.4090    0.0870    1.2020 cc        1 0YO     -0.223800
     12 C15         4.1670   -0.3870    0.1050 cd        1 0YO     -0.045000
     13 C16         5.5750    0.1180    1.8450 cc        1 0YO     -0.058600
     14 C19         7.9420   -0.5670    1.9690 c3        1 0YO      0.109000
     15 C20         6.8380    0.3070    2.5880 c3        1 0YO     -0.028100
     16 C21         1.1290    0.4100    4.8420 c3        1 0YO      0.114700
     17 C17         5.5310   -0.3700    0.5120 cd        1 0YO     -0.229600
     18 C18         6.7500   -0.7420   -0.2000 c         1 0YO      0.742100
     19 O1          6.7970   -1.0820   -1.3980 o         1 0YO     -0.635500
     20 N5          7.9330   -0.6530    0.5350 n         1 0YO     -0.579900
     21 N4          4.2900    0.3990    2.2530 na        1 0YO     -0.131100
     22 C4          1.9620    0.2520    1.2560 ca        1 0YO      0.532800
     23 N2          1.3020    0.2020    0.0690 nb        1 0YO     -0.673000
     24 N1         -0.8270    0.5270    1.2010 nb        1 0YO     -0.674000
     25 C5         -0.7590    0.2770   -1.2260 cp        1 0YO     -0.259800
     26 N3         -0.6580    0.7540   -3.6130 nb        1 0YO     -0.662000
     27 C6         -0.1090    0.7640   -2.4140 ca        1 0YO      0.449200
     28 O2          1.9180    0.5230    3.6580 os        1 0YO     -0.337900
     29 H1         -0.8040    0.7320    3.2650 h4        1 0YO      0.032100
     30 H2         -2.5850   -0.6240   -0.4720 ha        1 0YO      0.153000
     31 H3         -2.0160    0.5950   -5.9010 ha        1 0YO      0.152000
     32 H4         -4.3170   -0.3250   -6.1540 ha        1 0YO      0.136000
     33 H5         -5.5570   -1.1980   -4.1910 ha        1 0YO      0.135000
     34 H6         -4.5080   -1.1680   -1.9220 ha        1 0YO      0.135000
     35 H7          3.7810   -0.7010   -0.8630 ha        1 0YO      0.186000
     36 H8          8.9390   -0.1440    2.2850 h1        1 0YO      0.038700
     37 H9          7.1360    1.3890    2.5380 hc        1 0YO      0.064200
     38 H10         6.7310    0.0290    3.6690 hc        1 0YO      0.064200
     39 H11         0.4940   -0.5080    4.8130 h1        1 0YO      0.050700
     40 H12         0.5000    1.3240    4.9730 h1        1 0YO      0.050700
     41 H13         1.8950    0.3390    5.6550 h1        1 0YO      0.050700
     42 H14         4.0160    0.7320    3.1430 hn        1 0YO      0.314700
     43 H15         0.9160    1.1800   -2.3540 h4        1 0YO      0.043100
     44 H16         7.8540   -1.6030    2.4160 h1        1 0YO      0.038700
     45 H17         8.7650   -0.9830    0.1020 hn        1 0YO      0.318500
@<TRIPOS>BOND
     1    1   23 ar  
     2    1   24 ar  
     3    1   25 1   
     4    2    3 ar  
     5    2   24 ar  
     6    2   29 1   
     7    3   22 ar  
     8    3   28 1   
     9    4    5 ar  
    10    4   25 ar  
    11    4   30 1   
    12    5    6 ar  
    13    5   10 ar  
    14    6    7 ar  
    15    6   26 ar  
    16    7    8 ar  
    17    7   31 1   
    18    8    9 ar  
    19    8   32 1   
    20    9   10 ar  
    21    9   33 1   
    22   10   34 1   
    23   11   12 2   
    24   11   21 1   
    25   11   22 1   
    26   12   17 1   
    27   12   35 1   
    28   13   15 1   
    29   13   17 2   
    30   13   21 1   
    31   14   15 1   
    32   14   20 1   
    33   14   36 1   
    34   14   44 1   
    35   15   37 1   
    36   15   38 1   
    37   16   28 1   
    38   16   39 1   
    39   16   40 1   
    40   16   41 1   
    41   17   18 1   
    42   18   19 2   
    43   18   20 1   
    44   20   45 1   
    45   21   42 1   
    46   22   23 ar  
    47   25   27 ar  
    48   26   27 ar  
    49   27   43 1   
@<TRIPOS>SUBSTRUCTURE
     1 0YO         1 TEMP              0 ****  ****    0 ROOT
