@<TRIPOS>MOLECULE
0YO
   45    49     1     0     0
SMALL
bcc


@<TRIPOS>ATOM
      1 C1         -0.0590    0.3390    0.0790 cp        1 0YO      0.692500
      2 C2         -0.1710    0.5760    2.3730 ca        1 0YO      0.376200
      3 C3          1.2320    0.4430    2.4690 ca        1 0YO     -0.127500
      4 C7         -2.0340   -0.2310   -1.3380 ca        1 0YO     -0.036000
      5 C8         -2.6620   -0.2590   -2.6160 ca        1 0YO     -0.161300
      6 C9         -1.9400    0.2490   -3.7400 ca        1 0YO      0.405600
      7 C10        -2.5710    0.2190   -5.0250 ca        1 0YO     -0.168300
      8 C11        -3.8400   -0.2880   -5.1600 ca        1 0YO     -0.118000
      9 C12        -4.5470   -0.7880   -4.0420 ca        1 0YO     -0.132000
     10 C13        -3.9710   -0.7750   -2.7950 ca        1 0YO     -0.105000
     11 C14         3.4090    0.0850    1.2000 cc        1 0YO     -0.223800
     12 C15         4.1670   -0.3880    0.1020 cd        1 0YO     -0.045000
     13 C16         5.5770    0.1130    1.8410 cc        1 0YO     -0.058600
     14 C19         7.9440   -0.5740    1.9610 c3        1 0YO      0.109000
     15 C20         6.8400    0.2990    2.5830 c3        1 0YO     -0.028100
     16 C21         1.1340    0.4020    4.8430 c3        1 0YO      0.114700
     17 C17         5.5310   -0.3730    0.5080 cd        1 0YO     -0.229600
     18 C18         6.7490   -0.7440   -0.2070 c         1 0YO      0.742100
     19 O1          6.7950   -1.0810   -1.4060 o         1 0YO     -0.635500
     20 N5          7.9330   -0.6570    0.5280 ns        1 0YO     -0.579900
     21 N4          4.2930    0.3930    2.2510 na        1 0YO     -0.131100
     22 C4          1.9640    0.2500    1.2560 ca        1 0YO      0.532800
     23 N2          1.3020    0.2020    0.0700 nb        1 0YO     -0.673000
     24 N1         -0.8250    0.5260    1.2040 nb        1 0YO     -0.674000
     25 C5         -0.7600    0.2810   -1.2240 cp        1 0YO     -0.259800
     26 N3         -0.6610    0.7610   -3.6090 nb        1 0YO     -0.662000
     27 C6         -0.1110    0.7690   -2.4110 ca        1 0YO      0.449200
     28 O2          1.9210    0.5160    3.6590 os        1 0YO     -0.337900
     29 H1         -0.8000    0.7270    3.2690 h4        1 0YO      0.032100
     30 H2         -2.5860   -0.6210   -0.4690 ha        1 0YO      0.153000
     31 H3         -2.0220    0.6080   -5.8970 ha        1 0YO      0.152000
     32 H4         -4.3240   -0.3100   -6.1480 ha        1 0YO      0.136000
     33 H5         -5.5620   -1.1870   -4.1860 ha        1 0YO      0.135000
     34 H6         -4.5110   -1.1610   -1.9180 ha        1 0YO      0.135000
     35 H7          3.7800   -0.7000   -0.8670 ha        1 0YO      0.186000
     36 H8          8.9410   -0.1520    2.2780 h1        1 0YO      0.038700
     37 H9          7.1390    1.3820    2.5350 hc        1 0YO      0.064200
     38 H10         6.7350    0.0200    3.6640 hc        1 0YO      0.064200
     39 H11         0.4990   -0.5160    4.8120 h1        1 0YO      0.050700
     40 H12         0.5050    1.3150    4.9770 h1        1 0YO      0.050700
     41 H13         1.9000    0.3280    5.6560 h1        1 0YO      0.050700
     42 H14         4.0190    0.7250    3.1420 hn        1 0YO      0.314700
     43 H15         0.9140    1.1850   -2.3520 h4        1 0YO      0.043100
     44 H16         7.8550   -1.6100    2.4060 h1        1 0YO      0.038700
     45 H17         8.7640   -0.9860    0.0930 hn        1 0YO      0.318500
@<TRIPOS>BOND
     1    1   23 ar  
     2    1   24 ar  
     3    1   25 1   
     4    2    3 ar  
     5    2   24 ar  
     6    2   29 1   
     7    3   22 ar  
     8    3   28 1   
     9    4    5 ar  
    10    4   25 ar  
    11    4   30 1   
    12    5    6 ar  
    13    5   10 ar  
    14    6    7 ar  
    15    6   26 ar  
    16    7    8 ar  
    17    7   31 1   
    18    8    9 ar  
    19    8   32 1   
    20    9   10 ar  
    21    9   33 1   
    22   10   34 1   
    23   11   12 2   
    24   11   21 1   
    25   11   22 1   
    26   12   17 1   
    27   12   35 1   
    28   13   15 1   
    29   13   17 2   
    30   13   21 1   
    31   14   15 1   
    32   14   20 1   
    33   14   36 1   
    34   14   44 1   
    35   15   37 1   
    36   15   38 1   
    37   16   28 1   
    38   16   39 1   
    39   16   40 1   
    40   16   41 1   
    41   17   18 1   
    42   18   19 2   
    43   18   20 1   
    44   20   45 1   
    45   21   42 1   
    46   22   23 ar  
    47   25   27 ar  
    48   26   27 ar  
    49   27   43 1   
@<TRIPOS>SUBSTRUCTURE
     1 0YO         1 TEMP              0 ****  ****    0 ROOT
