@<TRIPOS>MOLECULE
0YO
   45    49     1     0     0
SMALL
bcc


@<TRIPOS>ATOM
      1 C1         -1.3930    1.0430   -0.2870 cp        1 0YO      0.692500
      2 C2         -0.4130    3.1330   -0.3280 ca        1 0YO      0.376200
      3 C3          0.8710    2.5460   -0.2750 ca        1 0YO     -0.127500
      4 C7         -3.7950    0.6660    0.2840 ca        1 0YO     -0.036000
      5 C8         -4.9510   -0.1650    0.2460 ca        1 0YO     -0.161300
      6 C9         -4.8530   -1.4370   -0.3960 ca        1 0YO      0.405600
      7 C10        -6.0150   -2.2730   -0.4330 ca        1 0YO     -0.168300
      8 C11        -7.1890   -1.8480    0.1370 ca        1 0YO     -0.118000
      9 C12        -7.2780   -0.5860    0.7700 ca        1 0YO     -0.132000
     10 C13        -6.1820    0.2390    0.8240 ca        1 0YO     -0.105000
     11 C14         2.1970    0.3770   -0.1540 cc        1 0YO     -0.223800
     12 C15         2.3530   -0.9900    0.1790 cd        1 0YO     -0.045000
     13 C16         4.4090   -0.0730   -0.2630 cc        1 0YO     -0.058600
     14 C19         6.5630   -1.1450    0.2850 c3        1 0YO      0.109000
     15 C20         5.8700    0.0060   -0.4650 c3        1 0YO     -0.028100
     16 C21         1.9050    4.6720   -0.0330 c3        1 0YO      0.114700
     17 C17         3.7470   -1.2700    0.1140 cd        1 0YO     -0.229600
     18 C18         4.4890   -2.5060    0.3510 c         1 0YO      0.742100
     19 O1          3.9690   -3.6130    0.5860 o         1 0YO     -0.635500
     20 N5          5.8780   -2.4070    0.2520 n         1 0YO     -0.579900
     21 N4          3.4660    0.9160   -0.4300 na        1 0YO     -0.131100
     22 C4          0.9460    1.1200   -0.2260 ca        1 0YO      0.532800
     23 N2         -0.1960    0.3840   -0.2350 nb        1 0YO     -0.673000
     24 N1         -1.5410    2.4080   -0.3350 nb        1 0YO     -0.674000
     25 C5         -2.6260    0.2220   -0.2940 cp        1 0YO     -0.259800
     26 N3         -3.6720   -1.8700   -0.9730 nb        1 0YO     -0.662000
     27 C6         -2.6220   -1.0750   -0.9170 ca        1 0YO      0.449200
     28 O2          2.0390    3.2760   -0.2920 os        1 0YO     -0.337900
     29 H1         -0.5480    4.2290   -0.3670 h4        1 0YO      0.032100
     30 H2         -3.8650    1.6490    0.7770 ha        1 0YO      0.153000
     31 H3         -5.9490   -3.2560   -0.9250 ha        1 0YO      0.152000
     32 H4         -8.0820   -2.4920    0.1080 ha        1 0YO      0.136000
     33 H5         -8.2350   -0.2780    1.2170 ha        1 0YO      0.135000
     34 H6         -6.2380    1.2240    1.3130 ha        1 0YO      0.135000
     35 H7          1.5600   -1.6900    0.4340 ha        1 0YO      0.186000
     36 H8          7.5850   -1.2920   -0.1690 h1        1 0YO      0.038700
     37 H9          6.0940   -0.0670   -1.5640 hc        1 0YO      0.064200
     38 H10         6.2920    0.9760   -0.0920 hc        1 0YO      0.064200
     39 H11         1.3450    4.8500    0.9170 h1        1 0YO      0.050700
     40 H12         2.9660    5.0190    0.0600 h1        1 0YO      0.050700
     41 H13         1.4010    5.1760   -0.8920 h1        1 0YO      0.050700
     42 H14         3.6410    1.8600   -0.6700 hn        1 0YO      0.314700
     43 H15        -1.6970   -1.4610   -1.3870 h4        1 0YO      0.043100
     44 H16         6.7110   -0.8170    1.3580 h1        1 0YO      0.038700
     45 H17         6.4110   -3.2100    0.4930 hn        1 0YO      0.318500
@<TRIPOS>BOND
     1    1   23 ar  
     2    1   24 ar  
     3    1   25 1   
     4    2    3 ar  
     5    2   24 ar  
     6    2   29 1   
     7    3   22 ar  
     8    3   28 1   
     9    4    5 ar  
    10    4   25 ar  
    11    4   30 1   
    12    5    6 ar  
    13    5   10 ar  
    14    6    7 ar  
    15    6   26 ar  
    16    7    8 ar  
    17    7   31 1   
    18    8    9 ar  
    19    8   32 1   
    20    9   10 ar  
    21    9   33 1   
    22   10   34 1   
    23   11   12 2   
    24   11   21 1   
    25   11   22 1   
    26   12   17 1   
    27   12   35 1   
    28   13   15 1   
    29   13   17 2   
    30   13   21 1   
    31   14   15 1   
    32   14   20 1   
    33   14   36 1   
    34   14   44 1   
    35   15   37 1   
    36   15   38 1   
    37   16   28 1   
    38   16   39 1   
    39   16   40 1   
    40   16   41 1   
    41   17   18 1   
    42   18   19 2   
    43   18   20 1   
    44   20   45 1   
    45   21   42 1   
    46   22   23 ar  
    47   25   27 ar  
    48   26   27 ar  
    49   27   43 1   
@<TRIPOS>SUBSTRUCTURE
     1 0YO         1 TEMP              0 ****  ****    0 ROOT
