@<TRIPOS>MOLECULE
0YP
   54    56     1     0     0
SMALL
bcc


@<TRIPOS>ATOM
      1 C1          1.5260   -0.3930   -1.3180 c         1 0YP      0.581700
      2 N1          1.9460    0.9510   -0.7030 n4        1 0YP     -0.546600
      3 O1          2.3950   -1.2380   -1.4240 o         1 0YP     -0.373100
      4 C2          2.4110    0.8400    0.6760 ce        1 0YP     -0.158200
      5 N2          0.7820    2.0080    2.1510 n         1 0YP     -0.427800
      6 O2          0.7720   -0.2960    1.9580 o         1 0YP     -0.569100
      7 C3          1.2870    0.8080    1.6960 c         1 0YP      0.655300
      8 C4         -0.1840    1.9900    3.2460 c3        1 0YP      0.071500
      9 C5          0.3770    2.4900    4.5750 c3        1 0YP     -0.100900
     10 C6          1.0460    3.8380    4.4150 c3        1 0YP     -0.084400
     11 C7          2.0850    3.8060    3.3150 c3        1 0YP     -0.100900
     12 C8          1.4990    3.2630    2.0110 c3        1 0YP      0.071500
     13 C9          3.7150    0.7070    1.0270 cf        1 0YP      0.172500
     14 C10         4.1170    0.5020    2.4110 ca        1 0YP     -0.179800
     15 C11         4.9280    1.4340    3.0990 ca        1 0YP      0.176100
     16 C12         5.3720    1.1590    4.4010 ca        1 0YP     -0.204000
     17 C13         5.0030   -0.0320    5.0180 ca        1 0YP     -0.045000
     18 C14         4.1780   -0.9470    4.3580 ca        1 0YP     -0.157000
     19 C15         3.7330   -0.6800    3.0690 ca        1 0YP     -0.051000
     20 C16         0.1240   -0.4420   -1.7600 ca        1 0YP     -0.171600
     21 C17        -0.9230   -0.2260   -0.8560 ca        1 0YP     -0.084500
     22 C18        -2.2430   -0.3290   -1.2920 ca        1 0YP     -0.067500
     23 C19        -2.5000   -0.6430   -2.6350 ca        1 0YP     -0.122200
     24 C20        -1.4520   -0.8760   -3.5400 ca        1 0YP     -0.067500
     25 C21        -0.1350   -0.7790   -3.0950 ca        1 0YP     -0.084500
     26 N01        -3.9170   -0.7400   -3.1100 no        1 0YP      0.310200
     27 O01        -4.1130   -1.0260   -4.2560 o         1 0YP     -0.169000
     28 C02         6.1960    3.4530    3.0040 c3        1 0YP      0.110700
     29 O02        -4.7930   -0.5200   -2.3220 o         1 0YP     -0.169000
     30 O03         5.1940    2.6090    2.4330 os        1 0YP     -0.343900
     31 BR1         5.0880    0.7260   -0.2620 br        1 0YP      0.001300
     32 H1          2.7040    1.3440   -1.2830 hn        1 0YP      0.464800
     33 H3         -1.0340    2.6590    2.9270 h1        1 0YP      0.065700
     34 H4         -0.5810    0.9430    3.3780 h1        1 0YP      0.065700
     35 H5         -0.4730    2.5680    5.3030 hc        1 0YP      0.063700
     36 H6          1.1080    1.7470    4.9870 hc        1 0YP      0.063700
     37 H7          0.2720    4.6150    4.1770 hc        1 0YP      0.058700
     38 H8          1.5320    4.1350    5.3810 hc        1 0YP      0.058700
     39 H9          2.9610    3.1770    3.6260 hc        1 0YP      0.063700
     40 H10         2.4660    4.8420    3.1180 hc        1 0YP      0.063700
     41 H11         0.7520    4.0100    1.6120 h1        1 0YP      0.065700
     42 H12         2.3290    3.1570    1.2590 h1        1 0YP      0.065700
     43 H14         6.0140    1.8760    4.9340 ha        1 0YP      0.159000
     44 H15         5.3610   -0.2510    6.0370 ha        1 0YP      0.157000
     45 H16         3.8810   -1.8820    4.8570 ha        1 0YP      0.161000
     46 H17         3.0730   -1.3960    2.5520 ha        1 0YP      0.159000
     47 H18        -0.7200   -0.0200    0.2100 ha        1 0YP      0.174500
     48 H19        -3.0790   -0.1720   -0.5840 ha        1 0YP      0.200000
     49 H20        -1.6690   -1.1410   -4.5930 ha        1 0YP      0.200000
     50 H21         0.6930   -0.9820   -3.7950 ha        1 0YP      0.174500
     51 H01         7.1470    2.8900    3.1590 h1        1 0YP      0.059367
     52 H04         5.8270    3.8880    3.9650 h1        1 0YP      0.059367
     53 H05         6.3270    4.2520    2.2310 h1        1 0YP      0.059367
     54 H121        1.1420    1.5920   -0.7220 hn        1 0YP      0.464800
@<TRIPOS>BOND
     1    1    2 1   
     2    1    3 2   
     3    1   20 1   
     4    2    4 1   
     5    2   32 1   
     6    2   54 1   
     7    4    7 1   
     8    4   13 2   
     9    5    7 1   
    10    5    8 1   
    11    5   12 1   
    12    6    7 2   
    13    8    9 1   
    14    8   33 1   
    15    8   34 1   
    16    9   10 1   
    17    9   35 1   
    18    9   36 1   
    19   10   11 1   
    20   10   37 1   
    21   10   38 1   
    22   11   12 1   
    23   11   39 1   
    24   11   40 1   
    25   12   41 1   
    26   12   42 1   
    27   13   14 1   
    28   13   31 1   
    29   14   15 ar  
    30   14   19 ar  
    31   15   16 ar  
    32   15   30 1   
    33   16   17 ar  
    34   16   43 1   
    35   17   18 ar  
    36   17   44 1   
    37   18   19 ar  
    38   18   45 1   
    39   19   46 1   
    40   20   21 ar  
    41   20   25 ar  
    42   21   22 ar  
    43   21   47 1   
    44   22   23 ar  
    45   22   48 1   
    46   23   24 ar  
    47   23   26 1   
    48   24   25 ar  
    49   24   49 1   
    50   25   50 1   
    51   26   27 1   
    52   26   29 1   
    53   28   30 1   
    54   28   51 1   
    55   28   52 1   
    56   28   53 1   
@<TRIPOS>SUBSTRUCTURE
     1 0YP         1 TEMP              0 ****  ****    0 ROOT
