@<TRIPOS>MOLECULE
0YP
   53    55     1     0     0
SMALL
bcc


@<TRIPOS>ATOM
      1 C1         -0.0950    0.5280   -0.0360 c         1 0YP      0.677700
      2 N1          1.2420    0.1540    0.0440 n         1 0YP     -0.473100
      3 O1         -0.6990    1.0630    0.9090 o         1 0YP     -0.559100
      4 C2          2.0320    0.2150    1.1950 ce        1 0YP      0.036400
      5 N2          1.2190    1.5470    3.1450 n         1 0YP     -0.430800
      6 O2          0.8760   -0.7320    3.0490 o         1 0YP     -0.594100
      7 C3          1.3100    0.3150    2.5300 c         1 0YP      0.683300
      8 C4          0.4110    1.6630    4.3450 c3        1 0YP      0.086000
      9 C5          0.8640    2.7930    5.2670 c3        1 0YP     -0.084900
     10 C6          0.9910    4.0960    4.5070 c3        1 0YP     -0.079400
     11 C7          1.9150    3.9310    3.3220 c3        1 0YP     -0.084900
     12 C8          1.4870    2.7710    2.4220 c3        1 0YP      0.086000
     13 C9          3.3850    0.0830    1.1730 cf        1 0YP     -0.041500
     14 C10         4.2050    0.0920    2.3770 ca        1 0YP     -0.087800
     15 C11         4.9530    1.2310    2.7560 ca        1 0YP      0.152100
     16 C12         5.7750    1.1970    3.8910 ca        1 0YP     -0.210000
     17 C13         5.8490    0.0330    4.6530 ca        1 0YP     -0.082000
     18 C14         5.1080   -1.0920    4.2970 ca        1 0YP     -0.165000
     19 C15         4.2930   -1.0610    3.1680 ca        1 0YP     -0.063000
     20 C16        -0.7730    0.2530   -1.3390 ca        1 0YP     -0.104600
     21 C17        -2.0540   -0.3100   -1.3060 ca        1 0YP     -0.101500
     22 C18        -2.7360   -0.5680   -2.4930 ca        1 0YP     -0.074500
     23 C19        -2.1230   -0.2490   -3.7160 ca        1 0YP     -0.156200
     24 C20        -0.8430    0.3270   -3.7550 ca        1 0YP     -0.074500
     25 C21        -0.1720    0.5740   -2.5600 ca        1 0YP     -0.101500
     26 N01        -2.8430   -0.5210   -4.9900 no        1 0YP      0.311200
     27 O01        -2.3080   -0.2410   -6.0290 o         1 0YP     -0.200500
     28 C02         5.6520    3.4490    2.2430 c3        1 0YP      0.111700
     29 O02        -3.9370   -1.0140   -4.9450 o         1 0YP     -0.200500
     30 O03         4.7960    2.3480    1.9590 os        1 0YP     -0.324900
     31 BR1         4.3380   -0.1790   -0.4320 br        1 0YP     -0.082700
     32 H1          1.6660   -0.2410   -0.7690 hn        1 0YP      0.334500
     33 H3          0.4590    0.6840    4.9030 h1        1 0YP      0.057450
     34 H4         -0.6630    1.8410    4.0460 h1        1 0YP      0.057450
     35 H5          0.1090    2.8960    6.0880 hc        1 0YP      0.048700
     36 H6          1.8480    2.5320    5.7370 hc        1 0YP      0.048700
     37 H7         -0.0220    4.4230    4.1520 hc        1 0YP      0.042700
     38 H8          1.3840    4.8960    5.1870 hc        1 0YP      0.042700
     39 H9          2.9650    3.7560    3.6780 hc        1 0YP      0.048700
     40 H10         1.9170    4.8650    2.7020 hc        1 0YP      0.048700
     41 H11         2.3160    2.5830    1.6780 h1        1 0YP      0.057450
     42 H12         0.5570    3.0700    1.8540 h1        1 0YP      0.057450
     43 H14         6.3600    2.0780    4.1870 ha        1 0YP      0.138000
     44 H15         6.4960    0.0090    5.5430 ha        1 0YP      0.134000
     45 H16         5.1630   -2.0050    4.9060 ha        1 0YP      0.139000
     46 H17         3.6970   -1.9460    2.8930 ha        1 0YP      0.151000
     47 H18        -2.5250   -0.5390   -0.3350 ha        1 0YP      0.164000
     48 H19        -3.7450   -1.0150   -2.4730 ha        1 0YP      0.178000
     49 H20        -0.3750    0.5810   -4.7220 ha        1 0YP      0.178000
     50 H21         0.8260    1.0390   -2.5920 ha        1 0YP      0.164000
     51 H01         6.7260    3.1440    2.1970 h1        1 0YP      0.045700
     52 H04         5.4140    4.1790    1.4280 h1        1 0YP      0.045700
     53 H05         5.4080    3.8840    3.2430 h1        1 0YP      0.045700
@<TRIPOS>BOND
     1    1    2 1   
     2    1    3 2   
     3    1   20 1   
     4    2    4 1   
     5    2   32 1   
     6    4    7 1   
     7    4   13 2   
     8    5    7 1   
     9    5    8 1   
    10    5   12 1   
    11    6    7 2   
    12    8    9 1   
    13    8   33 1   
    14    8   34 1   
    15    9   10 1   
    16    9   35 1   
    17    9   36 1   
    18   10   11 1   
    19   10   37 1   
    20   10   38 1   
    21   11   12 1   
    22   11   39 1   
    23   11   40 1   
    24   12   41 1   
    25   12   42 1   
    26   13   14 1   
    27   13   31 1   
    28   14   15 ar  
    29   14   19 ar  
    30   15   16 ar  
    31   15   30 1   
    32   16   17 ar  
    33   16   43 1   
    34   17   18 ar  
    35   17   44 1   
    36   18   19 ar  
    37   18   45 1   
    38   19   46 1   
    39   20   21 ar  
    40   20   25 ar  
    41   21   22 ar  
    42   21   47 1   
    43   22   23 ar  
    44   22   48 1   
    45   23   24 ar  
    46   23   26 1   
    47   24   25 ar  
    48   24   49 1   
    49   25   50 1   
    50   26   27 1   
    51   26   29 1   
    52   28   30 1   
    53   28   51 1   
    54   28   52 1   
    55   28   53 1   
@<TRIPOS>SUBSTRUCTURE
     1 0YP         1 TEMP              0 ****  ****    0 ROOT
