@<TRIPOS>MOLECULE
0YP
   54    56     1     0     0
SMALL
bcc


@<TRIPOS>ATOM
      1 C1          1.5690   -0.3750   -1.3300 c         1 0YP      0.581700
      2 N1          1.9660    0.9710   -0.7020 ny        1 0YP     -0.546600
      3 O1          2.4500   -1.2070   -1.4350 o         1 0YP     -0.373100
      4 C2          2.4220    0.8570    0.6800 ce        1 0YP     -0.158200
      5 N2          0.7660    1.9920    2.1500 n         1 0YP     -0.427800
      6 O2          0.7890   -0.3100    1.9420 o         1 0YP     -0.569100
      7 C3          1.2910    0.8020    1.6910 c         1 0YP      0.655300
      8 C4         -0.2070    1.9530    3.2380 c3        1 0YP      0.071500
      9 C5          0.3370    2.4530    4.5740 c3        1 0YP     -0.100900
     10 C6          0.9890    3.8110    4.4270 c3        1 0YP     -0.084400
     11 C7          2.0360    3.8010    3.3340 c3        1 0YP     -0.100900
     12 C8          1.4670    3.2580    2.0230 c3        1 0YP      0.071500
     13 C9          3.7250    0.7380    1.0390 cf        1 0YP      0.172500
     14 C10         4.1190    0.5300    2.4240 ca        1 0YP     -0.179800
     15 C11         4.9130    1.4680    3.1240 ca        1 0YP      0.176100
     16 C12         5.3510    1.1900    4.4280 ca        1 0YP     -0.204000
     17 C13         4.9940   -0.0090    5.0350 ca        1 0YP     -0.045000
     18 C14         4.1860   -0.9310    4.3620 ca        1 0YP     -0.157000
     19 C15         3.7470   -0.6610    3.0720 ca        1 0YP     -0.051000
     20 C16         0.1710   -0.4400   -1.7820 ca        1 0YP     -0.171600
     21 C17        -0.8860   -0.2440   -0.8850 ca        1 0YP     -0.084500
     22 C18        -2.2010   -0.3620   -1.3310 ca        1 0YP     -0.067500
     23 C19        -2.4440   -0.6710   -2.6780 ca        1 0YP     -0.122200
     24 C20        -1.3870   -0.8830   -3.5770 ca        1 0YP     -0.067500
     25 C21        -0.0740   -0.7720   -3.1220 ca        1 0YP     -0.084500
     26 N01        -3.8570   -0.7830   -3.1640 no        1 0YP      0.310200
     27 O01        -4.0400   -1.0650   -4.3130 o         1 0YP     -0.169000
     28 C02         6.1540    3.5040    3.0520 c3        1 0YP      0.110700
     29 O02        -4.7410   -0.5800   -2.3810 o         1 0YP     -0.169000
     30 O03         5.1680    2.6510    2.4680 os        1 0YP     -0.343900
     31 Br1         5.1070    0.7850   -0.2400 br        1 0YP      0.001300
     32 H1          2.7220    1.3770   -1.2750 hn        1 0YP      0.464800
     33 H3         -0.5900    0.9010    3.3600 h1        1 0YP      0.065700
     34 H4         -1.0640    2.6130    2.9170 h1        1 0YP      0.065700
     35 H5          1.0760    1.7170    4.9860 hc        1 0YP      0.063700
     36 H6         -0.5180    2.5150    5.2960 hc        1 0YP      0.063700
     37 H7          1.4640    4.1090    5.3990 hc        1 0YP      0.058700
     38 H8          0.2060    4.5790    4.1890 hc        1 0YP      0.058700
     39 H9          2.9190    3.1810    3.6470 hc        1 0YP      0.063700
     40 H10         2.4040    4.8430    3.1470 hc        1 0YP      0.063700
     41 H11         2.3040    3.1680    1.2760 h1        1 0YP      0.065700
     42 H12         0.7130    3.9970    1.6230 h1        1 0YP      0.065700
     43 H14         5.9790    1.9130    4.9710 ha        1 0YP      0.159000
     44 H15         5.3470   -0.2310    6.0550 ha        1 0YP      0.157000
     45 H16         3.8980   -1.8740    4.8530 ha        1 0YP      0.161000
     46 H17         3.1000   -1.3830    2.5450 ha        1 0YP      0.159000
     47 H18        -0.6930   -0.0430    0.1840 ha        1 0YP      0.174500
     48 H19        -3.0440   -0.2200   -0.6280 ha        1 0YP      0.200000
     49 H20        -1.5920   -1.1440   -4.6330 ha        1 0YP      0.200000
     50 H21         0.7620   -0.9590   -3.8160 ha        1 0YP      0.174500
     51 H01         5.7730    3.9280    4.0130 h1        1 0YP      0.059367
     52 H04         6.2800    4.3110    2.2850 h1        1 0YP      0.059367
     53 H05         7.1120    2.9530    3.2100 h1        1 0YP      0.059367
     54 H121        1.1540    1.6010   -0.7240 hn        1 0YP      0.464800
@<TRIPOS>BOND
     1    1    2 1   
     2    1    3 2   
     3    1   20 1   
     4    2    4 1   
     5    2   32 1   
     6    2   54 1   
     7    4    7 1   
     8    4   13 2   
     9    5    7 1   
    10    5    8 1   
    11    5   12 1   
    12    6    7 2   
    13    8    9 1   
    14    8   33 1   
    15    8   34 1   
    16    9   10 1   
    17    9   35 1   
    18    9   36 1   
    19   10   11 1   
    20   10   37 1   
    21   10   38 1   
    22   11   12 1   
    23   11   39 1   
    24   11   40 1   
    25   12   41 1   
    26   12   42 1   
    27   13   14 1   
    28   13   31 1   
    29   14   15 ar  
    30   14   19 ar  
    31   15   16 ar  
    32   15   30 1   
    33   16   17 ar  
    34   16   43 1   
    35   17   18 ar  
    36   17   44 1   
    37   18   19 ar  
    38   18   45 1   
    39   19   46 1   
    40   20   21 ar  
    41   20   25 ar  
    42   21   22 ar  
    43   21   47 1   
    44   22   23 ar  
    45   22   48 1   
    46   23   24 ar  
    47   23   26 1   
    48   24   25 ar  
    49   24   49 1   
    50   25   50 1   
    51   26   27 1   
    52   26   29 1   
    53   28   30 1   
    54   28   51 1   
    55   28   52 1   
    56   28   53 1   
@<TRIPOS>SUBSTRUCTURE
     1 0YP         1 TEMP              0 ****  ****    0 ROOT
