@<TRIPOS>MOLECULE
0YP
   53    55     1     0     0
SMALL
bcc


@<TRIPOS>ATOM
      1 C1         -1.7120    0.9130    0.0740 c         1 0YP      0.677700
      2 N1         -0.8310   -0.1120    0.3990 n         1 0YP     -0.473100
      3 O1         -1.3310    2.0640   -0.2000 o         1 0YP     -0.559100
      4 C2          0.5480    0.0310    0.5740 ce        1 0YP      0.036400
      5 N2          1.6540    2.1200   -0.2310 n         1 0YP     -0.430800
      6 O2          1.0200    1.8980    1.9750 o         1 0YP     -0.594100
      7 C3          1.0760    1.4370    0.8190 c         1 0YP      0.683300
      8 C4          2.0280    3.5080   -0.0300 c3        1 0YP      0.086000
      9 C5          3.1750    3.9580   -0.9340 c3        1 0YP     -0.084900
     10 C6          2.8890    3.6230   -2.3810 c3        1 0YP     -0.079400
     11 C7          2.5950    2.1470   -2.5370 c3        1 0YP     -0.084900
     12 C8          1.4760    1.6880   -1.6010 c3        1 0YP      0.086000
     13 C9          1.4000   -1.0260    0.6390 cf        1 0YP     -0.041500
     14 C10         2.8310   -0.8810    0.8770 ca        1 0YP     -0.087800
     15 C11         3.7710   -0.9950   -0.1740 ca        1 0YP      0.152100
     16 C12         5.1450   -0.9040    0.0880 ca        1 0YP     -0.210000
     17 C13         5.5850   -0.6930    1.3930 ca        1 0YP     -0.082000
     18 C14         4.6680   -0.5670    2.4350 ca        1 0YP     -0.165000
     19 C15         3.3020   -0.6600    2.1760 ca        1 0YP     -0.063000
     20 C16        -3.1630    0.5500    0.0680 ca        1 0YP     -0.104600
     21 C17        -4.0620    1.4320    0.6770 ca        1 0YP     -0.101500
     22 C18        -5.4260    1.1470    0.6810 ca        1 0YP     -0.074500
     23 C19        -5.8800   -0.0270    0.0600 ca        1 0YP     -0.156200
     24 C20        -4.9840   -0.9090   -0.5640 ca        1 0YP     -0.074500
     25 C21        -3.6230   -0.6140   -0.5540 ca        1 0YP     -0.101500
     26 N01        -7.3360   -0.3400    0.0590 no        1 0YP      0.311200
     27 O01        -7.7120   -1.3470   -0.4780 o         1 0YP     -0.200500
     28 C02         4.1800   -1.4370   -2.4780 c3        1 0YP      0.111700
     29 O02        -8.0940    0.4220    0.5950 o         1 0YP     -0.200500
     30 O03         3.2440   -1.1750   -1.4380 os        1 0YP     -0.324900
     31 BR1         0.8000   -2.8060    0.4810 br        1 0YP     -0.082700
     32 H1         -1.2130   -1.0180    0.5760 hn        1 0YP      0.334500
     33 H3          1.1280    4.1610   -0.2270 h1        1 0YP      0.057450
     34 H4          2.3280    3.6440    1.0480 h1        1 0YP      0.057450
     35 H5          3.3010    5.0640   -0.8100 hc        1 0YP      0.048700
     36 H6          4.1290    3.4660   -0.6120 hc        1 0YP      0.048700
     37 H7          2.0100    4.2210   -2.7390 hc        1 0YP      0.042700
     38 H8          3.7690    3.9030   -3.0170 hc        1 0YP      0.042700
     39 H9          2.2760    1.9270   -3.5880 hc        1 0YP      0.048700
     40 H10         3.5220    1.5490   -2.3290 hc        1 0YP      0.048700
     41 H11         1.4430    0.5590   -1.6260 h1        1 0YP      0.057450
     42 H12         0.4900    2.0850   -1.9840 h1        1 0YP      0.057450
     43 H14         5.8790   -0.9950   -0.7240 ha        1 0YP      0.138000
     44 H15         6.6640   -0.6220    1.5970 ha        1 0YP      0.134000
     45 H16         5.0190   -0.3920    3.4620 ha        1 0YP      0.139000
     46 H17         2.5760   -0.5490    2.9980 ha        1 0YP      0.151000
     47 H18        -3.6870    2.3570    1.1460 ha        1 0YP      0.164000
     48 H19        -6.1400    1.8380    1.1630 ha        1 0YP      0.178000
     49 H20        -5.3540   -1.8260   -1.0560 ha        1 0YP      0.178000
     50 H21        -2.9220   -1.3000   -1.0560 ha        1 0YP      0.164000
     51 H01         4.8050   -2.3300   -2.2380 h1        1 0YP      0.045700
     52 H04         3.5290   -1.6380   -3.3670 h1        1 0YP      0.045700
     53 H05         4.8230   -0.5410   -2.6580 h1        1 0YP      0.045700
@<TRIPOS>BOND
     1    1    2 1   
     2    1    3 2   
     3    1   20 1   
     4    2    4 1   
     5    2   32 1   
     6    4    7 1   
     7    4   13 2   
     8    5    7 1   
     9    5    8 1   
    10    5   12 1   
    11    6    7 2   
    12    8    9 1   
    13    8   33 1   
    14    8   34 1   
    15    9   10 1   
    16    9   35 1   
    17    9   36 1   
    18   10   11 1   
    19   10   37 1   
    20   10   38 1   
    21   11   12 1   
    22   11   39 1   
    23   11   40 1   
    24   12   41 1   
    25   12   42 1   
    26   13   14 1   
    27   13   31 1   
    28   14   15 ar  
    29   14   19 ar  
    30   15   16 ar  
    31   15   30 1   
    32   16   17 ar  
    33   16   43 1   
    34   17   18 ar  
    35   17   44 1   
    36   18   19 ar  
    37   18   45 1   
    38   19   46 1   
    39   20   21 ar  
    40   20   25 ar  
    41   21   22 ar  
    42   21   47 1   
    43   22   23 ar  
    44   22   48 1   
    45   23   24 ar  
    46   23   26 1   
    47   24   25 ar  
    48   24   49 1   
    49   25   50 1   
    50   26   27 1   
    51   26   29 1   
    52   28   30 1   
    53   28   51 1   
    54   28   52 1   
    55   28   53 1   
@<TRIPOS>SUBSTRUCTURE
     1 0YP         1 TEMP              0 ****  ****    0 ROOT
