@<TRIPOS>MOLECULE
0YQ
   54    55     1     0     0
SMALL
bcc


@<TRIPOS>ATOM
      1 O33         2.3960   -1.6280   -1.3210 o         1 0YQ     -0.870550
      2 C31         2.6240   -0.3790   -1.2900 c         1 0YQ      0.911100
      3 O32         1.6570    0.4330   -1.4830 o         1 0YQ     -0.870550
      4 C30         4.0310    0.1490   -0.9980 c3        1 0YQ      0.069300
      5 N25         4.3120    0.2720    0.4260 n3        1 0YQ     -0.711600
      6 C26         5.6400    0.7860    0.7260 c3        1 0YQ      0.069300
      7 C27         6.8460    0.1530   -0.0180 c         1 0YQ      0.911100
      8 O29         6.9320    0.2660   -1.2720 o         1 0YQ     -0.870550
      9 O28         7.7450   -0.3670    0.7050 o         1 0YQ     -0.870550
     10 C23         3.2850    1.0070    1.1440 c3        1 0YQ      0.101800
     11 C22         2.3210    0.1590    1.9870 c         1 0YQ      0.659100
     12 O24         1.7600    0.6940    2.9750 o         1 0YQ     -0.692100
     13 N21         2.0500   -1.1460    1.6400 n         1 0YQ     -0.545900
     14 C20         0.8750   -1.8150    2.1140 c3        1 0YQ      0.069000
     15 C19        -0.0490   -2.3810    1.0030 c3        1 0YQ      0.070000
     16 N17        -0.2850   -1.5060   -0.1080 n         1 0YQ     -0.528900
     17 C16        -1.3720   -0.6880   -0.1990 c         1 0YQ      0.648100
     18 O18        -2.3970   -0.8190    0.5180 o         1 0YQ     -0.694100
     19 C12        -1.3150    0.4000   -1.2820 c3        1 0YQ      0.016100
     20 C11        -1.2690    1.8040   -0.6370 c3        1 0YQ      0.120100
     21 O15        -0.2430    2.6110   -1.1690 oh        1 0YQ     -0.638800
     22 C10        -2.6180    2.4710   -1.0080 c3        1 0YQ      0.129100
     23 O14        -2.5090    3.5150   -1.9500 oh        1 0YQ     -0.606800
     24 O13        -2.4990    0.3320   -2.0870 os        1 0YQ     -0.420600
     25 C9         -3.4430    1.3240   -1.6730 c3        1 0YQ      0.259500
     26 N5         -4.5320    0.7080   -0.9040 n         1 0YQ     -0.358000
     27 C6         -5.2240   -0.2980   -1.5740 cc        1 0YQ      0.066600
     28 C1         -6.0320   -1.1970   -0.9560 cd        1 0YQ     -0.339200
     29 C4         -4.5740    0.7070    0.5260 c         1 0YQ      0.840500
     30 O8         -4.0380    1.5930    1.2210 o         1 0YQ     -0.637500
     31 N3         -5.3830   -0.2470    1.1830 n         1 0YQ     -0.572500
     32 C2         -6.1030   -1.2380    0.5070 c         1 0YQ      0.723700
     33 O7         -6.7700   -2.0660    1.1590 o         1 0YQ     -0.661500
     34 H2          4.7910   -0.5700   -1.4180 h1        1 0YQ      0.032950
     35 H3          4.1550    1.1340   -1.5320 h1        1 0YQ      0.032950
     36 H5          5.7020    1.8970    0.5230 h1        1 0YQ      0.032950
     37 H6          5.8050    0.6270    1.8290 h1        1 0YQ      0.032950
     38 H8          3.7340    1.7500    1.8640 h1        1 0YQ      0.057200
     39 H9          2.6040    1.5750    0.4390 h1        1 0YQ      0.057200
     40 H10         2.4910   -1.5290    0.8240 hn        1 0YQ      0.362500
     41 H11         1.1860   -2.6950    2.7480 h1        1 0YQ      0.043200
     42 H12         0.2810   -1.1120    2.7650 h1        1 0YQ      0.043200
     43 H13         0.4270   -3.3160    0.5880 h1        1 0YQ      0.050700
     44 H14        -1.0290   -2.6520    1.4860 h1        1 0YQ      0.050700
     45 H15         0.5110   -1.3220   -0.7110 hn        1 0YQ      0.391500
     46 H16        -0.4480    0.2480   -1.9960 h1        1 0YQ      0.163700
     47 H17        -1.1650    1.7320    0.4790 h1        1 0YQ      0.087700
     48 H18         0.5860    2.0950   -1.1490 ho        1 0YQ      0.486000
     49 H19        -3.1200    2.9300   -0.1170 h1        1 0YQ      0.123700
     50 H20        -1.7040    3.3740   -2.4700 ho        1 0YQ      0.431000
     51 H21        -3.9160    1.7000   -2.6310 h2        1 0YQ      0.083700
     52 H22        -5.0840   -0.3060   -2.6730 h4        1 0YQ      0.157000
     53 H23        -6.6160   -1.9420   -1.5050 ha        1 0YQ      0.160000
     54 H24        -5.2630   -0.3140    2.1700 hn        1 0YQ      0.344500
@<TRIPOS>BOND
     1    1    2 1   
     2    2    3 1   
     3    2    4 1   
     4    4    5 1   
     5    4   34 1   
     6    4   35 1   
     7    5    6 1   
     8    5   10 1   
     9    6    7 1   
    10    6   36 1   
    11    6   37 1   
    12    7    8 1   
    13    7    9 1   
    14   10   11 1   
    15   10   38 1   
    16   10   39 1   
    17   11   12 2   
    18   11   13 1   
    19   13   14 1   
    20   13   40 1   
    21   14   15 1   
    22   14   41 1   
    23   14   42 1   
    24   15   16 1   
    25   15   43 1   
    26   15   44 1   
    27   16   17 1   
    28   16   45 1   
    29   17   18 2   
    30   17   19 1   
    31   19   20 1   
    32   19   24 1   
    33   19   46 1   
    34   20   21 1   
    35   20   22 1   
    36   20   47 1   
    37   21   48 1   
    38   22   23 1   
    39   22   25 1   
    40   22   49 1   
    41   23   50 1   
    42   24   25 1   
    43   25   26 1   
    44   25   51 1   
    45   26   27 1   
    46   26   29 1   
    47   27   28 2   
    48   27   52 1   
    49   28   32 1   
    50   28   53 1   
    51   29   30 2   
    52   29   31 1   
    53   31   32 1   
    54   31   54 1   
    55   32   33 2   
@<TRIPOS>SUBSTRUCTURE
     1 0YQ         1 TEMP              0 ****  ****    0 ROOT
