@<TRIPOS>MOLECULE
0YQ
   57    58     1     0     0
SMALL
bcc


@<TRIPOS>ATOM
      1 O33         2.3500    4.3480   -1.1130 oh        1 0YQ     -0.552100
      2 C31         1.6700    4.3780   -2.2580 c         1 0YQ      0.687100
      3 O32         0.7840    5.2500   -2.3320 o         1 0YQ     -0.650000
      4 C30         1.9770    3.4290   -3.4030 c3        1 0YQ     -0.016200
      5 N25         1.2180    2.1440   -3.3040 nx        1 0YQ     -0.471200
      6 C26         1.6830    1.3200   -2.1420 c3        1 0YQ     -0.071200
      7 C27         3.2550    1.1210   -2.1670 c         1 0YQ      0.924600
      8 O29         3.9210    2.1360   -1.8160 o         1 0YQ     -0.755300
      9 O28         3.6550    0.0120   -2.5460 o         1 0YQ     -0.755300
     10 C23        -0.2120    2.3730   -3.2200 c2        1 0YQ     -0.387000
     11 C22        -0.8560    3.1990   -4.1120 c2        1 0YQ      0.515300
     12 O24        -0.4750    3.8170   -5.1360 o         1 0YQ     -0.701300
     13 N21        -2.3360    3.4850   -3.7930 ny        1 0YQ     -0.660800
     14 C20        -2.4940    4.7980   -3.1150 c3        1 0YQ      0.090800
     15 C19        -2.2880    6.0180   -4.0260 c3        1 0YQ      0.107800
     16 N17        -0.8790    6.4730   -4.1100 ny        1 0YQ     -0.680800
     17 C16        -0.6550    7.5520   -5.1430 c         1 0YQ      0.569100
     18 O18        -1.6290    8.1990   -5.4880 o         1 0YQ     -0.417100
     19 C12         0.7640    7.6680   -5.6810 c3        1 0YQ      0.060100
     20 C11         1.9030    7.3050   -4.6960 c3        1 0YQ      0.098100
     21 O15         2.5730    6.1540   -5.1330 oh        1 0YQ     -0.593800
     22 C10         2.7910    8.5700   -4.6330 c3        1 0YQ      0.090100
     23 O14         3.9350    8.3860   -5.4380 oh        1 0YQ     -0.587800
     24 O13         0.9430    9.0110   -6.1110 os        1 0YQ     -0.368600
     25 C9          1.9440    9.6870   -5.3230 c3        1 0YQ      0.300500
     26 N5          1.3520   10.6420   -4.4040 n         1 0YQ     -0.391000
     27 C6          1.5920   12.0090   -4.5850 cc        1 0YQ      0.036600
     28 C1          1.0580   12.9490   -3.7690 cd        1 0YQ     -0.270200
     29 C4          0.4450   10.2320   -3.3940 c         1 0YQ      0.844500
     30 O8          0.1300    9.0150   -3.2680 o         1 0YQ     -0.772500
     31 N3         -0.0910   11.1820   -2.5340 ns        1 0YQ     -0.571500
     32 C2          0.1730   12.5700   -2.6600 c         1 0YQ      0.708700
     33 O7         -0.3510   13.3440   -1.8520 o         1 0YQ     -0.549500
     34 H2          3.0910    3.1960   -3.4120 hx        1 0YQ      0.151200
     35 H3          1.7030    3.9420   -4.3730 hx        1 0YQ      0.151200
     36 H5          1.1850    0.3170   -2.2040 hx        1 0YQ      0.090200
     37 H6          1.3990    1.8420   -1.1910 hx        1 0YQ      0.090200
     38 H8          3.0440    3.6360   -1.1080 ho        1 0YQ      0.525000
     39 H9         -0.7100    1.8410   -2.3970 hx        1 0YQ      0.189000
     40 H10        -2.8540    3.4830   -4.6780 hn        1 0YQ      0.452300
     41 H11        -3.5480    4.8600   -2.7090 hx        1 0YQ      0.128700
     42 H12        -1.7710    4.8220   -2.2410 hx        1 0YQ      0.128700
     43 H13        -2.6500    5.8130   -5.0770 hx        1 0YQ      0.124200
     44 H14        -2.9020    6.8730   -3.6120 hx        1 0YQ      0.124200
     45 H15        -0.2480    5.6720   -4.3140 hn        1 0YQ      0.497800
     46 H16         0.8090    7.0280   -6.6140 h1        1 0YQ      0.135700
     47 H17         1.5450    7.0620   -3.6560 h1        1 0YQ      0.119700
     48 H18         3.1750    6.3980   -5.8560 ho        1 0YQ      0.445000
     49 H19         3.0550    8.8210   -3.5740 h1        1 0YQ      0.100700
     50 H20         4.6790    8.1850   -4.8540 ho        1 0YQ      0.442000
     51 H21         2.5670   10.2450   -6.0900 h2        1 0YQ      0.140700
     52 H22         2.2570   12.2730   -5.4310 h4        1 0YQ      0.182000
     53 H23         1.2550   14.0240   -3.8960 ha        1 0YQ      0.202000
     54 H24        -0.6950   10.8590   -1.8060 hn        1 0YQ      0.359500
     55 H251        1.4270    1.6120   -4.1630 hn        1 0YQ      0.458800
     56 H212       -2.7090    2.7510   -3.1860 hn        1 0YQ      0.452300
     57 H172       -0.5790    6.8580   -3.1930 hn        1 0YQ      0.497800
@<TRIPOS>BOND
     1    1    2 1   
     2    1   38 1   
     3    2    3 2   
     4    2    4 1   
     5    4    5 1   
     6    4   34 1   
     7    4   35 1   
     8    5    6 1   
     9    5   10 1   
    10    5   55 1   
    11    6    7 1   
    12    6   36 1   
    13    6   37 1   
    14    7    8 1   
    15    7    9 1   
    16   10   11 2   
    17   10   39 1   
    18   11   12 1   
    19   11   13 1   
    20   13   14 1   
    21   13   40 1   
    22   13   56 1   
    23   14   15 1   
    24   14   41 1   
    25   14   42 1   
    26   15   16 1   
    27   15   43 1   
    28   15   44 1   
    29   16   17 1   
    30   16   45 1   
    31   16   57 1   
    32   17   18 2   
    33   17   19 1   
    34   19   20 1   
    35   19   24 1   
    36   19   46 1   
    37   20   21 1   
    38   20   22 1   
    39   20   47 1   
    40   21   48 1   
    41   22   23 1   
    42   22   25 1   
    43   22   49 1   
    44   23   50 1   
    45   24   25 1   
    46   25   26 1   
    47   25   51 1   
    48   26   27 1   
    49   26   29 1   
    50   27   28 2   
    51   27   52 1   
    52   28   32 1   
    53   28   53 1   
    54   29   30 2   
    55   29   31 1   
    56   31   32 1   
    57   31   54 1   
    58   32   33 2   
@<TRIPOS>SUBSTRUCTURE
     1 0YQ         1 TEMP              0 ****  ****    0 ROOT
