@<TRIPOS>MOLECULE
0YQ
   54    51     1     0     0
SMALL
bcc


@<TRIPOS>ATOM
      1 O33         3.9370   -6.7140    0.6670 o         1 0YQ     -0.521000
      2 C31         3.7310   -5.4810    0.7860 c1        1 0YQ      0.306000
      3 O32         3.9770   -4.9060    1.8740 os        1 0YQ     -0.625000
      4 C30         3.1850   -4.6930   -0.3760 c3        1 0YQ     -0.078000
      5 N25         4.1870   -3.7780   -0.8460 n3        1 0YQ     -0.245000
      6 C26         4.8790   -4.3590   -1.9910 c3        1 0YQ     -0.126000
      7 C27         5.9470   -5.3340   -1.4990 c2        1 0YQ      0.303000
      8 O29         5.8580   -6.5580   -1.7800 o         1 0YQ     -0.594000
      9 O28         6.8900   -4.9220   -0.7720 o         1 0YQ     -0.594000
     10 C23         3.5530   -2.5270   -1.2440 c3        1 0YQ     -0.078000
     11 C22         3.5460   -1.5620   -0.0600 c1        1 0YQ      0.306000
     12 O24         3.9290   -1.9400    1.0350 o         1 0YQ     -0.521000
     13 N21         2.9870   -0.2460   -0.2100 n2        1 0YQ     -0.386000
     14 C20         2.4260    0.4410    0.9480 c3        1 0YQ     -0.022000
     15 C19         1.3610    1.5070    0.4640 c3        1 0YQ     -0.035000
     16 N17         0.1250    1.3080    1.1800 n         1 0YQ     -0.337000
     17 C16        -1.1350    1.6820    0.5680 c2        1 0YQ      0.284000
     18 O18        -1.3170    2.8340    0.1980 o         1 0YQ     -0.443000
     19 C12        -2.0910    0.8120    0.4730 c3        1 0YQ     -0.020000
     20 C11        -2.9400    1.0670   -0.9200 c3        1 0YQ     -0.020000
     21 O15        -2.7240   -0.0590   -1.8650 oh        1 0YQ     -0.377000
     22 C10        -4.1070    1.1170   -0.5910 c3        1 0YQ      0.005000
     23 O14        -4.7250   -0.2570   -0.6810 oh        1 0YQ     -0.319000
     24 O13        -3.1510    1.0810    1.5490 os        1 0YQ     -0.262000
     25 C9         -4.1390    1.6320    0.9370 c3        1 0YQ      0.111000
     26 N5         -4.0040    3.0620    0.9730 n3        1 0YQ     -0.254000
     27 C6         -4.3400    3.8400   -0.1800 c2        1 0YQ      0.083000
     28 C1         -4.4550    5.2930   -0.0680 c1        1 0YQ     -0.345000
     29 C4         -3.6730    3.7270    2.2260 c1        1 0YQ      0.400000
     30 O8         -3.2310    3.0880    3.1490 o         1 0YQ     -0.384000
     31 N3         -3.8610    5.1650    2.3600 n2        1 0YQ     -0.373000
     32 C2         -4.1930    5.9480    1.2190 c1        1 0YQ      0.359000
     33 O7         -4.2860    7.1550    1.3160 o         1 0YQ     -0.387000
     34 H2          2.3920   -4.1920   -0.0870 h1        1 0YQ      0.095500
     35 H3          2.9390   -5.3010   -1.0920 h1        1 0YQ      0.095500
     36 H5          5.3050   -3.6440   -2.5140 h1        1 0YQ      0.075000
     37 H6          4.2340   -4.8370   -2.5550 h1        1 0YQ      0.075000
     38 H8          2.6300   -2.7040   -1.5280 h1        1 0YQ      0.095500
     39 H9          4.0510   -2.1310   -1.9860 h1        1 0YQ      0.095500
     40 H10         3.0740    0.1950   -0.9970 hn        1 0YQ      0.265000
     41 H11         3.1440    0.8950    1.4390 h1        1 0YQ      0.075500
     42 H12         1.9900   -0.2140    1.5370 h1        1 0YQ      0.075500
     43 H13         1.6980    2.4080    0.6400 h1        1 0YQ      0.079500
     44 H14         1.2020    1.3990   -0.4990 h1        1 0YQ      0.079500
     45 H15         0.1290    0.8740    1.9700 hn        1 0YQ      0.295000
     46 H16        -1.5860   -0.0270    0.5420 h1        1 0YQ      0.153000
     47 H17        -2.6680    1.9130   -1.3330 h1        1 0YQ      0.200000
     48 H18        -2.6400    0.2620   -2.6980 ho        1 0YQ      0.282000
     49 H19        -4.5930    1.7430   -1.1680 h1        1 0YQ      0.125000
     50 H20        -5.4660   -0.2170   -1.1690 ho        1 0YQ      0.230000
     51 H21        -4.9880    1.3650    1.3630 h2        1 0YQ      0.153000
     52 H22        -4.5130    3.3990   -1.0350 h4        1 0YQ      0.223000
     53 H23        -4.6840    5.8300   -0.8540 ha        1 0YQ      0.172000
     54 H24        -3.7960    5.5610    3.1850 hn        1 0YQ      0.249000
@<TRIPOS>BOND
     1    1    2 1   
     2    2    4 1   
     3    4    5 1   
     4    4   34 1   
     5    4   35 1   
     6    5    6 1   
     7    5   10 1   
     8    6    7 1   
     9    6   36 1   
    10    6   37 1   
    11    7    8 1   
    12    7    9 1   
    13   10   11 1   
    14   10   38 1   
    15   10   39 1   
    16   11   12 1   
    17   13   14 1   
    18   13   40 1   
    19   14   15 1   
    20   14   41 1   
    21   14   42 1   
    22   15   16 1   
    23   15   43 1   
    24   15   44 1   
    25   16   17 1   
    26   16   45 1   
    27   17   18 1   
    28   17   19 1   
    29   19   20 1   
    30   19   24 1   
    31   19   46 1   
    32   20   21 1   
    33   20   22 1   
    34   20   47 1   
    35   21   48 1   
    36   22   23 1   
    37   22   25 1   
    38   22   49 1   
    39   23   50 1   
    40   24   25 1   
    41   25   26 1   
    42   25   51 1   
    43   26   27 1   
    44   26   29 1   
    45   27   28 1   
    46   27   52 1   
    47   28   53 1   
    48   29   30 1   
    49   31   32 1   
    50   31   54 1   
    51   32   33 1   
@<TRIPOS>SUBSTRUCTURE
     1 0YQ         1 TEMP              0 ****  ****    0 ROOT
