@<TRIPOS>MOLECULE
0YQ
   57    58     1     0     0
SMALL
bcc


@<TRIPOS>ATOM
      1 O33         0.3960    0.6420   -0.1020 oh        1 0YQ     -0.547100
      2 C31         0.3030    1.8160   -0.7350 c         1 0YQ      0.668100
      3 O32        -0.8450    2.2500   -0.9210 o         1 0YQ     -0.591000
      4 C30         1.5540    2.5480   -1.1990 c3        1 0YQ     -0.012200
      5 N25         1.7950    2.3110   -2.6630 n4        1 0YQ     -0.471200
      6 C26         2.2540    0.9100   -2.9210 c3        1 0YQ     -0.070200
      7 C27         3.4800    0.5380   -1.9850 c         1 0YQ      0.925600
      8 O29         3.1590    0.2330   -0.8050 o         1 0YQ     -0.760800
      9 O28         4.6030    0.6240   -2.5070 o         1 0YQ     -0.760800
     10 C23         0.5690    2.5950   -3.3820 c2        1 0YQ     -0.388000
     11 C22        -0.0350    3.8270   -3.2380 c2        1 0YQ      0.521300
     12 O24         0.4140    4.9560   -2.9260 o         1 0YQ     -0.721300
     13 N21        -1.5630    3.7850   -3.4360 n4        1 0YQ     -0.670800
     14 C20        -2.2360    5.1000   -3.3790 c3        1 0YQ      0.095800
     15 C19        -2.0100    6.0210   -4.5840 c3        1 0YQ      0.093800
     16 N17        -0.7160    6.7460   -4.5640 n4        1 0YQ     -0.679800
     17 C16        -0.6290    7.8750   -5.5710 c         1 0YQ      0.563100
     18 O18        -1.6750    8.4240   -5.8700 o         1 0YQ     -0.405100
     19 C12         0.7570    8.1690   -6.1260 c3        1 0YQ      0.060100
     20 C11         1.9520    7.8630   -5.1870 c3        1 0YQ      0.105100
     21 O15         2.6730    6.7660   -5.6750 oh        1 0YQ     -0.583800
     22 C10         2.7460    9.1880   -5.1190 c3        1 0YQ      0.091100
     23 O14         3.8360    9.1240   -6.0120 oh        1 0YQ     -0.586800
     24 O13         0.7850    9.5470   -6.4690 os        1 0YQ     -0.366600
     25 C9          1.7640   10.2640   -5.6880 c3        1 0YQ      0.297500
     26 N5          1.1390   11.1010   -4.6800 n         1 0YQ     -0.391000
     27 C6          1.2610   12.4930   -4.7740 cc        1 0YQ      0.033600
     28 C1          0.6810   13.3290   -3.8820 cd        1 0YQ     -0.265200
     29 C4          0.3010   10.5530   -3.6770 c         1 0YQ      0.846500
     30 O8          0.0910    9.3060   -3.6250 o         1 0YQ     -0.784500
     31 N3         -0.2820   11.3950   -2.7410 n         1 0YQ     -0.571500
     32 C2         -0.1350   12.8060   -2.7780 c         1 0YQ      0.707700
     33 O7         -0.6930   13.4770   -1.9040 o         1 0YQ     -0.543500
     34 H2          2.4600    2.2050   -0.6070 hx        1 0YQ      0.141200
     35 H3          1.4020    3.6550   -1.0430 hx        1 0YQ      0.141200
     36 H5          1.4120    0.2040   -2.6990 hx        1 0YQ      0.088700
     37 H6          2.5620    0.8360   -3.9960 hx        1 0YQ      0.088700
     38 H8          1.3310    0.3210   -0.0650 ho        1 0YQ      0.514000
     39 H9          0.1050    1.7280   -3.8700 hx        1 0YQ      0.190000
     40 H10        -1.7940    3.2960   -4.3010 hn        1 0YQ      0.468300
     41 H11        -3.3510    4.9160   -3.3120 hx        1 0YQ      0.129700
     42 H12        -1.9050    5.6070   -2.4220 hx        1 0YQ      0.129700
     43 H13        -2.8390    6.7960   -4.5750 hx        1 0YQ      0.124700
     44 H14        -2.0800    5.4550   -5.5570 hx        1 0YQ      0.124700
     45 H15        -0.5700    7.1660   -3.6250 hn        1 0YQ      0.488300
     46 H16         0.8440    7.5980   -7.0990 h1        1 0YQ      0.132700
     47 H17         1.6420    7.5820   -4.1420 h1        1 0YQ      0.108700
     48 H18         3.2810    7.0720   -6.3690 ho        1 0YQ      0.447000
     49 H19         3.0670    9.4110   -4.0700 h1        1 0YQ      0.100700
     50 H20         4.6490    9.0830   -5.4900 ho        1 0YQ      0.444000
     51 H21         2.2900   10.9230   -6.4470 h2        1 0YQ      0.141700
     52 H22         1.8740   12.8660   -5.6180 h4        1 0YQ      0.183000
     53 H23         0.7870   14.4230   -3.9390 ha        1 0YQ      0.204000
     54 H24        -0.8390   10.9760   -2.0240 hn        1 0YQ      0.359500
     55 H251        2.5430    2.9500   -2.9610 hn        1 0YQ      0.452800
     56 H212       -1.8950    3.2130   -2.6340 hn        1 0YQ      0.468300
     57 H172        0.0670    6.0860   -4.7050 hn        1 0YQ      0.488300
@<TRIPOS>BOND
     1    1    2 1   
     2    1   38 1   
     3    2    3 2   
     4    2    4 1   
     5    4    5 1   
     6    4   34 1   
     7    4   35 1   
     8    5    6 1   
     9    5   10 1   
    10    5   55 1   
    11    6    7 1   
    12    6   36 1   
    13    6   37 1   
    14    7    8 1   
    15    7    9 1   
    16   10   11 2   
    17   10   39 1   
    18   11   12 1   
    19   11   13 1   
    20   13   14 1   
    21   13   40 1   
    22   13   56 1   
    23   14   15 1   
    24   14   41 1   
    25   14   42 1   
    26   15   16 1   
    27   15   43 1   
    28   15   44 1   
    29   16   17 1   
    30   16   45 1   
    31   16   57 1   
    32   17   18 2   
    33   17   19 1   
    34   19   20 1   
    35   19   24 1   
    36   19   46 1   
    37   20   21 1   
    38   20   22 1   
    39   20   47 1   
    40   21   48 1   
    41   22   23 1   
    42   22   25 1   
    43   22   49 1   
    44   23   50 1   
    45   24   25 1   
    46   25   26 1   
    47   25   51 1   
    48   26   27 1   
    49   26   29 1   
    50   27   28 2   
    51   27   52 1   
    52   28   32 1   
    53   28   53 1   
    54   29   30 2   
    55   29   31 1   
    56   31   32 1   
    57   31   54 1   
    58   32   33 2   
@<TRIPOS>SUBSTRUCTURE
     1 0YQ         1 TEMP              0 ****  ****    0 ROOT
