@<TRIPOS>MOLECULE
0YQ
   57    58     1     0     0
SMALL
bcc


@<TRIPOS>ATOM
      1 O33         0.8180    0.6600   -0.0550 oh        1 0YQ     -0.547100
      2 C31         0.6570    1.8350   -0.6720 c         1 0YQ      0.668100
      3 O32        -0.4920    2.3040   -0.6690 o         1 0YQ     -0.591000
      4 C30         1.8350    2.5260   -1.3450 c3        1 0YQ     -0.012200
      5 N25         1.8210    2.2760   -2.8270 n4        1 0YQ     -0.471200
      6 C26         2.1880    0.8620   -3.1460 c3        1 0YQ     -0.070200
      7 C27         3.5400    0.4530   -2.4250 c         1 0YQ      0.925600
      8 O29         3.4120    0.1620   -1.2060 o         1 0YQ     -0.760800
      9 O28         4.5620    0.5030   -3.1270 o         1 0YQ     -0.760800
     10 C23         0.5010    2.5970   -3.3330 c2        1 0YQ     -0.388000
     11 C22        -0.0320    3.8480   -3.1010 c2        1 0YQ      0.521300
     12 O24         0.4970    4.9640   -2.8770 o         1 0YQ     -0.721300
     13 N21        -1.5720    3.8540   -3.0410 n4        1 0YQ     -0.670800
     14 C20        -2.1860    5.1900   -2.8830 c3        1 0YQ      0.095800
     15 C19        -2.1360    6.1000   -4.1170 c3        1 0YQ      0.093800
     16 N17        -0.8350    6.7830   -4.3180 n4        1 0YQ     -0.679800
     17 C16        -0.8830    7.9070   -5.3340 c         1 0YQ      0.563100
     18 O18        -1.9460    8.4880   -5.4580 o         1 0YQ     -0.405100
     19 C12         0.3990    8.1550   -6.1170 c3        1 0YQ      0.060100
     20 C11         1.7240    7.8120   -5.3880 c3        1 0YQ      0.105100
     21 O15         2.3180    6.6910   -5.9810 oh        1 0YQ     -0.583800
     22 C10         2.5600    9.1110   -5.4650 c3        1 0YQ      0.091100
     23 O14         3.4820    9.0090   -6.5280 oh        1 0YQ     -0.586800
     24 O13         0.4130    9.5300   -6.4700 os        1 0YQ     -0.366600
     25 C9          1.5310   10.2170   -5.8700 c3        1 0YQ      0.297500
     26 N5          1.1110   11.0750   -4.7770 n         1 0YQ     -0.391000
     27 C6          1.2590   12.4630   -4.9020 cc        1 0YQ      0.033600
     28 C1          0.8640   13.3190   -3.9310 cd        1 0YQ     -0.265200
     29 C4          0.4350   10.5570   -3.6450 c         1 0YQ      0.846500
     30 O8          0.1990    9.3180   -3.5480 o         1 0YQ     -0.783500
     31 N3          0.0450   11.4200   -2.6300 n         1 0YQ     -0.571500
     32 C2          0.2280   12.8260   -2.7020 c         1 0YQ      0.707700
     33 O7         -0.1540   13.5170   -1.7530 o         1 0YQ     -0.543500
     34 H2          2.8160    2.1560   -0.9100 hx        1 0YQ      0.141200
     35 H3          1.7450    3.6370   -1.1740 hx        1 0YQ      0.141200
     36 H5          1.3730    0.1830   -2.7810 hx        1 0YQ      0.088700
     37 H6          2.3090    0.7740   -4.2570 hx        1 0YQ      0.088700
     38 H8          1.7360    0.3090   -0.1720 ho        1 0YQ      0.514000
     39 H9         -0.0630    1.7440   -3.7300 hx        1 0YQ      0.190000
     40 H10        -1.9590    3.3700   -3.8520 hn        1 0YQ      0.468300
     41 H11        -1.6840    5.6890   -1.9990 hx        1 0YQ      0.129700
     42 H12        -3.2790    5.0410   -2.6290 hx        1 0YQ      0.129700
     43 H13        -2.9270    6.9010   -3.9750 hx        1 0YQ      0.124700
     44 H14        -2.3850    5.5330   -5.0590 hx        1 0YQ      0.124700
     45 H15        -0.5200    7.2010   -3.4210 hn        1 0YQ      0.488300
     46 H16         0.3050    7.5780   -7.0860 h1        1 0YQ      0.131700
     47 H17         1.5860    7.5440   -4.3040 h1        1 0YQ      0.108700
     48 H18         2.8110    6.9760   -6.7690 ho        1 0YQ      0.447000
     49 H19         3.0590    9.3250   -4.4860 h1        1 0YQ      0.100700
     50 H20         4.3700    8.9440   -6.1490 ho        1 0YQ      0.444000
     51 H21         1.9430   10.8560   -6.7110 h2        1 0YQ      0.141700
     52 H22         1.7330   12.8140   -5.8390 h4        1 0YQ      0.183000
     53 H23         0.9930   14.4090   -4.0130 ha        1 0YQ      0.204000
     54 H24        -0.3970   11.0220   -1.8270 hn        1 0YQ      0.359500
     55 H251        2.5290    2.8920   -3.2500 hn        1 0YQ      0.452800
     56 H212       -1.7830    3.2950   -2.1900 hn        1 0YQ      0.468300
     57 H172       -0.1070    6.0980   -4.5840 hn        1 0YQ      0.488300
@<TRIPOS>BOND
     1    1    2 1   
     2    1   38 1   
     3    2    3 2   
     4    2    4 1   
     5    4    5 1   
     6    4   34 1   
     7    4   35 1   
     8    5    6 1   
     9    5   10 1   
    10    5   55 1   
    11    6    7 1   
    12    6   36 1   
    13    6   37 1   
    14    7    8 1   
    15    7    9 1   
    16   10   11 2   
    17   10   39 1   
    18   11   12 1   
    19   11   13 1   
    20   13   14 1   
    21   13   40 1   
    22   13   56 1   
    23   14   15 1   
    24   14   41 1   
    25   14   42 1   
    26   15   16 1   
    27   15   43 1   
    28   15   44 1   
    29   16   17 1   
    30   16   45 1   
    31   16   57 1   
    32   17   18 2   
    33   17   19 1   
    34   19   20 1   
    35   19   24 1   
    36   19   46 1   
    37   20   21 1   
    38   20   22 1   
    39   20   47 1   
    40   21   48 1   
    41   22   23 1   
    42   22   25 1   
    43   22   49 1   
    44   23   50 1   
    45   24   25 1   
    46   25   26 1   
    47   25   51 1   
    48   26   27 1   
    49   26   29 1   
    50   27   28 2   
    51   27   52 1   
    52   28   32 1   
    53   28   53 1   
    54   29   30 2   
    55   29   31 1   
    56   31   32 1   
    57   31   54 1   
    58   32   33 2   
@<TRIPOS>SUBSTRUCTURE
     1 0YQ         1 TEMP              0 ****  ****    0 ROOT
