@<TRIPOS>MOLECULE
0YR
   23    22     1     0     0
SMALL
bcc


@<TRIPOS>ATOM
      1 CAG        -2.5650   -0.0520   -1.1030 c3        1 0YR      0.102400
      2 NAH         2.8290   -0.8240    1.5360 n         1 0YR     -0.345400
      3 CAI         1.6240   -0.0390    1.5340 c         1 0YR      0.563100
      4 CAJ        -1.0580    0.1290   -1.1530 c3        1 0YR      0.147100
      5 CAK         0.9900    0.3780    0.2130 c3        1 0YR      0.042100
      6 CAL        -0.4980    0.1060    0.2560 c3        1 0YR      0.126100
      7 OAB        -3.0860   -0.0450   -2.4170 oh        1 0YR     -0.619800
      8 OAD        -0.7550    1.3570   -1.7570 oh        1 0YR     -0.624800
      9 OAF        -0.7300   -1.1550    0.8310 oh        1 0YR     -0.601800
     10 OAE         1.2080    1.7440    0.0020 oh        1 0YR     -0.589800
     11 OAA         1.0720    0.2290    2.5840 o         1 0YR     -0.587100
     12 OAC         3.4630   -1.1110    2.7260 oh        1 0YR     -0.430100
     13 H1         -2.9660    0.6840   -0.5870 h1        1 0YR      0.049700
     14 H2         -2.7770   -0.9050   -0.6720 h1        1 0YR      0.049700
     15 H3          3.1680   -1.1440    0.7480 hn        1 0YR      0.319500
     16 H4         -0.6590   -0.6000   -1.6760 h1        1 0YR      0.067700
     17 H5          1.3960   -0.1360   -0.5220 h1        1 0YR      0.111700
     18 H6         -0.9410    0.7970    0.7950 h1        1 0YR      0.063700
     19 H7         -3.9760   -0.0410   -2.3830 ho        1 0YR      0.413000
     20 H8         -0.6830    1.2460   -2.6340 ho        1 0YR      0.435000
     21 H9         -1.3700   -1.0880    1.4470 ho        1 0YR      0.438000
     22 H10         2.0250    1.8670   -0.3260 ho        1 0YR      0.437000
     23 H11         4.2890   -1.3990    2.5600 ho        1 0YR      0.434000
@<TRIPOS>BOND
     1    1    4 1   
     2    1    7 1   
     3    1   13 1   
     4    1   14 1   
     5    2    3 1   
     6    2   12 1   
     7    2   15 1   
     8    3    5 1   
     9    3   11 2   
    10    4    6 1   
    11    4    8 1   
    12    4   16 1   
    13    5    6 1   
    14    5   10 1   
    15    5   17 1   
    16    6    9 1   
    17    6   18 1   
    18    7   19 1   
    19    8   20 1   
    20    9   21 1   
    21   10   22 1   
    22   12   23 1   
@<TRIPOS>SUBSTRUCTURE
     1 0YR         1 TEMP              0 ****  ****    0 ROOT
