@<TRIPOS>MOLECULE
0YR
   24    20     1     0     0
SMALL
bcc


@<TRIPOS>ATOM
      1 CAG        -1.0680   -0.8350   -0.0020 c2        1 0YR      0.043000
      2 NAH         2.6150   -0.6630    4.5050 n3        1 0YR     -0.188000
      3 CAI         5.8810   -0.1300    2.3400 c1        1 0YR      0.255000
      4 CAJ         1.9330    0.9480    0.6030 c3        1 0YR     -0.112000
      5 CAK         5.3690   -0.9840    1.4570 c2        1 0YR     -0.285000
      6 CAL         1.4150   -0.4100    0.9060 c1        1 0YR      0.036000
      7 OAB        -1.5980    0.1490   -0.6480 oh        1 0YR     -0.117000
      8 OAD         0.9170    1.6120   -0.1360 oh        1 0YR     -0.362000
      9 OAF         2.1040   -1.2960    1.5270 oh        1 0YR     -0.106000
     10 OAE         4.6600   -0.5060    0.3710 oh        1 0YR     -0.295000
     11 OAC         2.7730    0.2230    3.5020 oh        1 0YR     -0.348000
     12 H1          0.1250   -0.7510    0.4940 h4        1 0YR      0.245500
     13 H2         -1.7430   -1.7160    0.0620 h4        1 0YR      0.245500
     14 H3          2.0850   -1.4390    4.1140 hn        1 0YR      0.149500
     15 H4          2.8860    0.8890   -0.0010 h1        1 0YR      0.142500
     16 H5          2.1430    1.4990    1.5670 h1        1 0YR      0.142500
     17 H6          5.5580   -2.0640    1.5040 h4        1 0YR      0.201000
     18 H7         -0.9900    0.9300   -0.7010 ho        1 0YR      0.304000
     19 H8          1.2440    2.5000   -0.3300 ho        1 0YR      0.249000
     20 H9          3.0280   -1.0290    1.7800 ho        1 0YR      0.276000
     21 H10         5.2460   -0.5770   -0.4020 ho        1 0YR      0.229000
     22 H11         3.6460    0.6310    3.6710 ho        1 0YR      0.243000
     23 HAH2        2.0250   -0.2350    5.2150 hn        1 0YR      0.149500
     24 OAA         6.2080    0.5910    3.2220 o         1 0YR     -0.097000
@<TRIPOS>BOND
     1    1    7 1   
     2    1   12 1   
     3    1   13 1   
     4    2   11 1   
     5    2   14 1   
     6    2   23 1   
     7    3    5 1   
     8    3   24 1   
     9    4    6 1   
    10    4    8 1   
    11    4   15 1   
    12    4   16 1   
    13    5   10 1   
    14    5   17 1   
    15    6    9 1   
    16    7   18 1   
    17    8   19 1   
    18    9   20 1   
    19   10   21 1   
    20   11   22 1   
@<TRIPOS>SUBSTRUCTURE
     1 0YR         1 TEMP              0 ****  ****    0 ROOT
