@<TRIPOS>MOLECULE
0YR
   23    22     1     0     0
SMALL
bcc


@<TRIPOS>ATOM
      1 CAG        -2.6490    0.3350   -0.9950 c3        1 0YR      0.101400
      2 NAH         2.6730    0.4870    0.4990 n         1 0YR     -0.341400
      3 CAI         1.7710   -0.2660   -0.2990 c         1 0YR      0.568100
      4 CAJ        -1.9390    0.7070    0.3090 c3        1 0YR      0.076100
      5 CAK         0.3520   -0.4500    0.2390 c3        1 0YR      0.038100
      6 CAL        -0.4260    0.8770    0.1050 c3        1 0YR      0.086100
      7 OAB        -4.0480    0.3030   -0.8140 oh        1 0YR     -0.590800
      8 OAD        -2.2290   -0.2300    1.3290 oh        1 0YR     -0.606800
      9 OAF         0.0990    1.8020    1.0430 oh        1 0YR     -0.602800
     10 OAE        -0.3090   -1.5020   -0.4300 oh        1 0YR     -0.598800
     11 OAC         3.7640    0.9160   -0.1380 oh        1 0YR     -0.429100
     12 H1         -2.4730    1.1160   -1.7800 h1        1 0YR      0.058700
     13 H2         -2.2840   -0.6640   -1.3590 h1        1 0YR      0.058700
     14 H3          2.2270    1.2920    0.9370 hn        1 0YR      0.326500
     15 H4         -2.3640    1.6780    0.7040 h1        1 0YR      0.100700
     16 H5          0.3780   -0.7640    1.3230 h1        1 0YR      0.104700
     17 H6         -0.2300    1.3470   -0.8990 h1        1 0YR      0.091700
     18 H7         -4.2250   -0.2420   -0.0350 ho        1 0YR      0.411000
     19 H8         -1.9980   -1.1100    0.9980 ho        1 0YR      0.422000
     20 H9         -0.2530    1.5640    1.9130 ho        1 0YR      0.421000
     21 H10         0.0290   -1.5540   -1.3380 ho        1 0YR      0.438000
     22 H11         4.3410    0.1320   -0.2410 ho        1 0YR      0.434000
     23 OAA         2.1290   -0.8590   -1.3310 o         1 0YR     -0.566100
@<TRIPOS>BOND
     1    1    4 1   
     2    1    7 1   
     3    1   12 1   
     4    1   13 1   
     5    2    3 1   
     6    2   11 1   
     7    2   14 1   
     8    3    5 1   
     9    3   23 2   
    10    4    6 1   
    11    4    8 1   
    12    4   15 1   
    13    5    6 1   
    14    5   10 1   
    15    5   16 1   
    16    6    9 1   
    17    6   17 1   
    18    7   18 1   
    19    8   19 1   
    20    9   20 1   
    21   10   21 1   
    22   11   22 1   
@<TRIPOS>SUBSTRUCTURE
     1 0YR         1 TEMP              0 ****  ****    0 ROOT
