@<TRIPOS>MOLECULE
0YR
   24    22     1     0     0
SMALL
bcc


@<TRIPOS>ATOM
      1 CAG        -1.3640    0.7790    0.0870 c         1 0YR      0.607700
      2 NAH         3.4630   -1.0130    3.9690 ny        1 0YR     -0.472300
      3 CAI         4.0580    0.0130    2.9900 c         1 0YR      0.499100
      4 CAJ         2.4270   -0.3730   -0.4840 c3        1 0YR      0.112400
      5 CAK         3.9610   -0.3940    1.5140 c3        1 0YR      0.114100
      6 CAL         2.5000   -0.2490    1.0490 c3        1 0YR      0.073100
      7 OAB        -0.2030    0.4240    0.3140 o         1 0YR     -0.616100
      8 OAD         2.4640    0.9210   -1.0380 oh        1 0YR     -0.592800
      9 OAF         1.7720   -1.2700    1.7110 oh        1 0YR     -0.657800
     10 OAE         4.8630    0.3920    0.7970 oh        1 0YR     -0.532800
     11 OAC         3.3060   -0.5700    5.2340 oh        1 0YR     -0.361300
     12 H1          1.4940   -0.9270   -0.7700 h1        1 0YR      0.082200
     13 H2         -2.2290    0.3090    0.6020 h4        1 0YR      0.007200
     14 H3          2.5040   -1.2770    3.6340 hn        1 0YR      0.492300
     15 H4          2.0920    0.7600    1.3520 h1        1 0YR      0.078700
     16 H5          3.3290   -0.9010   -0.8940 h1        1 0YR      0.082200
     17 H6          4.3210   -1.4600    1.4040 h1        1 0YR      0.128700
     18 H7         -1.5950    1.5840   -0.6420 h4        1 0YR      0.007200
     19 H8          1.5650    1.2790   -1.0060 ho        1 0YR      0.427000
     20 H9          0.8590   -1.2280    1.3830 ho        1 0YR      0.473000
     21 H10         4.3990    1.1590    0.4160 ho        1 0YR      0.461000
     22 H11         3.9870    0.1220    5.4230 ho        1 0YR      0.481000
     23 HAH2        4.0530   -1.8650    3.9800 hn        1 0YR      0.492300
     24 OAA         4.5250    1.0100    3.5010 o         1 0YR     -0.386100
@<TRIPOS>BOND
     1    1    7 2   
     2    1   13 1   
     3    1   18 1   
     4    2    3 1   
     5    2   11 1   
     6    2   14 1   
     7    2   23 1   
     8    3    5 1   
     9    3   24 2   
    10    4    6 1   
    11    4    8 1   
    12    4   12 1   
    13    4   16 1   
    14    5    6 1   
    15    5   10 1   
    16    5   17 1   
    17    6    9 1   
    18    6   15 1   
    19    8   19 1   
    20    9   20 1   
    21   10   21 1   
    22   11   22 1   
@<TRIPOS>SUBSTRUCTURE
     1 0YR         1 TEMP              0 ****  ****    0 ROOT
