@<TRIPOS>MOLECULE
0YS
   50    51     1     0     0
SMALL
bcc


@<TRIPOS>ATOM
      1 O7         -0.2190    4.4380   -1.7800 o         1 0YS     -0.853800
      2 C17         0.6050    4.6120   -0.8390 c         1 0YS      0.905600
      3 O8          1.2390    5.6920   -0.6540 o         1 0YS     -0.853800
      4 C9          0.8790    3.4580    0.1880 c3        1 0YS     -0.026300
      5 N1         -0.2020    2.4990    0.2350 n         1 0YS     -0.492900
      6 C10        -0.9970    2.2600    1.3120 c         1 0YS      0.669700
      7 C11        -2.0450    1.1920    1.1390 ca        1 0YS     -0.138600
      8 C16        -1.7660    0.0010    0.4620 ca        1 0YS     -0.054500
      9 C15        -2.7580   -0.9770    0.3430 ca        1 0YS     -0.053100
     10 CL1        -2.3990   -2.4130   -0.4820 cl        1 0YS     -0.081400
     11 C14        -4.0340   -0.7690    0.9050 ca        1 0YS      0.120100
     12 O6         -5.0470   -1.6990    0.8110 oh        1 0YS     -0.510100
     13 C13        -4.2990    0.4310    1.5890 ca        1 0YS     -0.053100
     14 CL         -5.8280    0.7360    2.2910 cl        1 0YS     -0.081400
     15 C12        -3.3030    1.4030    1.7060 ca        1 0YS     -0.054500
     16 O5         -0.9070    2.8560    2.4140 o         1 0YS     -0.667100
     17 C8          2.2530    2.8270   -0.1220 c3        1 0YS     -0.062400
     18 C7          2.2560    1.4170   -0.7170 c3        1 0YS      0.165500
     19 C6          3.5100    1.1680   -1.5820 c3        1 0YS     -0.072400
     20 C5          3.7250   -0.3400   -1.5140 c3        1 0YS     -0.082400
     21 N2          2.2670    0.3500    0.2980 n3        1 0YS     -0.765200
     22 C3          2.8910   -0.8530   -0.3110 c3        1 0YS      0.065200
     23 C4          3.8070   -1.5360    0.7760 c         1 0YS      0.932600
     24 O4          3.2780   -1.9380    1.8480 o         1 0YS     -0.854300
     25 O3          5.0410   -1.6850    0.5210 o         1 0YS     -0.854300
     26 C2          1.8420   -1.9310   -0.7450 c3        1 0YS      0.112100
     27 O2          0.7170   -1.2380   -1.2930 oh        1 0YS     -0.675800
     28 C           2.3140   -3.0100   -1.7630 c3        1 0YS      0.036500
     29 N           3.6440   -3.5450   -1.5740 n3        1 0YS     -0.924800
     30 C1          1.2190   -4.1230   -1.8250 c         1 0YS      0.905600
     31 O           0.1140   -3.8160   -2.3780 o         1 0YS     -0.868800
     32 O1          1.4350   -5.2770   -1.3590 o         1 0YS     -0.868800
     33 H2          0.9460    3.9480    1.2050 h1        1 0YS      0.065700
     34 H3         -0.4630    2.1230   -0.6500 hn        1 0YS      0.326500
     35 H4         -0.7620   -0.1940    0.0190 ha        1 0YS      0.189500
     36 H5         -4.6820   -2.4770    0.3560 ho        1 0YS      0.428000
     37 H6         -3.4920    2.3380    2.2570 ha        1 0YS      0.189500
     38 H7          2.7680    3.5080   -0.8510 hc        1 0YS      0.042200
     39 H8          2.8600    2.8330    0.8220 hc        1 0YS      0.042200
     40 H9          1.3710    1.3080   -1.4160 h1        1 0YS      0.022700
     41 H10         3.3420    1.5220   -2.6260 hc        1 0YS      0.017200
     42 H11         4.3900    1.7170   -1.1660 hc        1 0YS      0.017200
     43 H12         3.3820   -0.8160   -2.4640 hc        1 0YS      0.050700
     44 H13         4.8040   -0.5910   -1.3590 hc        1 0YS      0.050700
     45 H14         1.3350    0.1370    0.5940 hn        1 0YS      0.347800
     46 H17         1.5040   -2.4550    0.1960 h1        1 0YS      0.055700
     47 H18         0.1670   -1.8970   -1.7460 ho        1 0YS      0.437000
     48 H19         2.3050   -2.5210   -2.7840 h1        1 0YS      0.033700
     49 H20         4.2480   -2.8590   -1.1550 hn        1 0YS      0.360300
     50 H21         3.5940   -4.3400   -0.9640 hn        1 0YS      0.360300
@<TRIPOS>BOND
     1    1    2 1   
     2    2    3 1   
     3    2    4 1   
     4    4    5 1   
     5    4   17 1   
     6    4   33 1   
     7    5    6 1   
     8    5   34 1   
     9    6    7 1   
    10    6   16 2   
    11    7    8 ar  
    12    7   15 ar  
    13    8    9 ar  
    14    8   35 1   
    15    9   10 1   
    16    9   11 ar  
    17   11   12 1   
    18   11   13 ar  
    19   12   36 1   
    20   13   14 1   
    21   13   15 ar  
    22   15   37 1   
    23   17   18 1   
    24   17   38 1   
    25   17   39 1   
    26   18   19 1   
    27   18   21 1   
    28   18   40 1   
    29   19   20 1   
    30   19   41 1   
    31   19   42 1   
    32   20   22 1   
    33   20   43 1   
    34   20   44 1   
    35   21   22 1   
    36   21   45 1   
    37   22   23 1   
    38   22   26 1   
    39   23   24 1   
    40   23   25 1   
    41   26   27 1   
    42   26   28 1   
    43   26   46 1   
    44   27   47 1   
    45   28   29 1   
    46   28   30 1   
    47   28   48 1   
    48   29   49 1   
    49   29   50 1   
    50   30   31 1   
    51   30   32 1   
@<TRIPOS>SUBSTRUCTURE
     1 0YS         1 TEMP              0 ****  ****    0 ROOT
