@<TRIPOS>MOLECULE
0YS
   50    44     1     0     0
SMALL
bcc


@<TRIPOS>ATOM
      1 O7         -1.2400   -1.3900    2.3680 o         1 0YS     -0.583000
      2 C17        -1.1080   -1.6030    1.1340 c1        1 0YS      0.323000
      3 O8         -0.8070   -2.7540    0.7220 o         1 0YS     -0.583000
      4 C9         -1.2940   -0.4720    0.1470 c2        1 0YS     -0.063000
      5 N1         -2.5660    0.1260    0.3480 n3        1 0YS     -0.288000
      6 C10        -3.7460   -0.6280    0.1300 c1        1 0YS      0.333000
      7 C11        -5.0430   -0.2070    0.7830 c1        1 0YS     -0.109000
      8 C16        -6.2080   -0.9130    0.5270 c1        1 0YS     -0.056000
      9 C15        -7.3890   -0.5520    1.1570 c1        1 0YS     -0.100000
     10 CL1        -8.8630   -1.4120    0.8020 cl        1 0YS     -0.039000
     11 C14        -7.4040    0.5140    2.0420 c1        1 0YS      0.076000
     12 O6         -8.6120    0.9080    2.6480 o         1 0YS     -0.256000
     13 C13        -6.2390    1.2200    2.2980 c2        1 0YS     -0.148000
     14 CL         -6.2550    2.5510    3.4240 cl        1 0YS     -0.012000
     15 C12        -5.0580    0.8590    1.6680 c1        1 0YS     -0.047000
     16 O5         -3.7250   -1.5850   -0.6180 o         1 0YS     -0.408000
     17 C8         -0.2120    0.5630    0.3560 c3        1 0YS     -0.163000
     18 C7          0.8150    0.4510   -0.7520 c3        1 0YS     -0.038000
     19 C6          1.2330    1.6120   -1.0770 c3        1 0YS     -0.160000
     20 C5          2.7030    1.4260   -1.4880 c3        1 0YS     -0.197000
     21 N2          2.1210   -0.4020   -0.2240 n3        1 0YS     -0.256000
     22 C3          3.1360   -0.0870   -1.0100 c3        1 0YS     -0.067000
     23 C4          3.3090   -1.1220   -2.1020 c1        1 0YS      0.353000
     24 O4          3.3210   -2.3470   -1.8130 os        1 0YS     -0.609000
     25 O3          3.4480   -0.7560   -3.2990 o         1 0YS     -0.588000
     26 C2          4.4720   -0.2190   -0.3170 c3        1 0YS      0.013000
     27 O2          4.5710   -1.4930    0.2750 oh        1 0YS     -0.389000
     28 C           5.5820   -0.0450   -1.3270 c3        1 0YS     -0.110000
     29 N           6.4270    1.0260   -0.9240 n3        1 0YS     -0.343000
     30 C1          6.3910   -1.3200   -1.4110 c2        1 0YS      0.341000
     31 O           6.3700   -2.0100   -2.4640 o         1 0YS     -0.604500
     32 O1          7.0890   -1.6890   -0.4300 o         1 0YS     -0.604500
     33 H2         -1.2390   -0.8220   -0.7640 h4        1 0YS      0.116000
     34 H3         -2.6230    0.9950    0.6190 hn        1 0YS      0.229000
     35 H4         -6.1950   -1.6680   -0.0910 ha        1 0YS      0.167000
     36 H5         -8.6480    0.5830    3.4750 ho        1 0YS      0.222000
     37 H6         -4.2330    1.3420    1.8650 ha        1 0YS      0.197000
     38 H7         -0.6090    1.4570    0.3440 hc        1 0YS      0.090500
     39 H8          0.2220    0.4110    1.2190 hc        1 0YS      0.090500
     40 H9          0.4190    0.0090   -1.5300 h1        1 0YS      0.085000
     41 H10         1.1710    2.2210   -0.3110 hc        1 0YS      0.054500
     42 H11         0.7130    1.9610   -1.8310 hc        1 0YS      0.054500
     43 H12         3.2630    2.0910   -1.0400 hc        1 0YS      0.122500
     44 H13         2.7940    1.5100   -2.4580 hc        1 0YS      0.122500
     45 H14         2.3160   -0.1600    0.6360 hn        1 0YS      0.139000
     46 H17         4.5500    0.4680    0.3740 h1        1 0YS      0.090000
     47 H18         4.9400   -1.4180    1.0810 ho        1 0YS      0.232000
     48 H19         5.1980    0.1550   -2.2030 h1        1 0YS      0.083000
     49 H20         5.9310    1.7920   -0.8410 hn        1 0YS      0.144500
     50 H21         6.8130    0.8240   -0.1180 hn        1 0YS      0.144500
@<TRIPOS>BOND
     1    1    2 1   
     2    2    3 1   
     3    4    5 1   
     4    4   17 1   
     5    4   33 1   
     6    5    6 1   
     7    5   34 1   
     8    6   16 1   
     9    7    8 1   
    10    8   35 1   
    11    9   11 1   
    12   11   13 1   
    13   12   36 1   
    14   13   14 1   
    15   13   15 1   
    16   15   37 1   
    17   17   18 1   
    18   17   38 1   
    19   17   39 1   
    20   18   19 1   
    21   18   21 1   
    22   18   40 1   
    23   19   20 1   
    24   19   41 1   
    25   19   42 1   
    26   20   22 1   
    27   20   43 1   
    28   20   44 1   
    29   21   22 1   
    30   21   45 1   
    31   22   23 1   
    32   22   26 1   
    33   23   25 1   
    34   26   27 1   
    35   26   28 1   
    36   26   46 1   
    37   27   47 1   
    38   28   29 1   
    39   28   30 1   
    40   28   48 1   
    41   29   49 1   
    42   29   50 1   
    43   30   31 1   
    44   30   32 1   
@<TRIPOS>SUBSTRUCTURE
     1 0YS         1 TEMP              0 ****  ****    0 ROOT
