@<TRIPOS>MOLECULE
0YS
   50    51     1     0     0
SMALL
bcc


@<TRIPOS>ATOM
      1 O7         -0.0430   -0.3710   -0.4580 o         1 0YS     -0.853800
      2 C17         1.0340   -1.0340   -0.5860 c         1 0YS      0.898600
      3 O8          1.5560   -1.7000    0.3470 o         1 0YS     -0.853800
      4 C9          1.7440   -1.0580   -1.9860 c3        1 0YS     -0.048300
      5 N1          0.8530   -0.5770   -3.0380 n         1 0YS     -0.456900
      6 C10        -0.1570   -1.3950   -3.5060 c         1 0YS      0.661700
      7 C11        -1.4610   -0.7170   -3.8390 ca        1 0YS     -0.146600
      8 C16        -2.1220   -0.0020   -2.8340 ca        1 0YS     -0.051500
      9 C15        -3.3600    0.5880   -3.1060 ca        1 0YS     -0.048600
     10 CL1        -4.1550    1.4460   -1.8680 cl        1 0YS     -0.116900
     11 C14        -3.9340    0.4690   -4.3870 ca        1 0YS      0.119100
     12 O6         -5.1590    1.0630   -4.6040 oh        1 0YS     -0.499100
     13 C13        -3.2530   -0.2550   -5.3820 ca        1 0YS     -0.048600
     14 CL         -3.9270   -0.4170   -6.9470 cl        1 0YS     -0.116900
     15 C12        -2.0190   -0.8500   -5.1090 ca        1 0YS     -0.051500
     16 O5         -0.0370   -2.6160   -3.7410 o         1 0YS     -0.621100
     17 C8          3.0340   -0.2340   -1.8950 c3        1 0YS     -0.081400
     18 C7          3.9090   -0.3020   -3.1530 c3        1 0YS      0.166500
     19 C6          3.4300    0.6700   -4.2530 c3        1 0YS     -0.077400
     20 C5          4.6800    1.3480   -4.7960 c3        1 0YS     -0.107400
     21 N2          5.3420   -0.0730   -2.9280 n3        1 0YS     -0.802200
     22 C3          5.8180    1.0180   -3.8080 c3        1 0YS      0.033200
     23 C4          6.1890    2.3050   -2.9710 c         1 0YS      0.891600
     24 O4          5.9230    3.4540   -3.4210 o         1 0YS     -0.858300
     25 O3          6.7740    2.1320   -1.8550 o         1 0YS     -0.858300
     26 C2          7.1260    0.6400   -4.5690 c3        1 0YS      0.158100
     27 O2          8.1600    0.2680   -3.6540 oh        1 0YS     -0.657800
     28 C           7.1140   -0.5060   -5.6210 c3        1 0YS      0.055500
     29 N           6.1740   -1.5820   -5.4010 n3        1 0YS     -0.903800
     30 C1          7.0290    0.0740   -7.0660 c         1 0YS      0.919600
     31 O           8.1240    0.3330   -7.6510 o         1 0YS     -0.869300
     32 O1          5.9060    0.2380   -7.6280 o         1 0YS     -0.869300
     33 H2          2.0060   -2.1300   -2.2210 h1        1 0YS      0.075700
     34 H3          0.5670    0.3670   -2.8580 hn        1 0YS      0.287500
     35 H4         -1.6480    0.0770   -1.8240 ha        1 0YS      0.204000
     36 H5         -5.3580    0.9850   -5.5490 ho        1 0YS      0.415000
     37 H6         -1.4840   -1.4250   -5.8820 ha        1 0YS      0.204000
     38 H7          2.7920    0.8340   -1.6580 hc        1 0YS      0.054200
     39 H8          3.5900   -0.6540   -1.0120 hc        1 0YS      0.054200
     40 H9          3.8380   -1.3580   -3.5560 h1        1 0YS      0.037700
     41 H10         2.7210    1.4250   -3.8310 hc        1 0YS      0.020700
     42 H11         2.8930    0.1090   -5.0550 hc        1 0YS      0.020700
     43 H12         4.5440    2.4570   -4.8570 hc        1 0YS      0.081700
     44 H13         4.9280    0.9750   -5.8240 hc        1 0YS      0.081700
     45 H14         5.5280    0.1790   -1.9720 hn        1 0YS      0.365800
     46 H17         7.4540    1.5830   -5.0960 h1        1 0YS      0.043700
     47 H18         8.0200    0.7610   -2.8330 ho        1 0YS      0.421000
     48 H19         8.1450   -0.9770   -5.5490 h1        1 0YS      0.045700
     49 H20         5.2530   -1.2700   -5.6540 hn        1 0YS      0.339800
     50 H21         6.1650   -1.8230   -4.4270 hn        1 0YS      0.339800
@<TRIPOS>BOND
     1    1    2 1   
     2    2    3 1   
     3    2    4 1   
     4    4    5 1   
     5    4   17 1   
     6    4   33 1   
     7    5    6 1   
     8    5   34 1   
     9    6    7 1   
    10    6   16 2   
    11    7    8 ar  
    12    7   15 ar  
    13    8    9 ar  
    14    8   35 1   
    15    9   10 1   
    16    9   11 ar  
    17   11   12 1   
    18   11   13 ar  
    19   12   36 1   
    20   13   14 1   
    21   13   15 ar  
    22   15   37 1   
    23   17   18 1   
    24   17   38 1   
    25   17   39 1   
    26   18   19 1   
    27   18   21 1   
    28   18   40 1   
    29   19   20 1   
    30   19   41 1   
    31   19   42 1   
    32   20   22 1   
    33   20   43 1   
    34   20   44 1   
    35   21   22 1   
    36   21   45 1   
    37   22   23 1   
    38   22   26 1   
    39   23   24 1   
    40   23   25 1   
    41   26   27 1   
    42   26   28 1   
    43   26   46 1   
    44   27   47 1   
    45   28   29 1   
    46   28   30 1   
    47   28   48 1   
    48   29   49 1   
    49   29   50 1   
    50   30   31 1   
    51   30   32 1   
@<TRIPOS>SUBSTRUCTURE
     1 0YS         1 TEMP              0 ****  ****    0 ROOT
