@<TRIPOS>MOLECULE
0YT
   30    30     1     0     0
SMALL
bcc


@<TRIPOS>ATOM
      1 C1         -0.3650    1.2570    0.8400 c3        1 0YT      0.246200
      2 C2         -0.8690   -0.0190    0.1110 c3        1 0YT      0.105700
      3 N2         -2.2450   -0.3050    0.4210 n         1 0YT     -0.546900
      4 C7         -3.2270   -0.3220   -0.5640 c         1 0YT      0.668100
      5 O7         -2.9960    0.0700   -1.7220 o         1 0YT     -0.593100
      6 C8         -4.5980   -0.7950   -0.1440 c3        1 0YT     -0.174100
      7 C3          0.0860   -1.1850    0.5060 c3        1 0YT      0.123100
      8 O3         -0.4670   -2.3820   -0.0110 oh        1 0YT     -0.594800
      9 C4          1.4930   -0.9560   -0.0770 c3        1 0YT      0.117100
     10 O4          2.2010   -2.1690    0.1360 oh        1 0YT     -0.612800
     11 C5          2.1990    0.2010    0.6190 c3        1 0YT     -0.052600
     12 C6          3.6300    0.3850    0.1290 c3        1 0YT      0.140400
     13 O6          3.8190   -0.0750   -1.1930 oh        1 0YT     -0.605800
     14 S5          1.3200    1.7110    0.3230 ss        1 0YT     -0.387200
     15 H3         -0.7890    0.1640   -1.0050 h1        1 0YT      0.123700
     16 H4         -2.4120   -0.8130    1.2570 hn        1 0YT      0.304500
     17 H5         -4.5570   -1.8590    0.1910 hc        1 0YT      0.066033
     18 H6         -4.9930   -0.1630    0.6870 hc        1 0YT      0.066033
     19 H7         -5.2860   -0.7150   -1.0210 hc        1 0YT      0.066033
     20 H8          0.1560   -1.2710    1.6280 h1        1 0YT      0.041700
     21 H9          0.2120   -3.0670    0.0690 ho        1 0YT      0.431000
     22 H10         1.4150   -0.7530   -1.1840 h1        1 0YT      0.072700
     23 H11         3.0090   -2.1110   -0.3940 ho        1 0YT      0.433000
     24 H12         2.2280   -0.0010    1.7220 h1        1 0YT      0.087700
     25 H13         3.9330    1.4630    0.2210 h1        1 0YT      0.066700
     26 H14         4.3240   -0.2540    0.7430 h1        1 0YT      0.066700
     27 H15         3.3300    0.5150   -1.7810 ho        1 0YT      0.416000
     28 O1         -1.2230    2.3210    0.5140 oh        1 0YT     -0.538800
     29 H1         -0.3380    1.0910    1.9490 h2        1 0YT      0.047700
     30 H2         -0.9050    3.0950    1.0000 ho        1 0YT      0.414000
@<TRIPOS>BOND
     1    1    2 1   
     2    1   14 1   
     3    1   28 1   
     4    1   29 1   
     5    2    3 1   
     6    2    7 1   
     7    2   15 1   
     8    3    4 1   
     9    3   16 1   
    10    4    5 2   
    11    4    6 1   
    12    6   17 1   
    13    6   18 1   
    14    6   19 1   
    15    7    8 1   
    16    7    9 1   
    17    7   20 1   
    18    8   21 1   
    19    9   10 1   
    20    9   11 1   
    21    9   22 1   
    22   10   23 1   
    23   11   12 1   
    24   11   14 1   
    25   11   24 1   
    26   12   13 1   
    27   12   25 1   
    28   12   26 1   
    29   13   27 1   
    30   28   30 1   
@<TRIPOS>SUBSTRUCTURE
     1 0YT         1 TEMP              0 ****  ****    0 ROOT
