@<TRIPOS>MOLECULE
0YT
   30    29     1     0     0
SMALL
bcc


@<TRIPOS>ATOM
      1 C1         -1.1950   -0.2330   -0.7320 c3        1 0YT     -0.071000
      2 C2          0.2410   -0.2210   -0.7320 c3        1 0YT      0.000000
      3 N2          0.7270   -1.4370   -1.4870 n3        1 0YT     -0.363000
      4 C7          1.5000   -1.2760   -2.7020 c1        1 0YT      0.311000
      5 O7          1.7590   -0.1600   -3.1150 o         1 0YT     -0.387000
      6 C8          1.9790   -2.5190   -3.4820 c2        1 0YT     -0.240000
      7 C3          0.8700   -0.2320    0.6410 c3        1 0YT     -0.018000
      8 O3          2.2110   -0.0660    0.5040 oh        1 0YT     -0.326000
      9 C4          0.2880    0.9510    1.6670 c3        1 0YT      0.003000
     10 O4          0.8330    0.7930    2.8280 oh        1 0YT     -0.343000
     11 C5         -1.3340    0.9520    1.8510 c3        1 0YT     -0.248000
     12 C6         -1.7710    2.1310    2.5510 c3        1 0YT      0.008000
     13 O6         -3.1720    2.0890    2.7150 oh        1 0YT     -0.324000
     14 S5         -1.8780    0.9640    0.2430 ss        1 0YT      0.028000
     15 H3          0.5440    0.5800   -1.2040 h1        1 0YT      0.136000
     16 H4          0.5530   -2.2770   -1.1630 hn        1 0YT      0.232000
     17 H5          2.6030   -3.0390   -2.9230 ha        1 0YT      0.109667
     18 H6          1.2040   -3.0780   -3.7160 ha        1 0YT      0.109667
     19 H7          2.4370   -2.2340   -4.3030 ha        1 0YT      0.109667
     20 H8          0.7050   -1.1040    1.0500 h1        1 0YT      0.125000
     21 H9          2.6370   -0.6530    1.0200 ho        1 0YT      0.234000
     22 H10         0.5580    1.8220    1.3160 h1        1 0YT      0.100000
     23 H11         1.3690    1.4900    3.0050 ho        1 0YT      0.233000
     24 H12        -1.6310    0.1420    2.3120 h1        1 0YT      0.136000
     25 H13        -1.5270    2.9290    2.0330 h1        1 0YT      0.098500
     26 H14        -1.3360    2.1680    3.4390 h1        1 0YT      0.098500
     27 H15        -3.4360    2.7970    3.1790 ho        1 0YT      0.222000
     28 O1         -1.6810   -0.0250   -2.1680 oh        1 0YT     -0.298000
     29 H1         -1.5010   -1.1050   -0.4200 h2        1 0YT      0.098000
     30 H2         -2.5590   -0.1500   -2.2040 ho        1 0YT      0.225000
@<TRIPOS>BOND
     1    1    2 1   
     2    1   14 1   
     3    1   28 1   
     4    1   29 1   
     5    2    3 1   
     6    2    7 1   
     7    2   15 1   
     8    3    4 1   
     9    3   16 1   
    10    4    5 1   
    11    6   17 1   
    12    6   18 1   
    13    6   19 1   
    14    7    8 1   
    15    7    9 1   
    16    7   20 1   
    17    8   21 1   
    18    9   10 1   
    19    9   11 1   
    20    9   22 1   
    21   10   23 1   
    22   11   12 1   
    23   11   14 1   
    24   11   24 1   
    25   12   13 1   
    26   12   25 1   
    27   12   26 1   
    28   13   27 1   
    29   28   30 1   
@<TRIPOS>SUBSTRUCTURE
     1 0YT         1 TEMP              0 ****  ****    0 ROOT
