@<TRIPOS>MOLECULE
0YU
   58    62     1     0     0
SMALL
bcc


@<TRIPOS>ATOM
      1 NAU         0.4620   -0.7580    0.6370 na        1 0YU     -0.308900
      2 CAQ         1.6960   -0.2840    0.2050 cc        1 0YU     -0.255600
      3 CAS         1.7480    1.0730    0.5820 cd        1 0YU      0.294200
      4 NAY         0.5760    1.4370    1.2300 nd        1 0YU     -0.656000
      5 CBC        -0.2020    0.3170    1.2600 cc        1 0YU      0.447000
      6 CBG        -1.5380    0.2040    1.8370 ca        1 0YU     -0.136500
      7 CAL        -2.0310   -1.0250    2.2950 ca        1 0YU     -0.087500
      8 CAH        -3.3050   -1.1210    2.8370 ca        1 0YU     -0.158000
      9 CAK        -2.3440    1.3450    1.9490 ca        1 0YU     -0.087500
     10 CAG        -3.6240    1.2640    2.4890 ca        1 0YU     -0.158000
     11 CBE        -4.1300    0.0260    2.9370 ca        1 0YU      0.061600
     12 NAW        -5.4370   -0.1290    3.4390 ns        1 0YU     -0.445100
     13 CBA        -6.2060    0.8730    3.9980 c         1 0YU      0.661700
     14 OAB        -5.8790    2.0730    4.0370 o         1 0YU     -0.562100
     15 CBI        -7.5690    0.4690    4.4920 ca        1 0YU     -0.072600
     16 CBJ        -7.8010   -0.3580    5.6010 ca        1 0YU     -0.142200
     17 CAO        -9.1070   -0.5940    6.0590 ca        1 0YU     -0.039000
     18 NBK        -6.6830   -1.0100    6.3480 no        1 0YU      0.310200
     19 OAD        -6.6210   -0.8530    7.5340 o         1 0YU     -0.190000
     20 OAC        -5.9100   -1.7070    5.7470 o         1 0YU     -0.190000
     21 CAN        -8.6640    1.0360    3.8300 ca        1 0YU     -0.095000
     22 CAM        -9.9660    0.7940    4.2660 ca        1 0YU     -0.079000
     23 CBH       -10.1840   -0.0130    5.3850 ca        1 0YU     -0.132600
     24 CAZ       -11.5670   -0.3180    5.8780 c         1 0YU      0.676700
     25 OAA       -11.8880   -1.4820    6.1720 o         1 0YU     -0.564100
     26 NAV       -12.4190    0.7700    5.9770 ns        1 0YU     -0.463100
     27 CBD       -13.7510    0.7600    6.4250 ca        1 0YU      0.075600
     28 CAF       -14.3700    2.0010    6.7150 ca        1 0YU     -0.175500
     29 CAJ       -15.6910    2.0480    7.1410 ca        1 0YU     -0.068500
     30 CAE       -14.5040   -0.4230    6.5750 ca        1 0YU     -0.175500
     31 CAI       -15.8270   -0.3610    7.0020 ca        1 0YU     -0.068500
     32 CBF       -16.4300    0.8680    7.2930 ca        1 0YU     -0.149900
     33 CBB       -17.8300    0.9140    7.7420 ce        1 0YU      0.587800
     34 NAX       -18.7750    0.0810    7.3540 n2        1 0YU     -0.601900
     35 CAR       -20.0150    0.4510    8.0320 c3        1 0YU      0.074800
     36 CAP       -19.6660    1.6840    8.9320 c3        1 0YU      0.123800
     37 NAT       -18.2570    1.9700    8.6380 nu        1 0YU     -0.805200
     38 H1          0.1080   -1.6690    0.5170 hn        1 0YU      0.300700
     39 H2          2.4160   -0.9140   -0.3130 h4        1 0YU      0.177000
     40 H3          2.5550    1.7860    0.4230 h4        1 0YU      0.043100
     41 H5         -1.4090   -1.9320    2.2520 ha        1 0YU      0.145500
     42 H6         -3.6620   -2.0980    3.1980 ha        1 0YU      0.155000
     43 H7         -1.9650    2.3220    1.6090 ha        1 0YU      0.145500
     44 H8         -4.2290    2.1810    2.5720 ha        1 0YU      0.155000
     45 H9         -5.7140   -1.0730    3.6230 hn        1 0YU      0.338500
     46 H10        -9.2960   -1.2380    6.9380 ha        1 0YU      0.186000
     47 H11        -8.4830    1.6950    2.9640 ha        1 0YU      0.170000
     48 H12       -10.8130    1.2360    3.7170 ha        1 0YU      0.158000
     49 H13       -12.0280    1.6720    5.8070 hn        1 0YU      0.322500
     50 H14       -13.8140    2.9450    6.6020 ha        1 0YU      0.154000
     51 H15       -16.1550    3.0260    7.3470 ha        1 0YU      0.155000
     52 H16       -14.0580   -1.4070    6.3590 ha        1 0YU      0.154000
     53 H17       -16.4020   -1.2960    7.1040 ha        1 0YU      0.155000
     54 H21       -20.7920    0.7220    7.2710 h1        1 0YU      0.069200
     55 H22       -20.3870   -0.4150    8.6370 h1        1 0YU      0.069200
     56 H23       -19.8460    1.4610   10.0150 h1        1 0YU      0.054200
     57 H24       -20.2730    2.5790    8.6380 h1        1 0YU      0.054200
     58 H25       -17.6750    2.0650    9.4430 hn        1 0YU      0.390800
@<TRIPOS>BOND
     1    1    2 1   
     2    1    5 1   
     3    1   38 1   
     4    2    3 2   
     5    2   39 1   
     6    3    4 1   
     7    3   40 1   
     8    4    5 2   
     9    5    6 1   
    10    6    7 ar  
    11    6    9 ar  
    12    7    8 ar  
    13    7   41 1   
    14    8   11 ar  
    15    8   42 1   
    16    9   10 ar  
    17    9   43 1   
    18   10   11 ar  
    19   10   44 1   
    20   11   12 1   
    21   12   13 1   
    22   12   45 1   
    23   13   14 2   
    24   13   15 1   
    25   15   16 ar  
    26   15   21 ar  
    27   16   17 ar  
    28   16   18 1   
    29   17   23 ar  
    30   17   46 1   
    31   18   19 1   
    32   18   20 1   
    33   21   22 ar  
    34   21   47 1   
    35   22   23 ar  
    36   22   48 1   
    37   23   24 1   
    38   24   25 2   
    39   24   26 1   
    40   26   27 1   
    41   26   49 1   
    42   27   28 ar  
    43   27   30 ar  
    44   28   29 ar  
    45   28   50 1   
    46   29   32 ar  
    47   29   51 1   
    48   30   31 ar  
    49   30   52 1   
    50   31   32 ar  
    51   31   53 1   
    52   32   33 1   
    53   33   34 2   
    54   33   37 1   
    55   34   35 1   
    56   35   36 1   
    57   35   54 1   
    58   35   55 1   
    59   36   37 1   
    60   36   56 1   
    61   36   57 1   
    62   37   58 1   
@<TRIPOS>SUBSTRUCTURE
     1 0YU         1 TEMP              0 ****  ****    0 ROOT
