@<TRIPOS>MOLECULE
0YU
   58    44     1     0     0
SMALL
bcc


@<TRIPOS>ATOM
      1 NAU         8.6670   -4.4640   -4.3630 n2        1 0YU     -0.162500
      2 CAQ         9.2930   -5.5430   -4.8600 c1        1 0YU     -0.168500
      3 CAS         8.3770   -6.5680   -4.9350 c1        1 0YU     -0.168500
      4 NAY         7.2030   -6.1080   -4.4850 n2        1 0YU     -0.162500
      5 CBC         7.3710   -4.8000   -4.1270 c1        1 0YU     -0.012000
      6 CBG         6.2530   -3.8420   -3.5700 c1        1 0YU     -0.029000
      7 CAL         5.3290   -3.2750   -4.4390 c1        1 0YU     -0.068000
      8 CAH         4.2970   -2.4840   -3.9380 c1        1 0YU     -0.089333
      9 CAK         6.1490   -3.6200   -2.2080 c2        1 0YU     -0.106000
     10 CAG         5.1150   -2.8270   -1.7070 c1        1 0YU     -0.151000
     11 CBE         4.1930   -2.2620   -2.5720 c1        1 0YU     -0.026000
     12 NAW         3.0730   -1.5280   -2.0480 n2        1 0YU     -0.302000
     13 CBA         3.0890   -1.0610   -0.6590 c2        1 0YU      0.337000
     14 OAB         4.0440   -1.2920    0.0460 o         1 0YU     -0.325000
     15 CBI         1.9060   -0.2840   -0.1070 c1        1 0YU     -0.054000
     16 CBJ         1.8770    0.0760    1.2460 c1        1 0YU     -0.026000
     17 CAO         0.7320    0.6630    1.7870 c1        1 0YU     -0.089333
     18 NBK         2.9740   -0.2530    2.0920 n1        1 0YU      0.563000
     19 OAD         3.7790   -1.0770    1.7400 o         1 0YU     -0.364000
     20 OAC         3.0910    0.3400    3.3330 os        1 0YU     -0.309000
     21 CAN         0.7980   -0.0570   -0.9070 c1        1 0YU     -0.094000
     22 CAM        -0.3460    0.5300   -0.3670 c1        1 0YU     -0.082000
     23 CBH        -0.3770    0.8890    0.9830 c1        1 0YU     -0.110000
     24 CAZ        -1.6410    1.4880    1.5820 c1        1 0YU      0.350000
     25 OAA        -1.6690    1.7900    2.7480 o         1 0YU     -0.324000
     26 NAV        -2.7850    1.7230    0.7540 n2        1 0YU     -0.318000
     27 CBD        -3.9800    2.3260    1.3240 c2        1 0YU      0.083000
     28 CAF        -4.0460    3.7130    1.5080 c2        1 0YU     -0.157000
     29 CAJ        -5.1820    4.2870    2.0750 c1        1 0YU     -0.082000
     30 CAE        -5.0390    1.5290    1.7040 c1        1 0YU     -0.188000
     31 CAI        -6.1820    2.1070    2.2750 c1        1 0YU     -0.089333
     32 CBF        -6.2480    3.4830    2.4580 c1        1 0YU     -0.026000
     33 CBB        -7.4680    4.1060    3.1360 c1        1 0YU      0.066000
     34 NAX        -8.5850    4.2250    2.4810 n1        1 0YU     -0.195000
     35 CAR        -9.7220    4.2940    3.2550 c2        1 0YU     -0.128000
     36 CAP        -9.0640    4.1750    4.7380 c3        1 0YU     -0.111000
     37 NAT        -7.5850    4.0670    4.4760 n2        1 0YU     -0.287000
     38 H1          9.0460   -3.6460   -4.2110 DU        1 0YU      0.202667
     39 H2         10.2340   -5.5920   -5.1220 DU        1 0YU      0.202667
     40 H3          8.5510   -7.4630   -5.2570 DU        1 0YU      0.202667
     41 H5          5.4030   -3.4320   -5.4060 ha        1 0YU      0.162000
     42 H6          3.6460   -2.0840   -4.5510 ha        1 0YU      0.163000
     43 H7          6.8010   -4.0200   -1.5950 ha        1 0YU      0.129000
     44 H8          5.0410   -2.6700   -0.7440 ha        1 0YU      0.169000
     45 H9          2.3830   -1.2910   -2.6010 hn        1 0YU      0.254000
     46 H10         0.7100    0.9150    2.7340 ha        1 0YU      0.163000
     47 H11         0.8180   -0.3050   -1.8400 ha        1 0YU      0.170000
     48 H12        -1.1200    0.6880   -0.9280 ha        1 0YU      0.157000
     49 H13        -2.7970    1.4090   -0.1110 hn        1 0YU      0.234000
     50 H14        -3.3070    4.2700    1.2420 ha        1 0YU      0.175000
     51 H15        -5.2270    5.2470    2.2020 ha        1 0YU      0.135000
     52 H16        -4.9930    0.5600    1.5760 ha        1 0YU      0.134000
     53 H17        -6.9240    1.5490    2.5420 ha        1 0YU      0.163000
     54 H21       -10.4100    3.5930    3.1400 ha        1 0YU      0.108000
     55 H22       -10.0640    5.2180    3.1110 ha        1 0YU      0.108000
     56 H23        -9.2120    5.0300    5.1850 h1        1 0YU      0.093500
     57 H24        -9.3510    3.3200    5.1100 h1        1 0YU      0.093500
     58 H25        -6.9180    4.2410    5.0780 hn        1 0YU      0.187000
@<TRIPOS>BOND
     1    1    2 1   
     2    1    5 1   
     3    2    3 1   
     4    3    4 1   
     5    4    5 1   
     6    6    7 1   
     7    6    9 1   
     8    7   41 1   
     9    8   11 1   
    10    8   42 1   
    11    9   10 1   
    12    9   43 1   
    13   10   44 1   
    14   12   13 1   
    15   12   45 1   
    16   13   14 1   
    17   13   15 1   
    18   15   21 1   
    19   16   17 1   
    20   17   46 1   
    21   18   19 1   
    22   21   47 1   
    23   22   23 1   
    24   22   48 1   
    25   23   24 1   
    26   24   25 1   
    27   26   27 1   
    28   26   49 1   
    29   27   28 1   
    30   27   30 1   
    31   28   29 1   
    32   28   50 1   
    33   29   51 1   
    34   30   52 1   
    35   31   32 1   
    36   31   53 1   
    37   33   34 1   
    38   35   36 1   
    39   35   54 1   
    40   35   55 1   
    41   36   37 1   
    42   36   56 1   
    43   36   57 1   
    44   37   58 1   
@<TRIPOS>SUBSTRUCTURE
     1 0YU         1 TEMP              0 ****  ****    0 ROOT
