@<TRIPOS>MOLECULE
0YU
   58    62     1     0     0
SMALL
bcc


@<TRIPOS>ATOM
      1 NAU         0.4600   -0.7540    0.6340 na        1 0YU     -0.308900
      2 CAQ         1.6930   -0.2800    0.2020 cc        1 0YU     -0.255600
      3 CAS         1.7440    1.0780    0.5780 cd        1 0YU      0.294200
      4 NAY         0.5710    1.4410    1.2260 nd        1 0YU     -0.656000
      5 CBC        -0.2050    0.3210    1.2570 cc        1 0YU      0.447000
      6 CBG        -1.5420    0.2070    1.8340 ca        1 0YU     -0.136500
      7 CAL        -2.0330   -1.0220    2.2920 ca        1 0YU     -0.087500
      8 CAH        -3.3070   -1.1190    2.8350 ca        1 0YU     -0.158000
      9 CAK        -2.3490    1.3470    1.9450 ca        1 0YU     -0.087500
     10 CAG        -3.6280    1.2650    2.4860 ca        1 0YU     -0.158000
     11 CBE        -4.1330    0.0270    2.9340 ca        1 0YU      0.061600
     12 NAW        -5.4400   -0.1290    3.4370 n         1 0YU     -0.445100
     13 CBA        -6.2100    0.8730    3.9950 c         1 0YU      0.661700
     14 OAB        -5.8830    2.0720    4.0340 o         1 0YU     -0.562100
     15 CBI        -7.5720    0.4680    4.4900 ca        1 0YU     -0.072600
     16 CBJ        -7.8030   -0.3590    5.6000 ca        1 0YU     -0.142200
     17 CAO        -9.1090   -0.5960    6.0590 ca        1 0YU     -0.039000
     18 NBK        -6.6840   -1.0110    6.3460 no        1 0YU      0.310200
     19 OAD        -6.6210   -0.8530    7.5320 o         1 0YU     -0.190000
     20 OAC        -5.9100   -1.7070    5.7450 o         1 0YU     -0.190000
     21 CAN        -8.6680    1.0340    3.8290 ca        1 0YU     -0.095000
     22 CAM        -9.9690    0.7910    4.2660 ca        1 0YU     -0.079000
     23 CBH       -10.1860   -0.0160    5.3850 ca        1 0YU     -0.132600
     24 CAZ       -11.5680   -0.3220    5.8790 c         1 0YU      0.676700
     25 OAA       -11.8890   -1.4860    6.1730 o         1 0YU     -0.564100
     26 NAV       -12.4210    0.7660    5.9780 n         1 0YU     -0.463100
     27 CBD       -13.7520    0.7550    6.4280 ca        1 0YU      0.075600
     28 CAF       -14.3720    1.9960    6.7190 ca        1 0YU     -0.175500
     29 CAJ       -15.6920    2.0420    7.1460 ca        1 0YU     -0.068500
     30 CAE       -14.5050   -0.4270    6.5780 ca        1 0YU     -0.175500
     31 CAI       -15.8280   -0.3660    7.0070 ca        1 0YU     -0.068500
     32 CBF       -16.4300    0.8620    7.3000 ca        1 0YU     -0.149900
     33 CBB       -17.8300    0.9080    7.7500 ce        1 0YU      0.587800
     34 NAX       -18.7750    0.0750    7.3620 n2        1 0YU     -0.601900
     35 CAR       -20.0140    0.4440    8.0420 c3        1 0YU      0.074800
     36 CAP       -19.6640    1.6770    8.9430 c3        1 0YU      0.123800
     37 NAT       -18.2560    1.9630    8.6470 nh        1 0YU     -0.805200
     38 H1          0.1070   -1.6660    0.5160 hn        1 0YU      0.300700
     39 H2          2.4140   -0.9080   -0.3160 h4        1 0YU      0.177000
     40 H3          2.5500    1.7930    0.4190 h4        1 0YU      0.043100
     41 H5         -1.4100   -1.9290    2.2500 ha        1 0YU      0.145500
     42 H6         -3.6630   -2.0970    3.1960 ha        1 0YU      0.155000
     43 H7         -1.9700    2.3250    1.6050 ha        1 0YU      0.145500
     44 H8         -4.2340    2.1820    2.5680 ha        1 0YU      0.155000
     45 H9         -5.7160   -1.0740    3.6210 hn        1 0YU      0.338500
     46 H10        -9.2960   -1.2400    6.9380 ha        1 0YU      0.186000
     47 H11        -8.4880    1.6930    2.9630 ha        1 0YU      0.170000
     48 H12       -10.8170    1.2320    3.7170 ha        1 0YU      0.158000
     49 H13       -12.0310    1.6680    5.8090 hn        1 0YU      0.322500
     50 H14       -13.8160    2.9400    6.6070 ha        1 0YU      0.154000
     51 H15       -16.1560    3.0200    7.3540 ha        1 0YU      0.155000
     52 H16       -14.0590   -1.4120    6.3610 ha        1 0YU      0.154000
     53 H17       -16.4020   -1.3010    7.1090 ha        1 0YU      0.155000
     54 H21       -20.3860   -0.4220    8.6480 h1        1 0YU      0.069200
     55 H22       -20.7920    0.7150    7.2830 h1        1 0YU      0.069200
     56 H23       -19.8430    1.4530   10.0250 h1        1 0YU      0.054200
     57 H24       -20.2720    2.5710    8.6500 h1        1 0YU      0.054200
     58 H25       -17.6720    2.0580    9.4510 hn        1 0YU      0.390800
@<TRIPOS>BOND
     1    1    2 1   
     2    1    5 1   
     3    1   38 1   
     4    2    3 2   
     5    2   39 1   
     6    3    4 1   
     7    3   40 1   
     8    4    5 2   
     9    5    6 1   
    10    6    7 ar  
    11    6    9 ar  
    12    7    8 ar  
    13    7   41 1   
    14    8   11 ar  
    15    8   42 1   
    16    9   10 ar  
    17    9   43 1   
    18   10   11 ar  
    19   10   44 1   
    20   11   12 1   
    21   12   13 1   
    22   12   45 1   
    23   13   14 2   
    24   13   15 1   
    25   15   16 ar  
    26   15   21 ar  
    27   16   17 ar  
    28   16   18 1   
    29   17   23 ar  
    30   17   46 1   
    31   18   19 1   
    32   18   20 1   
    33   21   22 ar  
    34   21   47 1   
    35   22   23 ar  
    36   22   48 1   
    37   23   24 1   
    38   24   25 2   
    39   24   26 1   
    40   26   27 1   
    41   26   49 1   
    42   27   28 ar  
    43   27   30 ar  
    44   28   29 ar  
    45   28   50 1   
    46   29   32 ar  
    47   29   51 1   
    48   30   31 ar  
    49   30   52 1   
    50   31   32 ar  
    51   31   53 1   
    52   32   33 1   
    53   33   34 2   
    54   33   37 1   
    55   34   35 1   
    56   35   36 1   
    57   35   54 1   
    58   35   55 1   
    59   36   37 1   
    60   36   56 1   
    61   36   57 1   
    62   37   58 1   
@<TRIPOS>SUBSTRUCTURE
     1 0YU         1 TEMP              0 ****  ****    0 ROOT
