@<TRIPOS>MOLECULE
0YU
   58    62     1     0     0
SMALL
bcc


@<TRIPOS>ATOM
      1 NAU       -10.1580    0.7920    0.9180 na        1 0YU     -0.308900
      2 CAQ       -11.4450    0.9050    0.4040 cc        1 0YU     -0.255600
      3 CAS       -11.3110    0.8750   -0.9980 cd        1 0YU      0.294200
      4 NAY        -9.9750    0.7480   -1.3510 nd        1 0YU     -0.656000
      5 CBC        -9.2780    0.6980   -0.1790 cc        1 0YU      0.447000
      6 CBG        -7.8310    0.5740   -0.0350 ca        1 0YU     -0.136500
      7 CAL        -7.2610    0.0140    1.1170 ca        1 0YU     -0.087500
      8 CAH        -5.8830   -0.0950    1.2440 ca        1 0YU     -0.158000
      9 CAK        -6.9910    1.0090   -1.0670 ca        1 0YU     -0.087500
     10 CAG        -5.6080    0.9070   -0.9530 ca        1 0YU     -0.158000
     11 CBE        -5.0290    0.3590    0.2100 ca        1 0YU      0.061600
     12 NAW        -3.6360    0.2830    0.4080 n         1 0YU     -0.445100
     13 CBA        -2.6830    0.2630   -0.5920 c         1 0YU      0.661700
     14 OAB        -2.9300    0.4130   -1.8020 o         1 0YU     -0.562100
     15 CBI        -1.2510    0.1510   -0.1450 ca        1 0YU     -0.072600
     16 CBJ        -0.6880   -0.9910    0.4460 ca        1 0YU     -0.142200
     17 CAO         0.6860   -1.0470    0.7320 ca        1 0YU     -0.039000
     18 NBK        -1.5100   -2.1920    0.7850 no        1 0YU      0.310200
     19 OAD        -1.1590   -3.2590    0.3690 o         1 0YU     -0.190000
     20 OAC        -2.4690   -2.0600    1.4980 o         1 0YU     -0.190000
     21 CAN        -0.4250    1.2460   -0.4210 ca        1 0YU     -0.095000
     22 CAM         0.9360    1.2060   -0.1250 ca        1 0YU     -0.079000
     23 CBH         1.4910    0.0570    0.4420 ca        1 0YU     -0.132600
     24 CAZ         2.9450   -0.0240    0.7960 c         1 0YU      0.676700
     25 OAA         3.3010   -0.4720    1.8990 o         1 0YU     -0.564100
     26 NAV         3.8220    0.4230   -0.1790 n         1 0YU     -0.463100
     27 CBD         5.2260    0.4370   -0.1080 ca        1 0YU      0.075600
     28 CAF         5.9560    0.6710   -1.3000 ca        1 0YU     -0.175500
     29 CAJ         7.3430    0.7160   -1.2800 ca        1 0YU     -0.068500
     30 CAE         5.9380    0.2560    1.0960 ca        1 0YU     -0.175500
     31 CAI         7.3290    0.3050    1.1010 ca        1 0YU     -0.068500
     32 CBF         8.0430    0.5280   -0.0820 ca        1 0YU     -0.149900
     33 CBB         9.5130    0.5770   -0.0570 ce        1 0YU      0.587800
     34 NAX        10.2360    1.0350    0.9450 n2        1 0YU     -0.601900
     35 CAR        11.6460    0.9000    0.5890 c3        1 0YU      0.074800
     36 CAP        11.6720    0.2610   -0.8420 c3        1 0YU      0.123800
     37 NAT        10.2600    0.1480   -1.2220 nh        1 0YU     -0.805200
     38 H1         -9.9020    0.7930    1.8690 hn        1 0YU      0.300700
     39 H2        -12.3230    0.9940    1.0400 h4        1 0YU      0.177000
     40 H3        -12.0950    0.9340   -1.7520 h4        1 0YU      0.043100
     41 H5         -7.8960   -0.3680    1.9300 ha        1 0YU      0.145500
     42 H6         -5.4640   -0.5480    2.1560 ha        1 0YU      0.155000
     43 H7         -7.4240    1.4360   -1.9870 ha        1 0YU      0.145500
     44 H8         -4.9750    1.2500   -1.7880 ha        1 0YU      0.155000
     45 H9         -3.3510   -0.0260    1.3170 hn        1 0YU      0.338500
     46 H10         1.1370   -1.9470    1.1890 ha        1 0YU      0.186000
     47 H11        -0.8640    2.1400   -0.8950 ha        1 0YU      0.170000
     48 H12         1.5630    2.0890   -0.3350 ha        1 0YU      0.158000
     49 H13         3.4330    0.6710   -1.0630 hn        1 0YU      0.322500
     50 H14         5.4320    0.8230   -2.2570 ha        1 0YU      0.154000
     51 H15         7.8880    0.9110   -2.2180 ha        1 0YU      0.155000
     52 H16         5.4060    0.0730    2.0440 ha        1 0YU      0.154000
     53 H17         7.8670    0.1700    2.0530 ha        1 0YU      0.155000
     54 H21        12.1290    1.9110    0.5800 h1        1 0YU      0.069200
     55 H22        12.1670    0.2560    1.3420 h1        1 0YU      0.069200
     56 H23        12.1790    0.9410   -1.5740 h1        1 0YU      0.054200
     57 H24        12.2000   -0.7260   -0.8360 h1        1 0YU      0.054200
     58 H25         9.9890   -0.7530   -1.5560 hn        1 0YU      0.390800
@<TRIPOS>BOND
     1    1    2 1   
     2    1    5 1   
     3    1   38 1   
     4    2    3 2   
     5    2   39 1   
     6    3    4 1   
     7    3   40 1   
     8    4    5 2   
     9    5    6 1   
    10    6    7 ar  
    11    6    9 ar  
    12    7    8 ar  
    13    7   41 1   
    14    8   11 ar  
    15    8   42 1   
    16    9   10 ar  
    17    9   43 1   
    18   10   11 ar  
    19   10   44 1   
    20   11   12 1   
    21   12   13 1   
    22   12   45 1   
    23   13   14 2   
    24   13   15 1   
    25   15   16 ar  
    26   15   21 ar  
    27   16   17 ar  
    28   16   18 1   
    29   17   23 ar  
    30   17   46 1   
    31   18   19 1   
    32   18   20 1   
    33   21   22 ar  
    34   21   47 1   
    35   22   23 ar  
    36   22   48 1   
    37   23   24 1   
    38   24   25 2   
    39   24   26 1   
    40   26   27 1   
    41   26   49 1   
    42   27   28 ar  
    43   27   30 ar  
    44   28   29 ar  
    45   28   50 1   
    46   29   32 ar  
    47   29   51 1   
    48   30   31 ar  
    49   30   52 1   
    50   31   32 ar  
    51   31   53 1   
    52   32   33 1   
    53   33   34 2   
    54   33   37 1   
    55   34   35 1   
    56   35   36 1   
    57   35   54 1   
    58   35   55 1   
    59   36   37 1   
    60   36   56 1   
    61   36   57 1   
    62   37   58 1   
@<TRIPOS>SUBSTRUCTURE
     1 0YU         1 TEMP              0 ****  ****    0 ROOT
