@<TRIPOS>MOLECULE
0YV
   54    56     1     0     0
SMALL
bcc


@<TRIPOS>ATOM
      1 NAA         4.0620   -4.1540   -0.5030 n4        1 0YV     -0.839600
      2 CAS         3.6490   -2.7820   -0.0830 c3        1 0YV      0.096800
      3 CAU         4.1750   -1.6930   -1.0180 c3        1 0YV     -0.049100
      4 CBC         3.6380   -0.3740   -0.5810 ca        1 0YV     -0.126300
      5 CAQ         4.4810    0.5650    0.0180 ca        1 0YV     -0.086000
      6 CAN         2.2920   -0.0680   -0.8080 ca        1 0YV     -0.099000
      7 CAW         1.7830    1.1750   -0.4240 ca        1 0YV     -0.022900
      8 BRC        -0.0180    1.5740   -0.7220 br        1 0YV     -0.035100
      9 CAL         2.6200    2.1190    0.1760 ca        1 0YV     -0.062000
     10 CBA         3.9750    1.8190    0.3970 ca        1 0YV      0.055000
     11 CAG         4.8170    2.7770    0.9870 cg        1 0YV     -0.138000
     12 CAE         5.5230    3.6100    1.4840 ch        1 0YV     -0.049000
     13 CAY         6.3530    4.5860    2.0660 ca        1 0YV      0.003000
     14 CAP         5.8460    5.8660    2.3410 ca        1 0YV     -0.068000
     15 CAJ         7.6920    4.2860    2.3710 ca        1 0YV     -0.081000
     16 CAI         8.5090    5.2560    2.9460 ca        1 0YV     -0.131000
     17 CAK         8.0110    6.5270    3.2220 ca        1 0YV     -0.081000
     18 CAZ         6.6750    6.8390    2.9200 ca        1 0YV      0.003000
     19 CAF         6.1670    8.1220    3.1980 cg        1 0YV     -0.049000
     20 CAH         5.7340    9.2150    3.4370 ch        1 0YV     -0.138000
     21 CBB         5.2050   10.4870    3.7160 ca        1 0YV      0.055000
     22 CAR         5.9810   11.4490    4.3840 ca        1 0YV     -0.086000
     23 CAM         3.8890   10.7970    3.3330 ca        1 0YV     -0.062000
     24 CAX         3.3540   12.0550    3.6230 ca        1 0YV     -0.022900
     25 BRD         1.6030   12.4690    3.1180 br        1 0YV     -0.035100
     26 CAO         4.1260   13.0060    4.2950 ca        1 0YV     -0.099000
     27 CBD         5.4410   12.7040    4.6690 ca        1 0YV     -0.126300
     28 CAV         6.2440   13.7170    5.4090 c3        1 0YV     -0.049100
     29 CAT         6.6520   14.8320    4.4450 c3        1 0YV      0.096800
     30 NAB         7.3840   15.9430    5.1240 n4        1 0YV     -0.839600
     31 H1          3.6860   -4.8490    0.1490 hn        1 0YV      0.462467
     32 H2          5.0840   -4.2270   -0.5170 hn        1 0YV      0.462467
     33 H4          4.0360   -2.6110    0.9640 hx        1 0YV      0.118200
     34 H5          2.5200   -2.7530   -0.0590 hx        1 0YV      0.118200
     35 H6          3.8470   -1.8940   -2.0750 hc        1 0YV      0.075700
     36 H7          5.2980   -1.6790   -1.0040 hc        1 0YV      0.075700
     37 H8          5.5440    0.3360    0.1860 ha        1 0YV      0.146000
     38 H9          1.6380   -0.8030   -1.3030 ha        1 0YV      0.143000
     39 H10         2.2280    3.1050    0.4770 ha        1 0YV      0.171000
     40 H11         4.7980    6.1060    2.1030 ha        1 0YV      0.151000
     41 H12         8.0920    3.2840    2.1550 ha        1 0YV      0.145000
     42 H13         9.5570    5.0160    3.1840 ha        1 0YV      0.151000
     43 H14         8.6630    7.2890    3.6770 ha        1 0YV      0.145000
     44 H15         7.0090   11.1990    4.6890 ha        1 0YV      0.146000
     45 H16         3.2850   10.0390    2.8080 ha        1 0YV      0.171000
     46 H17         3.6970   13.9890    4.5450 ha        1 0YV      0.143000
     47 H18         5.6280   14.1350    6.2520 hc        1 0YV      0.075700
     48 H19         7.1560   13.2380    5.8560 hc        1 0YV      0.075700
     49 H20         7.3250   14.4170    3.6390 hx        1 0YV      0.118200
     50 H21         5.7330   15.2710    3.9580 hx        1 0YV      0.118200
     51 H22         7.6350   16.6660    4.4420 hn        1 0YV      0.462467
     52 H23         6.7940   16.3610    5.8520 hn        1 0YV      0.462467
     53 HAA3        3.7090   -4.3560   -1.4450 hn        1 0YV      0.462467
     54 HAB3        8.2390   15.5860    5.5640 hn        1 0YV      0.462467
@<TRIPOS>BOND
     1    1    2 1   
     2    1   31 1   
     3    1   32 1   
     4    1   53 1   
     5    2    3 1   
     6    2   33 1   
     7    2   34 1   
     8    3    4 1   
     9    3   35 1   
    10    3   36 1   
    11    4    5 ar  
    12    4    6 ar  
    13    5   10 ar  
    14    5   37 1   
    15    6    7 ar  
    16    6   38 1   
    17    7    8 1   
    18    7    9 ar  
    19    9   10 ar  
    20    9   39 1   
    21   10   11 1   
    22   11   12 3   
    23   12   13 1   
    24   13   14 ar  
    25   13   15 ar  
    26   14   18 ar  
    27   14   40 1   
    28   15   16 ar  
    29   15   41 1   
    30   16   17 ar  
    31   16   42 1   
    32   17   18 ar  
    33   17   43 1   
    34   18   19 1   
    35   19   20 3   
    36   20   21 1   
    37   21   22 ar  
    38   21   23 ar  
    39   22   27 ar  
    40   22   44 1   
    41   23   24 ar  
    42   23   45 1   
    43   24   25 1   
    44   24   26 ar  
    45   26   27 ar  
    46   26   46 1   
    47   27   28 1   
    48   28   29 1   
    49   28   47 1   
    50   28   48 1   
    51   29   30 1   
    52   29   49 1   
    53   29   50 1   
    54   30   51 1   
    55   30   52 1   
    56   30   54 1   
@<TRIPOS>SUBSTRUCTURE
     1 0YV         1 TEMP              0 ****  ****    0 ROOT
