@<TRIPOS>MOLECULE
0YV
   52    54     1     0     0
SMALL
bcc


@<TRIPOS>ATOM
      1 NAA         5.6080    5.3260    1.2770 n3        1 0YV     -0.917800
      2 CAS         5.7080    3.8860    1.2460 c3        1 0YV      0.160800
      3 CAU         6.0360    3.3410   -0.1470 c3        1 0YV     -0.042100
      4 CBC         6.0220    1.8520   -0.1410 ca        1 0YV     -0.079300
      5 CAQ         4.8040    1.1660   -0.1080 ca        1 0YV     -0.093500
      6 CAN         7.2210    1.1330   -0.1770 ca        1 0YV     -0.094500
      7 CAW         7.2020   -0.2640   -0.1810 ca        1 0YV     -0.027400
      8 BRC         8.8140   -1.2180   -0.2310 br        1 0YV     -0.084100
      9 CAL         5.9890   -0.9530   -0.1470 ca        1 0YV     -0.084500
     10 CBA         4.7810   -0.2360   -0.1110 ca        1 0YV      0.028500
     11 CAG         3.5550   -0.9250   -0.0780 cg        1 0YV     -0.103500
     12 CAE         2.5090   -1.5120   -0.0500 ch        1 0YV     -0.094500
     13 CAY         1.2830   -2.1990   -0.0170 ca        1 0YV      0.020500
     14 CAP         0.0760   -1.4840    0.0110 ca        1 0YV     -0.083000
     15 CAJ         1.2600   -3.6040   -0.0110 ca        1 0YV     -0.096000
     16 CAI         0.0430   -4.2800    0.0220 ca        1 0YV     -0.135000
     17 CAK        -1.1580   -3.5750    0.0500 ca        1 0YV     -0.096000
     18 CAZ        -1.1470   -2.1700    0.0440 ca        1 0YV      0.020500
     19 CAF        -2.3560   -1.4520    0.0710 cg        1 0YV     -0.094500
     20 CAH        -3.3890   -0.8410    0.0940 ch        1 0YV     -0.103500
     21 CBB        -4.5980   -0.1240    0.1220 ca        1 0YV      0.028500
     22 CAR        -4.5870    1.2800    0.1100 ca        1 0YV     -0.093500
     23 CAM        -5.8220   -0.8120    0.1600 ca        1 0YV     -0.084500
     24 CAX        -7.0190   -0.0940    0.1880 ca        1 0YV     -0.027400
     25 BRD        -8.6520   -1.0110    0.2400 br        1 0YV     -0.084100
     26 CAO        -7.0050    1.3020    0.1770 ca        1 0YV     -0.094500
     27 CBD        -5.7880    1.9930    0.1380 ca        1 0YV     -0.079300
     28 CAV        -5.7820    3.4810    0.1370 c3        1 0YV     -0.042100
     29 CAT        -6.1960    4.0190   -1.2370 c3        1 0YV      0.160800
     30 NAB        -6.2960    5.4580   -1.2700 n3        1 0YV     -0.917800
     31 H1          5.4530    5.6430    2.2130 hn        1 0YV      0.350800
     32 H2          6.4380    5.7540    0.9170 hn        1 0YV      0.350800
     33 H4          6.4830    3.4870    1.9670 h1        1 0YV      0.030450
     34 H5          4.7100    3.4710    1.5690 h1        1 0YV      0.030450
     35 H6          5.2810    3.7180   -0.8890 hc        1 0YV      0.058950
     36 H7          7.0420    3.7150   -0.4750 hc        1 0YV      0.058950
     37 H8          3.8590    1.7310   -0.0820 ha        1 0YV      0.145500
     38 H9          8.1800    1.6760   -0.2050 ha        1 0YV      0.150000
     39 H10         5.9660   -2.0540   -0.1500 ha        1 0YV      0.154000
     40 H11         0.0900   -0.3840    0.0060 ha        1 0YV      0.147000
     41 H12         2.2060   -4.1670   -0.0320 ha        1 0YV      0.143000
     42 H13         0.0290   -5.3800    0.0270 ha        1 0YV      0.140000
     43 H14        -2.1170   -4.1140    0.0760 ha        1 0YV      0.143000
     44 H15        -3.6270    1.8160    0.0820 ha        1 0YV      0.145500
     45 H16        -5.8250   -1.9130    0.1690 ha        1 0YV      0.154000
     46 H17        -7.9470    1.8720    0.2020 ha        1 0YV      0.150000
     47 H18        -6.4920    3.8590    0.9210 hc        1 0YV      0.058950
     48 H19        -4.7590    3.8620    0.4010 hc        1 0YV      0.058950
     49 H20        -5.4690    3.6140   -2.0030 h1        1 0YV      0.030450
     50 H21        -7.2130    3.6030   -1.4940 h1        1 0YV      0.030450
     51 H22        -5.4430    5.8870   -0.9720 hn        1 0YV      0.350800
     52 H23        -6.5160    5.7690   -2.1950 hn        1 0YV      0.350800
@<TRIPOS>BOND
     1    1    2 1   
     2    1   31 1   
     3    1   32 1   
     4    2    3 1   
     5    2   33 1   
     6    2   34 1   
     7    3    4 1   
     8    3   35 1   
     9    3   36 1   
    10    4    5 ar  
    11    4    6 ar  
    12    5   10 ar  
    13    5   37 1   
    14    6    7 ar  
    15    6   38 1   
    16    7    8 1   
    17    7    9 ar  
    18    9   10 ar  
    19    9   39 1   
    20   10   11 1   
    21   11   12 3   
    22   12   13 1   
    23   13   14 ar  
    24   13   15 ar  
    25   14   18 ar  
    26   14   40 1   
    27   15   16 ar  
    28   15   41 1   
    29   16   17 ar  
    30   16   42 1   
    31   17   18 ar  
    32   17   43 1   
    33   18   19 1   
    34   19   20 3   
    35   20   21 1   
    36   21   22 ar  
    37   21   23 ar  
    38   22   27 ar  
    39   22   44 1   
    40   23   24 ar  
    41   23   45 1   
    42   24   25 1   
    43   24   26 ar  
    44   26   27 ar  
    45   26   46 1   
    46   27   28 1   
    47   28   29 1   
    48   28   47 1   
    49   28   48 1   
    50   29   30 1   
    51   29   49 1   
    52   29   50 1   
    53   30   51 1   
    54   30   52 1   
@<TRIPOS>SUBSTRUCTURE
     1 0YV         1 TEMP              0 ****  ****    0 ROOT
