@<TRIPOS>MOLECULE
0YV
   54    56     1     0     0
SMALL
bcc


@<TRIPOS>ATOM
      1 NAA         4.3320   -4.6910    0.2500 n4        1 0YV     -0.839600
      2 CAS         3.9260   -3.2960    0.5960 c3        1 0YV      0.096800
      3 CAU         3.8620   -2.3790   -0.6260 c3        1 0YV     -0.049100
      4 CBC         3.3590   -1.0420   -0.2050 ca        1 0YV     -0.126300
      5 CAQ         4.2230    0.0550   -0.1670 ca        1 0YV     -0.086000
      6 CAN         2.0070   -0.8830    0.1170 ca        1 0YV     -0.099000
      7 CAW         1.5180    0.3710    0.4890 ca        1 0YV     -0.022900
      8 BRC        -0.2870    0.5730    0.9270 br        1 0YV     -0.035100
      9 CAL         2.3770    1.4720    0.5300 ca        1 0YV     -0.062000
     10 CBA         3.7340    1.3200    0.1980 ca        1 0YV      0.055000
     11 CAG         4.5900    2.4340    0.2250 cg        1 0YV     -0.138000
     12 CAE         5.3060    3.3970    0.2450 ch        1 0YV     -0.049000
     13 CAY         6.1450    4.5260    0.2680 ca        1 0YV      0.003000
     14 CAP         5.6060    5.7970    0.5170 ca        1 0YV     -0.068000
     15 CAJ         7.5250    4.3860    0.0390 ca        1 0YV     -0.081000
     16 CAI         8.3510    5.5070    0.0620 ca        1 0YV     -0.131000
     17 CAK         7.8220    6.7710    0.3090 ca        1 0YV     -0.081000
     18 CAZ         6.4430    6.9230    0.5380 ca        1 0YV      0.003000
     19 CAF         5.9030    8.1980    0.7890 cg        1 0YV     -0.049000
     20 CAH         5.4430    9.2850    1.0050 ch        1 0YV     -0.138000
     21 CBB         4.8860   10.5480    1.2670 ca        1 0YV      0.055000
     22 CAR         5.7130   11.6750    1.4120 ca        1 0YV     -0.086000
     23 CAM         3.4930   10.6860    1.3920 ca        1 0YV     -0.062000
     24 CAX         2.9360   11.9370    1.6680 ca        1 0YV     -0.022900
     25 BRD         1.0840   12.1220    1.8390 br        1 0YV     -0.035100
     26 CAO         3.7620   13.0530    1.8210 ca        1 0YV     -0.099000
     27 CBD         5.1490   12.9220    1.6870 ca        1 0YV     -0.126300
     28 CAV         6.0210   14.1150    1.8780 c3        1 0YV     -0.049100
     29 CAT         5.8740   15.0400    0.6700 c3        1 0YV      0.096800
     30 NAB         6.6440   16.3110    0.8190 n4        1 0YV     -0.839600
     31 H1          4.3590   -5.2690    1.0960 hn        1 0YV      0.462467
     32 H2          5.2600   -4.6920   -0.1850 hn        1 0YV      0.462467
     33 H4          4.6730   -2.8950    1.3400 hx        1 0YV      0.118200
     34 H5          2.9120   -3.3450    1.0910 hx        1 0YV      0.118200
     35 H6          3.1690   -2.8080   -1.4010 hc        1 0YV      0.075700
     36 H7          4.8800   -2.2820   -1.0920 hc        1 0YV      0.075700
     37 H8          5.2850   -0.0590   -0.4340 ha        1 0YV      0.146000
     38 H9          1.3250   -1.7470    0.0610 ha        1 0YV      0.143000
     39 H10         1.9980    2.4680    0.8180 ha        1 0YV      0.171000
     40 H11         4.5260    5.9110    0.6960 ha        1 0YV      0.151000
     41 H12         7.9500    3.3910   -0.1580 ha        1 0YV      0.145000
     42 H13         9.4320    5.3930   -0.1180 ha        1 0YV      0.151000
     43 H14         8.4810    7.6530    0.3260 ha        1 0YV      0.145000
     44 H15         6.8040   11.5610    1.3200 ha        1 0YV      0.146000
     45 H16         2.8490    9.7990    1.2760 ha        1 0YV      0.171000
     46 H17         3.3250   14.0350    2.0620 ha        1 0YV      0.143000
     47 H18         5.7150   14.6490    2.8190 hc        1 0YV      0.075700
     48 H19         7.0920   13.7970    1.9960 hc        1 0YV      0.075700
     49 H20         6.2450   14.5200   -0.2610 hx        1 0YV      0.118200
     50 H21         4.7870   15.3100    0.5240 hx        1 0YV      0.118200
     51 H22         6.5150   16.8990   -0.0110 hn        1 0YV      0.462467
     52 H23         6.3200   16.8250    1.6460 hn        1 0YV      0.462467
     53 HAA3        3.6630   -5.1000   -0.4120 hn        1 0YV      0.462467
     54 HAB3        7.6420   16.1080    0.9330 hn        1 0YV      0.462467
@<TRIPOS>BOND
     1    1    2 1   
     2    1   31 1   
     3    1   32 1   
     4    1   53 1   
     5    2    3 1   
     6    2   33 1   
     7    2   34 1   
     8    3    4 1   
     9    3   35 1   
    10    3   36 1   
    11    4    5 ar  
    12    4    6 ar  
    13    5   10 ar  
    14    5   37 1   
    15    6    7 ar  
    16    6   38 1   
    17    7    8 1   
    18    7    9 ar  
    19    9   10 ar  
    20    9   39 1   
    21   10   11 1   
    22   11   12 3   
    23   12   13 1   
    24   13   14 ar  
    25   13   15 ar  
    26   14   18 ar  
    27   14   40 1   
    28   15   16 ar  
    29   15   41 1   
    30   16   17 ar  
    31   16   42 1   
    32   17   18 ar  
    33   17   43 1   
    34   18   19 1   
    35   19   20 3   
    36   20   21 1   
    37   21   22 ar  
    38   21   23 ar  
    39   22   27 ar  
    40   22   44 1   
    41   23   24 ar  
    42   23   45 1   
    43   24   25 1   
    44   24   26 ar  
    45   26   27 ar  
    46   26   46 1   
    47   27   28 1   
    48   28   29 1   
    49   28   47 1   
    50   28   48 1   
    51   29   30 1   
    52   29   49 1   
    53   29   50 1   
    54   30   51 1   
    55   30   52 1   
    56   30   54 1   
@<TRIPOS>SUBSTRUCTURE
     1 0YV         1 TEMP              0 ****  ****    0 ROOT
