@<TRIPOS>MOLECULE
0YV
   52    42     1     0     0
SMALL
bcc


@<TRIPOS>ATOM
      1 NAA        -5.0510   -6.7050    2.3410 n3        1 0YV     -0.338000
      2 CAS        -4.0160   -6.1460    1.5360 c3        1 0YV     -0.082000
      3 CAU        -2.7180   -6.1430    2.3130 c3        1 0YV     -0.169000
      4 CBC        -1.5530   -6.1840    1.3500 c1        1 0YV     -0.068000
      5 CAQ        -0.7820   -5.0490    1.1480 c1        1 0YV     -0.094000
      6 CAN        -1.2090   -7.3740    0.7300 c1        1 0YV     -0.096000
      7 CAW        -0.0950   -7.4310   -0.0930 c1        1 0YV     -0.166000
      8 BRC         0.3660   -9.0670   -0.9670 br        1 0YV      0.056500
      9 CAL         0.6750   -6.2960   -0.2960 c2        1 0YV     -0.085000
     10 CBA         0.3310   -5.1050    0.3250 c1        1 0YV      0.034000
     11 CAG         1.2110   -3.8830    0.1570 c1        1 0YV     -0.103000
     12 CAE         1.9030   -2.9220    0.0250 c1        1 0YV     -0.103000
     13 CAY         2.7830   -1.7000   -0.1430 c1        1 0YV     -0.071500
     14 CAP         2.2070   -0.4550   -0.3470 c1        1 0YV     -0.082000
     15 CAJ         4.1620   -1.8380   -0.1710 c1        1 0YV     -0.095500
     16 CAI         4.9650   -0.7330   -0.4030 c1        1 0YV     -0.115500
     17 CAK         4.3900    0.5120   -0.6060 c1        1 0YV     -0.115500
     18 CAZ         3.0110    0.6510   -0.5780 c1        1 0YV      0.024000
     19 CAF         2.3800    1.9890   -0.8980 c1        1 0YV     -0.098000
     20 CAH         1.8840    3.0430   -1.1490 c1        1 0YV     -0.108000
     21 CBB         1.2530    4.3810   -1.4690 c1        1 0YV      0.033000
     22 CAR         0.4000    4.9790   -0.5560 c2        1 0YV     -0.091000
     23 CAM         1.4660    4.9680   -2.7070 c1        1 0YV     -0.084000
     24 CAX         0.8260    6.1530   -3.0310 c1        1 0YV     -0.071500
     25 BRD         1.0650    6.9260   -4.7630 br        1 0YV      0.056500
     26 CAO        -0.0280    6.7520   -2.1180 c1        1 0YV     -0.095500
     27 CBD        -0.2410    6.1650   -0.8800 c1        1 0YV     -0.073000
     28 CAV        -1.2340    6.7760    0.0850 c3        1 0YV     -0.128000
     29 CAT        -0.8520    8.2140    0.3590 c3        1 0YV     -0.075000
     30 NAB        -2.0090    8.9470    0.7570 n3        1 0YV     -0.350000
     31 H1         -5.7800   -6.1510    2.3280 hn        1 0YV      0.142500
     32 H2         -4.7520   -6.7960    3.2020 hn        1 0YV      0.142500
     33 H4         -3.9080   -6.6830    0.7230 h1        1 0YV      0.097000
     34 H5         -4.2520   -5.2280    1.2910 h1        1 0YV      0.097000
     35 H6         -2.6650   -5.3310    2.8560 hc        1 0YV      0.089500
     36 H7         -2.6860   -6.9280    2.8970 hc        1 0YV      0.089500
     37 H8         -1.0250   -4.2100    1.5840 ha        1 0YV      0.144000
     38 H9         -1.7530   -8.1730    0.8710 ha        1 0YV      0.149000
     39 H10         1.4600   -6.3360   -0.8750 ha        1 0YV      0.154000
     40 H11         1.2360   -0.3570   -0.3270 ha        1 0YV      0.147000
     41 H12         4.5670   -2.7150   -0.0280 ha        1 0YV      0.145500
     42 H13         5.9360   -0.8300   -0.4220 ha        1 0YV      0.141500
     43 H14         4.9560    1.2910   -0.7690 ha        1 0YV      0.141500
     44 H15         0.2500    4.5660    0.3150 ha        1 0YV      0.147000
     45 H16         2.0630    4.5430   -3.3530 ha        1 0YV      0.154000
     46 H17        -0.4790    7.5870   -2.3460 ha        1 0YV      0.145500
     47 H18        -2.1300    6.7460   -0.3060 hc        1 0YV      0.098000
     48 H19        -1.2270    6.2720    0.9230 hc        1 0YV      0.098000
     49 H20        -0.1850    8.2440    1.0760 h1        1 0YV      0.069500
     50 H21        -0.4760    8.6130   -0.4530 h1        1 0YV      0.069500
     51 H22        -2.7430    8.6220    0.3140 hn        1 0YV      0.146000
     52 H23        -1.8960    9.8320    0.5510 hn        1 0YV      0.146000
@<TRIPOS>BOND
     1    1    2 1   
     2    1   31 1   
     3    1   32 1   
     4    2    3 1   
     5    2   33 1   
     6    2   34 1   
     7    3    4 1   
     8    3   35 1   
     9    3   36 1   
    10    4    5 1   
    11    5   37 1   
    12    6    7 1   
    13    6   38 1   
    14    7    9 1   
    15    9   10 1   
    16    9   39 1   
    17   11   12 1   
    18   13   15 1   
    19   14   18 1   
    20   14   40 1   
    21   15   41 1   
    22   16   17 1   
    23   16   42 1   
    24   17   43 1   
    25   18   19 1   
    26   19   20 1   
    27   21   22 1   
    28   21   23 1   
    29   22   27 1   
    30   22   44 1   
    31   23   45 1   
    32   24   26 1   
    33   26   46 1   
    34   27   28 1   
    35   28   29 1   
    36   28   47 1   
    37   28   48 1   
    38   29   30 1   
    39   29   49 1   
    40   29   50 1   
    41   30   51 1   
    42   30   52 1   
@<TRIPOS>SUBSTRUCTURE
     1 0YV         1 TEMP              0 ****  ****    0 ROOT
