@<TRIPOS>MOLECULE
0YV
   54    56     1     0     0
SMALL
bcc


@<TRIPOS>ATOM
      1 NAA         4.3240   -4.6820    0.0250 nz        1 0YV     -0.839600
      2 CAS         3.9270   -3.2960    0.4150 c3        1 0YV      0.096800
      3 CAU         3.8330   -2.3490   -0.7810 c3        1 0YV     -0.049100
      4 CBC         3.3410   -1.0230   -0.3150 ca        1 0YV     -0.126300
      5 CAQ         4.2060    0.0730   -0.2710 ca        1 0YV     -0.086000
      6 CAN         1.9970   -0.8730    0.0430 ca        1 0YV     -0.099000
      7 CAW         1.5180    0.3710    0.4590 ca        1 0YV     -0.022900
      8 BrC        -0.2770    0.5610    0.9450 br        1 0YV     -0.035100
      9 CAL         2.3770    1.4720    0.5060 ca        1 0YV     -0.062000
     10 CBA         3.7250    1.3280    0.1370 ca        1 0YV      0.055000
     11 CAG         4.5820    2.4410    0.1720 cg        1 0YV     -0.138000
     12 CAE         5.2990    3.4040    0.1990 ch        1 0YV     -0.049000
     13 CAY         6.1380    4.5330    0.2290 ca        1 0YV      0.003000
     14 CAP         5.6020    5.8000    0.5060 ca        1 0YV     -0.068000
     15 CAJ         7.5150    4.3970   -0.0200 ca        1 0YV     -0.081000
     16 CAI         8.3410    5.5180    0.0110 ca        1 0YV     -0.131000
     17 CAK         7.8150    6.7770    0.2860 ca        1 0YV     -0.081000
     18 CAZ         6.4400    6.9250    0.5350 ca        1 0YV      0.003000
     19 CAF         5.9030    8.1950    0.8150 cg        1 0YV     -0.049000
     20 CAH         5.4460    9.2790    1.0540 ch        1 0YV     -0.138000
     21 CBB         4.8920   10.5370    1.3430 ca        1 0YV      0.055000
     22 CAR         5.7210   11.6580    1.5140 ca        1 0YV     -0.086000
     23 CAM         3.4990   10.6760    1.4700 ca        1 0YV     -0.062000
     24 CAX         2.9450   11.9220    1.7740 ca        1 0YV     -0.022900
     25 BrD         1.0930   12.1080    1.9470 br        1 0YV     -0.035100
     26 CAO         3.7740   13.0320    1.9520 ca        1 0YV     -0.099000
     27 CBD         5.1600   12.9010    1.8160 ca        1 0YV     -0.126300
     28 CAV         6.0350   14.0860    2.0350 c3        1 0YV     -0.049100
     29 CAT         5.8930   15.0380    0.8480 c3        1 0YV      0.096800
     30 NAB         6.6650   16.3040    1.0260 nz        1 0YV     -0.839600
     31 H1          4.3710   -5.2810    0.8560 hn        1 0YV      0.462467
     32 H2          5.2410   -4.6720   -0.4330 hn        1 0YV      0.462467
     33 H4          4.6920   -2.9130    1.1510 hx        1 0YV      0.118200
     34 H5          2.9250   -3.3570    0.9340 hx        1 0YV      0.118200
     35 H6          3.1220   -2.7590   -1.5500 hc        1 0YV      0.075700
     36 H7          4.8400   -2.2400   -1.2690 hc        1 0YV      0.075700
     37 H8          5.2610   -0.0340   -0.5660 ha        1 0YV      0.146000
     38 H9          1.3140   -1.7360   -0.0170 ha        1 0YV      0.143000
     39 H10         2.0060    2.4590    0.8280 ha        1 0YV      0.171000
     40 H11         4.5240    5.9110    0.7010 ha        1 0YV      0.151000
     41 H12         7.9370    3.4050   -0.2390 ha        1 0YV      0.145000
     42 H13         9.4200    5.4060   -0.1840 ha        1 0YV      0.151000
     43 H14         8.4750    7.6580    0.3090 ha        1 0YV      0.145000
     44 H15         6.8120   11.5440    1.4210 ha        1 0YV      0.146000
     45 H16         2.8530    9.7930    1.3330 ha        1 0YV      0.171000
     46 H17         3.3390   14.0100    2.2150 ha        1 0YV      0.143000
     47 H18         5.7310   14.6010    2.9880 hc        1 0YV      0.075700
     48 H19         7.1060   13.7630    2.1470 hc        1 0YV      0.075700
     49 H20         6.2630   14.5390   -0.0940 hx        1 0YV      0.118200
     50 H21         4.8060   15.3140    0.7070 hx        1 0YV      0.118200
     51 H22         6.5390   16.9110    0.2100 hn        1 0YV      0.462467
     52 H23         6.3420   16.8000    1.8640 hn        1 0YV      0.462467
     53 HAA3        3.6390   -5.0740   -0.6300 hn        1 0YV      0.462467
     54 HAB3        7.6630   16.0960    1.1370 hn        1 0YV      0.462467
@<TRIPOS>BOND
     1    1    2 1   
     2    1   31 1   
     3    1   32 1   
     4    1   53 1   
     5    2    3 1   
     6    2   33 1   
     7    2   34 1   
     8    3    4 1   
     9    3   35 1   
    10    3   36 1   
    11    4    5 ar  
    12    4    6 ar  
    13    5   10 ar  
    14    5   37 1   
    15    6    7 ar  
    16    6   38 1   
    17    7    8 1   
    18    7    9 ar  
    19    9   10 ar  
    20    9   39 1   
    21   10   11 1   
    22   11   12 3   
    23   12   13 1   
    24   13   14 ar  
    25   13   15 ar  
    26   14   18 ar  
    27   14   40 1   
    28   15   16 ar  
    29   15   41 1   
    30   16   17 ar  
    31   16   42 1   
    32   17   18 ar  
    33   17   43 1   
    34   18   19 1   
    35   19   20 3   
    36   20   21 1   
    37   21   22 ar  
    38   21   23 ar  
    39   22   27 ar  
    40   22   44 1   
    41   23   24 ar  
    42   23   45 1   
    43   24   25 1   
    44   24   26 ar  
    45   26   27 ar  
    46   26   46 1   
    47   27   28 1   
    48   28   29 1   
    49   28   47 1   
    50   28   48 1   
    51   29   30 1   
    52   29   49 1   
    53   29   50 1   
    54   30   51 1   
    55   30   52 1   
    56   30   54 1   
@<TRIPOS>SUBSTRUCTURE
     1 0YV         1 TEMP              0 ****  ****    0 ROOT
