@<TRIPOS>MOLECULE
0YW
   61    62     1     0     0
SMALL
bcc


@<TRIPOS>ATOM
      1 OAB        -0.3110    0.4310   -0.4050 o         1 0YW     -0.821800
      2 CAY         0.9420    0.3450   -0.2180 c         1 0YW      0.919200
      3 OAE         1.4890    0.5240    0.9000 o         1 0YW     -0.821800
      4 CBE         1.8530    0.0290   -1.4040 ca        1 0YW     -0.191600
      5 CAM         3.2000    0.3560   -1.2620 ca        1 0YW     -0.019000
      6 CBC         4.1030    0.1370   -2.3150 ca        1 0YW     -0.232200
      7 NBF         5.5260    0.4920   -2.1610 no        1 0YW      0.318200
      8 OAF         6.2910    0.2800   -3.0720 o         1 0YW     -0.243000
      9 OAD         5.9160    0.9880   -1.1350 o         1 0YW     -0.243000
     10 CAJ         3.6570   -0.4170   -3.5280 ca        1 0YW     -0.065000
     11 CAK         2.3240   -0.7600   -3.6740 ca        1 0YW     -0.192000
     12 CBD         1.4000   -0.5550   -2.6190 ca        1 0YW      0.126600
     13 NAW         0.0640   -0.9600   -2.7300 ns        1 0YW     -0.445100
     14 CAZ        -0.6910   -0.9460   -3.8940 c         1 0YW      0.671700
     15 OAC        -0.1960   -0.9640   -5.0400 o         1 0YW     -0.614100
     16 CBB        -2.1780   -0.9750   -3.7070 ca        1 0YW     -0.115600
     17 CAL        -2.9400   -1.6670   -4.6490 ca        1 0YW     -0.108000
     18 CAI        -2.7960   -0.3020   -2.6440 ca        1 0YW     -0.121000
     19 CAG        -4.1840   -0.3360   -2.5280 ca        1 0YW     -0.112000
     20 CAH        -4.9670   -1.0290   -3.4510 ca        1 0YW     -0.190000
     21 CBA        -4.3400   -1.6940   -4.5100 ca        1 0YW      0.098100
     22 OAX        -5.0000   -2.4150   -5.4920 os        1 0YW     -0.333900
     23 CAV        -6.4260   -2.4510   -5.3780 c3        1 0YW      0.131400
     24 CAU        -6.9140   -3.2830   -6.5520 c3        1 0YW     -0.086400
     25 CAT        -8.4230   -3.3860   -6.5320 c3        1 0YW     -0.077400
     26 CAS        -8.9280   -4.2120   -7.6960 c3        1 0YW     -0.078400
     27 CAR       -10.4380   -4.3160   -7.6800 c3        1 0YW     -0.079400
     28 CAQ       -10.9430   -5.1410   -8.8440 c3        1 0YW     -0.079400
     29 CAP       -12.4530   -5.2450   -8.8290 c3        1 0YW     -0.079400
     30 CAO       -12.9590   -6.0710   -9.9930 c3        1 0YW     -0.079400
     31 CAN       -14.4690   -6.1750   -9.9800 c3        1 0YW     -0.080400
     32 CAA       -14.9770   -6.9960  -11.1370 c3        1 0YW     -0.092100
     33 H2          3.5340    0.7900   -0.2990 ha        1 0YW      0.192000
     34 H3          4.3630   -0.5810   -4.3580 ha        1 0YW      0.149000
     35 H4          1.9800   -1.1880   -4.6300 ha        1 0YW      0.165000
     36 H5         -0.4550   -0.8740   -1.8620 hn        1 0YW      0.371500
     37 H6         -2.4570   -2.1790   -5.4950 ha        1 0YW      0.163000
     38 H7         -2.2010    0.2560   -1.8930 ha        1 0YW      0.197000
     39 H8         -4.6700    0.1910   -1.6920 ha        1 0YW      0.137000
     40 H9         -6.0590   -1.0440   -3.3360 ha        1 0YW      0.128000
     41 H10        -6.8360   -1.4080   -5.4260 h1        1 0YW      0.035700
     42 H11        -6.7150   -2.9230   -4.4030 h1        1 0YW      0.035700
     43 H12        -6.5690   -2.8120   -7.5100 hc        1 0YW      0.056700
     44 H13        -6.4540   -4.3040   -6.5010 hc        1 0YW      0.056700
     45 H14        -8.7570   -3.8520   -5.5670 hc        1 0YW      0.039700
     46 H15        -8.8720   -2.3580   -6.5770 hc        1 0YW      0.039700
     47 H16        -8.5920   -3.7460   -8.6600 hc        1 0YW      0.041700
     48 H17        -8.4790   -5.2390   -7.6500 hc        1 0YW      0.041700
     49 H18       -10.8860   -3.2890   -7.7240 hc        1 0YW      0.038700
     50 H19       -10.7730   -4.7810   -6.7150 hc        1 0YW      0.038700
     51 H20       -10.6070   -4.6770   -9.8080 hc        1 0YW      0.039700
     52 H21       -10.4950   -6.1690   -8.7990 hc        1 0YW      0.039700
     53 H22       -12.9010   -4.2180   -8.8740 hc        1 0YW      0.038700
     54 H23       -12.7890   -5.7100   -7.8650 hc        1 0YW      0.038700
     55 H24       -12.5110   -7.0980   -9.9480 hc        1 0YW      0.039700
     56 H25       -12.6230   -5.6060  -10.9570 hc        1 0YW      0.039700
     57 H26       -14.9150   -5.1460  -10.0230 hc        1 0YW      0.037700
     58 H27       -14.8030   -6.6380   -9.0140 hc        1 0YW      0.037700
     59 H28       -14.6740   -6.5360  -12.1090 hc        1 0YW      0.031033
     60 H29       -16.0910   -7.0600  -11.1090 hc        1 0YW      0.031033
     61 H30       -14.5630   -8.0320  -11.0970 hc        1 0YW      0.031033
@<TRIPOS>BOND
     1    1    2 1   
     2    2    3 1   
     3    2    4 1   
     4    4    5 ar  
     5    4   12 ar  
     6    5    6 ar  
     7    5   33 1   
     8    6    7 1   
     9    6   10 ar  
    10    7    8 1   
    11    7    9 1   
    12   10   11 ar  
    13   10   34 1   
    14   11   12 ar  
    15   11   35 1   
    16   12   13 1   
    17   13   14 1   
    18   13   36 1   
    19   14   15 2   
    20   14   16 1   
    21   16   17 ar  
    22   16   18 ar  
    23   17   21 ar  
    24   17   37 1   
    25   18   19 ar  
    26   18   38 1   
    27   19   20 ar  
    28   19   39 1   
    29   20   21 ar  
    30   20   40 1   
    31   21   22 1   
    32   22   23 1   
    33   23   24 1   
    34   23   41 1   
    35   23   42 1   
    36   24   25 1   
    37   24   43 1   
    38   24   44 1   
    39   25   26 1   
    40   25   45 1   
    41   25   46 1   
    42   26   27 1   
    43   26   47 1   
    44   26   48 1   
    45   27   28 1   
    46   27   49 1   
    47   27   50 1   
    48   28   29 1   
    49   28   51 1   
    50   28   52 1   
    51   29   30 1   
    52   29   53 1   
    53   29   54 1   
    54   30   31 1   
    55   30   55 1   
    56   30   56 1   
    57   31   32 1   
    58   31   57 1   
    59   31   58 1   
    60   32   59 1   
    61   32   60 1   
    62   32   61 1   
@<TRIPOS>SUBSTRUCTURE
     1 0YW         1 TEMP              0 ****  ****    0 ROOT
