@<TRIPOS>MOLECULE
0YW
   61    62     1     0     0
SMALL
bcc


@<TRIPOS>ATOM
      1 OAB        -0.3100    0.4100   -0.3990 o         1 0YW     -0.821800
      2 CAY         0.9430    0.3200   -0.2120 c         1 0YW      0.919200
      3 OAE         1.4910    0.4880    0.9080 o         1 0YW     -0.821800
      4 CBE         1.8550    0.0120   -1.4000 ca        1 0YW     -0.191600
      5 CAM         3.2020    0.3350   -1.2550 ca        1 0YW     -0.019000
      6 CBC         4.1050    0.1220   -2.3100 ca        1 0YW     -0.232200
      7 NBF         5.5290    0.4720   -2.1520 no        1 0YW      0.318200
      8 OAF         6.2940    0.2660   -3.0640 o         1 0YW     -0.243000
      9 OAD         5.9190    0.9590   -1.1220 o         1 0YW     -0.243000
     10 CAJ         3.6580   -0.4210   -3.5270 ca        1 0YW     -0.065000
     11 CAK         2.3240   -0.7600   -3.6770 ca        1 0YW     -0.192000
     12 CBD         1.4000   -0.5610   -2.6200 ca        1 0YW      0.126600
     13 NAW         0.0630   -0.9620   -2.7360 n         1 0YW     -0.445100
     14 CAZ        -0.6910   -0.9370   -3.9000 c         1 0YW      0.671700
     15 OAC        -0.1960   -0.9460   -5.0460 o         1 0YW     -0.614100
     16 CBB        -2.1780   -0.9650   -3.7140 ca        1 0YW     -0.115600
     17 CAL        -2.9420   -1.6480   -4.6610 ca        1 0YW     -0.108000
     18 CAI        -2.7960   -0.2990   -2.6450 ca        1 0YW     -0.121000
     19 CAG        -4.1840   -0.3310   -2.5300 ca        1 0YW     -0.112000
     20 CAH        -4.9670   -1.0160   -3.4590 ca        1 0YW     -0.190000
     21 CBA        -4.3410   -1.6730   -4.5230 ca        1 0YW      0.098100
     22 OAX        -5.0030   -2.3840   -5.5110 os        1 0YW     -0.333900
     23 CAV        -6.4270   -2.4310   -5.3900 c3        1 0YW      0.131400
     24 CAU        -6.9160   -3.2590   -6.5670 c3        1 0YW     -0.086400
     25 CAT        -8.4240   -3.3730   -6.5380 c3        1 0YW     -0.077400
     26 CAS        -8.9290   -4.1960   -7.7040 c3        1 0YW     -0.078400
     27 CAR       -10.4380   -4.3130   -7.6790 c3        1 0YW     -0.079400
     28 CAQ       -10.9440   -5.1350   -8.8450 c3        1 0YW     -0.079400
     29 CAP       -12.4530   -5.2530   -8.8200 c3        1 0YW     -0.079400
     30 CAO       -12.9590   -6.0750   -9.9860 c3        1 0YW     -0.079400
     31 CAN       -14.4680   -6.1940   -9.9630 c3        1 0YW     -0.080400
     32 CAA       -14.9760   -7.0120  -11.1220 c3        1 0YW     -0.092100
     33 H2          3.5360    0.7590   -0.2880 ha        1 0YW      0.192000
     34 H3          4.3640   -0.5800   -4.3580 ha        1 0YW      0.149000
     35 H4          1.9800   -1.1790   -4.6370 ha        1 0YW      0.165000
     36 H5         -0.4560   -0.8820   -1.8670 hn        1 0YW      0.371500
     37 H6         -2.4580   -2.1540   -5.5110 ha        1 0YW      0.163000
     38 H7         -2.2000    0.2520   -1.8900 ha        1 0YW      0.197000
     39 H8         -4.6680    0.1900   -1.6900 ha        1 0YW      0.137000
     40 H9         -6.0590   -1.0300   -3.3440 ha        1 0YW      0.128000
     41 H10        -6.8440   -1.3900   -5.4300 h1        1 0YW      0.035200
     42 H11        -6.7080   -2.9100   -4.4160 h1        1 0YW      0.035200
     43 H12        -6.5800   -2.7790   -7.5230 hc        1 0YW      0.056700
     44 H13        -6.4480   -4.2770   -6.5240 hc        1 0YW      0.056700
     45 H14        -8.7480   -3.8480   -5.5740 hc        1 0YW      0.039700
     46 H15        -8.8810   -2.3490   -6.5740 hc        1 0YW      0.039700
     47 H16        -8.6040   -3.7210   -8.6670 hc        1 0YW      0.041700
     48 H17        -8.4710   -5.2190   -7.6680 hc        1 0YW      0.041700
     49 H18       -10.8960   -3.2890   -7.7140 hc        1 0YW      0.038700
     50 H19       -10.7630   -4.7870   -6.7150 hc        1 0YW      0.038700
     51 H20       -10.6190   -4.6610   -9.8080 hc        1 0YW      0.039700
     52 H21       -10.4860   -6.1590   -8.8100 hc        1 0YW      0.039700
     53 H22       -12.9110   -4.2290   -8.8550 hc        1 0YW      0.038700
     54 H23       -12.7780   -5.7270   -7.8570 hc        1 0YW      0.038700
     55 H24       -12.5010   -7.0990   -9.9510 hc        1 0YW      0.039700
     56 H25       -12.6340   -5.6010  -10.9500 hc        1 0YW      0.039700
     57 H26       -14.9240   -5.1690   -9.9960 hc        1 0YW      0.037700
     58 H27       -14.7910   -6.6670   -8.9980 hc        1 0YW      0.037700
     59 H28       -14.6860   -6.5430  -12.0930 hc        1 0YW      0.031033
     60 H29       -16.0900   -7.0870  -11.0860 hc        1 0YW      0.031033
     61 H30       -14.5520   -8.0450  -11.0920 hc        1 0YW      0.031033
@<TRIPOS>BOND
     1    1    2 1   
     2    2    3 1   
     3    2    4 1   
     4    4    5 ar  
     5    4   12 ar  
     6    5    6 ar  
     7    5   33 1   
     8    6    7 1   
     9    6   10 ar  
    10    7    8 1   
    11    7    9 1   
    12   10   11 ar  
    13   10   34 1   
    14   11   12 ar  
    15   11   35 1   
    16   12   13 1   
    17   13   14 1   
    18   13   36 1   
    19   14   15 2   
    20   14   16 1   
    21   16   17 ar  
    22   16   18 ar  
    23   17   21 ar  
    24   17   37 1   
    25   18   19 ar  
    26   18   38 1   
    27   19   20 ar  
    28   19   39 1   
    29   20   21 ar  
    30   20   40 1   
    31   21   22 1   
    32   22   23 1   
    33   23   24 1   
    34   23   41 1   
    35   23   42 1   
    36   24   25 1   
    37   24   43 1   
    38   24   44 1   
    39   25   26 1   
    40   25   45 1   
    41   25   46 1   
    42   26   27 1   
    43   26   47 1   
    44   26   48 1   
    45   27   28 1   
    46   27   49 1   
    47   27   50 1   
    48   28   29 1   
    49   28   51 1   
    50   28   52 1   
    51   29   30 1   
    52   29   53 1   
    53   29   54 1   
    54   30   31 1   
    55   30   55 1   
    56   30   56 1   
    57   31   32 1   
    58   31   57 1   
    59   31   58 1   
    60   32   59 1   
    61   32   60 1   
    62   32   61 1   
@<TRIPOS>SUBSTRUCTURE
     1 0YW         1 TEMP              0 ****  ****    0 ROOT
