@<TRIPOS>MOLECULE
0YW
   61    62     1     0     0
SMALL
bcc


@<TRIPOS>ATOM
      1 OAB         4.7040    2.6130   -0.1690 o         1 0YW     -0.821800
      2 CAY         5.8320    2.1360    0.1650 c         1 0YW      0.919200
      3 OAE         6.8110    2.8470    0.5080 o         1 0YW     -0.821800
      4 CBE         6.0400    0.6210    0.1370 ca        1 0YW     -0.191600
      5 CAM         7.3580    0.1720    0.0920 ca        1 0YW     -0.019000
      6 CBC         7.6420   -1.2020    0.0240 ca        1 0YW     -0.232200
      7 NBF         9.0400   -1.6710   -0.0300 no        1 0YW      0.318200
      8 OAF         9.2650   -2.8570   -0.0700 o         1 0YW     -0.243000
      9 OAD         9.9430   -0.8740   -0.0350 o         1 0YW     -0.243000
     10 CAJ         6.5970   -2.1420    0.0030 ca        1 0YW     -0.065000
     11 CAK         5.2850   -1.7070    0.0640 ca        1 0YW     -0.192000
     12 CBD         4.9790   -0.3250    0.1410 ca        1 0YW      0.126600
     13 NAW         3.6580    0.1230    0.2710 n         1 0YW     -0.445100
     14 CAZ         2.5420   -0.4740   -0.2960 c         1 0YW      0.671700
     15 OAC         2.4990   -1.6730   -0.6430 o         1 0YW     -0.614100
     16 CBB         1.3280    0.3970   -0.4180 ca        1 0YW     -0.115600
     17 CAL         0.0770   -0.2010   -0.2560 ca        1 0YW     -0.108000
     18 CAI         1.4320    1.7620   -0.7190 ca        1 0YW     -0.121000
     19 CAG         0.2740    2.5250   -0.8500 ca        1 0YW     -0.112000
     20 CAH        -0.9870    1.9510   -0.6830 ca        1 0YW     -0.190000
     21 CBA        -1.0800    0.5870   -0.3860 ca        1 0YW      0.098100
     22 OAX        -2.2680   -0.1010   -0.2000 os        1 0YW     -0.333900
     23 CAV        -3.4600    0.6790   -0.3220 c3        1 0YW      0.131400
     24 CAU        -4.6110   -0.2820   -0.0750 c3        1 0YW     -0.086400
     25 CAT        -5.9340    0.4450   -0.1820 c3        1 0YW     -0.077400
     26 CAS        -7.0930   -0.4970    0.0610 c3        1 0YW     -0.078400
     27 CAR        -8.4190    0.2250   -0.0450 c3        1 0YW     -0.079400
     28 CAQ        -9.5780   -0.7170    0.1990 c3        1 0YW     -0.079400
     29 CAP       -10.9050    0.0050    0.0920 c3        1 0YW     -0.079400
     30 CAO       -12.0640   -0.9370    0.3360 c3        1 0YW     -0.079400
     31 CAN       -13.3910   -0.2160    0.2300 c3        1 0YW     -0.080400
     32 CAA       -14.5490   -1.1500    0.4720 c3        1 0YW     -0.092100
     33 H2          8.1690    0.9270    0.1120 ha        1 0YW      0.192000
     34 H3          6.8200   -3.2200   -0.0580 ha        1 0YW      0.149000
     35 H4          4.4710   -2.4500    0.0390 ha        1 0YW      0.165000
     36 H5          3.5890    1.1210    0.4460 hn        1 0YW      0.371500
     37 H6         -0.0050   -1.2770   -0.0400 ha        1 0YW      0.163000
     38 H7          2.4200    2.2470   -0.8560 ha        1 0YW      0.197000
     39 H8          0.3550    3.5970   -1.0840 ha        1 0YW      0.137000
     40 H9         -1.8850    2.5740   -0.7860 ha        1 0YW      0.128000
     41 H10        -3.4530    1.5030    0.4390 h1        1 0YW      0.035200
     42 H11        -3.5190    1.1210   -1.3510 h1        1 0YW      0.035200
     43 H12        -4.5640   -1.1170   -0.8210 hc        1 0YW      0.056700
     44 H13        -4.5000   -0.7400    0.9430 hc        1 0YW      0.056700
     45 H14        -5.9660    1.2820    0.5640 hc        1 0YW      0.039700
     46 H15        -6.0300    0.9050   -1.2010 hc        1 0YW      0.039700
     47 H16        -7.0590   -1.3350   -0.6840 hc        1 0YW      0.041700
     48 H17        -6.9950   -0.9580    1.0800 hc        1 0YW      0.041700
     49 H18        -8.4520    1.0630    0.7010 hc        1 0YW      0.038700
     50 H19        -8.5160    0.6850   -1.0630 hc        1 0YW      0.038700
     51 H20        -9.5450   -1.5550   -0.5470 hc        1 0YW      0.039700
     52 H21        -9.4810   -1.1770    1.2170 hc        1 0YW      0.039700
     53 H22       -10.9370    0.8430    0.8380 hc        1 0YW      0.038700
     54 H23       -11.0020    0.4650   -0.9260 hc        1 0YW      0.038700
     55 H24       -12.0310   -1.7750   -0.4090 hc        1 0YW      0.039700
     56 H25       -11.9670   -1.3970    1.3550 hc        1 0YW      0.039700
     57 H26       -13.4210    0.6220    0.9750 hc        1 0YW      0.037700
     58 H27       -13.4860    0.2440   -0.7890 hc        1 0YW      0.037700
     59 H28       -14.5500   -1.9790   -0.2760 hc        1 0YW      0.031033
     60 H29       -14.4860   -1.6010    1.4920 hc        1 0YW      0.031033
     61 H30       -15.5170   -0.5990    0.3890 hc        1 0YW      0.031033
@<TRIPOS>BOND
     1    1    2 1   
     2    2    3 1   
     3    2    4 1   
     4    4    5 ar  
     5    4   12 ar  
     6    5    6 ar  
     7    5   33 1   
     8    6    7 1   
     9    6   10 ar  
    10    7    8 1   
    11    7    9 1   
    12   10   11 ar  
    13   10   34 1   
    14   11   12 ar  
    15   11   35 1   
    16   12   13 1   
    17   13   14 1   
    18   13   36 1   
    19   14   15 2   
    20   14   16 1   
    21   16   17 ar  
    22   16   18 ar  
    23   17   21 ar  
    24   17   37 1   
    25   18   19 ar  
    26   18   38 1   
    27   19   20 ar  
    28   19   39 1   
    29   20   21 ar  
    30   20   40 1   
    31   21   22 1   
    32   22   23 1   
    33   23   24 1   
    34   23   41 1   
    35   23   42 1   
    36   24   25 1   
    37   24   43 1   
    38   24   44 1   
    39   25   26 1   
    40   25   45 1   
    41   25   46 1   
    42   26   27 1   
    43   26   47 1   
    44   26   48 1   
    45   27   28 1   
    46   27   49 1   
    47   27   50 1   
    48   28   29 1   
    49   28   51 1   
    50   28   52 1   
    51   29   30 1   
    52   29   53 1   
    53   29   54 1   
    54   30   31 1   
    55   30   55 1   
    56   30   56 1   
    57   31   32 1   
    58   31   57 1   
    59   31   58 1   
    60   32   59 1   
    61   32   60 1   
    62   32   61 1   
@<TRIPOS>SUBSTRUCTURE
     1 0YW         1 TEMP              0 ****  ****    0 ROOT
