@<TRIPOS>MOLECULE
0YW
   61    55     1     0     0
SMALL
bcc


@<TRIPOS>ATOM
      1 OAB         8.0390    1.1460    5.8000 o         1 0YW     -0.556500
      2 CAY         7.2700    1.9900    5.2860 c1        1 0YW      0.368000
      3 OAE         6.3590    2.4610    5.9420 o         1 0YW     -0.556500
      4 CBE         7.5590    2.5280    3.9220 c1        1 0YW     -0.170000
      5 CAM         8.5830    3.4440    3.7440 c1        1 0YW     -0.019000
      6 CBC         8.7920    4.0100    2.5110 c1        1 0YW     -0.186000
      7 NBF         9.9010    4.8930    2.3080 n1        1 0YW      0.573000
      8 OAF        10.8040    5.1260    3.3450 os        1 0YW     -0.378000
      9 OAD        10.0200    5.4950    1.2450 o         1 0YW     -0.408000
     10 CAJ         7.9770    3.6640    1.4410 c1        1 0YW     -0.066000
     11 CAK         6.9500    2.7450    1.6180 c1        1 0YW     -0.190000
     12 CBD         6.7420    2.1810    2.8520 c2        1 0YW      0.132000
     13 NAW         5.7340    1.2190    3.0230 n         1 0YW     -0.298000
     14 CAZ         4.4090    1.4530    2.4820 c2        1 0YW      0.346000
     15 OAC         4.1640    2.5060    1.8660 o         1 0YW     -0.377000
     16 CBB         3.3290    0.3610    2.6000 c2        1 0YW     -0.115000
     17 CAL         2.5800    0.0120    1.4980 c2        1 0YW     -0.089000
     18 CAI         3.0590   -0.2320    3.8510 c1        1 0YW     -0.096000
     19 CAG         2.0420   -1.1650    3.9740 c1        1 0YW     -0.137000
     20 CAH         1.2910   -1.5150    2.8680 c1        1 0YW     -0.137000
     21 CBA         1.5580   -0.9250    1.6200 c1        1 0YW      0.020000
     22 OAX         0.8180   -1.3370    0.4540 os        1 0YW     -0.232000
     23 CAV        -0.5450   -0.8860    0.4430 c3        1 0YW     -0.018000
     24 CAU        -1.1830   -1.2080   -0.9290 c3        1 0YW     -0.165000
     25 CAT        -2.7240   -1.1020   -0.8190 c3        1 0YW     -0.157000
     26 CAS        -3.3530   -1.5410   -2.1080 c3        1 0YW     -0.157000
     27 CAR        -4.8650   -1.3640   -2.0150 c3        1 0YW     -0.158000
     28 CAQ        -5.4960   -1.8400   -3.2670 c3        1 0YW     -0.157000
     29 CAP        -7.0100   -1.5860   -3.2080 c3        1 0YW     -0.158000
     30 CAO        -7.6580   -1.9690   -4.5860 c3        1 0YW     -0.158000
     31 CAN        -9.1610   -1.5590   -4.5790 c3        1 0YW     -0.159000
     32 CAA        -9.8620   -2.1180   -5.8410 c3        1 0YW     -0.210000
     33 H2          9.1550    3.6370    4.4420 ha        1 0YW      0.192000
     34 H3          8.1270    4.0700    0.5550 ha        1 0YW      0.150000
     35 H4          6.4490    2.4070    0.8320 ha        1 0YW      0.164000
     36 H5          5.8870    0.4910    3.5480 hn        1 0YW      0.283000
     37 H6          2.8050    0.4210    0.5620 ha        1 0YW      0.161000
     38 H7          3.5600    0.0080    4.5960 ha        1 0YW      0.200000
     39 H8          1.8560   -1.5760    4.8440 ha        1 0YW      0.135000
     40 H9          0.5610   -2.1850    2.9560 ha        1 0YW      0.135000
     41 H10        -0.5680    0.0510    0.5890 h1        1 0YW      0.073000
     42 H11        -1.0530   -1.3470    1.1610 h1        1 0YW      0.073000
     43 H12        -0.9260   -2.1490   -1.2100 hc        1 0YW      0.094000
     44 H13        -0.8640   -0.5760   -1.5890 hc        1 0YW      0.094000
     45 H14        -2.9790   -0.1560   -0.6330 hc        1 0YW      0.079500
     46 H15        -3.0440   -1.6820   -0.0800 hc        1 0YW      0.079500
     47 H16        -3.1450   -2.4670   -2.2690 hc        1 0YW      0.080000
     48 H17        -3.0020   -0.9890   -2.8520 hc        1 0YW      0.080000
     49 H18        -5.2070   -1.8800   -1.2620 hc        1 0YW      0.078500
     50 H19        -5.0760   -0.4100   -1.8840 hc        1 0YW      0.078500
     51 H20        -5.1280   -1.3710   -4.0010 hc        1 0YW      0.078500
     52 H21        -5.3310   -2.7840   -3.3730 hc        1 0YW      0.078500
     53 H22        -7.1710   -0.6570   -3.0260 hc        1 0YW      0.078500
     54 H23        -7.4000   -2.1230   -2.5080 hc        1 0YW      0.078500
     55 H24        -7.1850   -1.4890   -5.3180 hc        1 0YW      0.078500
     56 H25        -7.5810   -2.9430   -4.7280 hc        1 0YW      0.078500
     57 H26        -9.5930   -1.9230   -3.7790 hc        1 0YW      0.077500
     58 H27        -9.2300   -0.6030   -4.5730 hc        1 0YW      0.077500
     59 H28        -9.4100   -1.7560   -6.6650 hc        1 0YW      0.070333
     60 H29       -10.8200   -1.8400   -5.8370 hc        1 0YW      0.070333
     61 H30        -9.8070   -3.0680   -5.8390 hc        1 0YW      0.070333
@<TRIPOS>BOND
     1    1    2 1   
     2    2    3 1   
     3    4    5 1   
     4    4   12 1   
     5    5   33 1   
     6    6   10 1   
     7    7    9 1   
     8   10   34 1   
     9   11   12 1   
    10   11   35 1   
    11   12   13 1   
    12   13   14 1   
    13   13   36 1   
    14   14   15 1   
    15   14   16 1   
    16   16   17 1   
    17   16   18 1   
    18   17   21 1   
    19   17   37 1   
    20   18   38 1   
    21   19   20 1   
    22   19   39 1   
    23   20   40 1   
    24   21   22 1   
    25   22   23 1   
    26   23   24 1   
    27   23   41 1   
    28   23   42 1   
    29   24   25 1   
    30   24   43 1   
    31   24   44 1   
    32   25   26 1   
    33   25   45 1   
    34   25   46 1   
    35   26   27 1   
    36   26   47 1   
    37   26   48 1   
    38   27   28 1   
    39   27   49 1   
    40   27   50 1   
    41   28   29 1   
    42   28   51 1   
    43   28   52 1   
    44   29   30 1   
    45   29   53 1   
    46   29   54 1   
    47   30   31 1   
    48   30   55 1   
    49   30   56 1   
    50   31   32 1   
    51   31   57 1   
    52   31   58 1   
    53   32   59 1   
    54   32   60 1   
    55   32   61 1   
@<TRIPOS>SUBSTRUCTURE
     1 0YW         1 TEMP              0 ****  ****    0 ROOT
