@<TRIPOS>MOLECULE
0YW
   61    62     1     0     0
SMALL
bcc


@<TRIPOS>ATOM
      1 OAB        -0.3100    0.4420   -0.4100 o         1 0YW     -0.821800
      2 CAY         0.9430    0.3570   -0.2220 c         1 0YW      0.919200
      3 OAE         1.4910    0.5410    0.8950 o         1 0YW     -0.821800
      4 CBE         1.8550    0.0320   -1.4060 ca        1 0YW     -0.191600
      5 CAM         3.2020    0.3580   -1.2650 ca        1 0YW     -0.019000
      6 CBC         4.1050    0.1320   -2.3170 ca        1 0YW     -0.232200
      7 NBF         5.5290    0.4850   -2.1640 no        1 0YW      0.318200
      8 OAF         6.2940    0.2660   -3.0740 o         1 0YW     -0.243000
      9 OAD         5.9190    0.9860   -1.1410 o         1 0YW     -0.243000
     10 CAJ         3.6590   -0.4290   -3.5270 ca        1 0YW     -0.065000
     11 CAK         2.3250   -0.7710   -3.6710 ca        1 0YW     -0.192000
     12 CBD         1.4010   -0.5580   -2.6180 ca        1 0YW      0.126600
     13 NAW         0.0640   -0.9620   -2.7270 n         1 0YW     -0.445100
     14 CAZ        -0.6900   -0.9540   -3.8910 c         1 0YW      0.671700
     15 OAC        -0.1950   -0.9790   -5.0370 o         1 0YW     -0.614100
     16 CBB        -2.1770   -0.9810   -3.7050 ca        1 0YW     -0.115600
     17 CAL        -2.9390   -1.6780   -4.6430 ca        1 0YW     -0.108000
     18 CAI        -2.7950   -0.3010   -2.6460 ca        1 0YW     -0.121000
     19 CAG        -4.1830   -0.3330   -2.5300 ca        1 0YW     -0.112000
     20 CAH        -4.9660   -1.0310   -3.4500 ca        1 0YW     -0.190000
     21 CBA        -4.3380   -1.7020   -4.5050 ca        1 0YW      0.098100
     22 OAX        -5.0000   -2.4280   -5.4820 os        1 0YW     -0.333900
     23 CAV        -6.4250   -2.4570   -5.3740 c3        1 0YW      0.131400
     24 CAU        -6.9140   -3.2920   -6.5450 c3        1 0YW     -0.086400
     25 CAT        -8.4230   -3.3870   -6.5300 c3        1 0YW     -0.077400
     26 CAS        -8.9280   -4.2160   -7.6910 c3        1 0YW     -0.078400
     27 CAR       -10.4390   -4.3120   -7.6810 c3        1 0YW     -0.079400
     28 CAQ       -10.9450   -5.1400   -8.8420 c3        1 0YW     -0.079400
     29 CAP       -12.4550   -5.2360   -8.8330 c3        1 0YW     -0.079400
     30 CAO       -12.9610   -6.0640   -9.9950 c3        1 0YW     -0.079400
     31 CAN       -14.4720   -6.1610   -9.9860 c3        1 0YW     -0.080400
     32 CAA       -14.9800   -6.9840  -11.1420 c3        1 0YW     -0.092100
     33 H2          3.5360    0.7970   -0.3050 ha        1 0YW      0.192000
     34 H3          4.3650   -0.5990   -4.3550 ha        1 0YW      0.149000
     35 H4          1.9820   -1.2040   -4.6250 ha        1 0YW      0.165000
     36 H5         -0.4550   -0.8700   -1.8600 hn        1 0YW      0.371500
     37 H6         -2.4560   -2.1940   -5.4860 ha        1 0YW      0.163000
     38 H7         -2.2000    0.2600   -1.8980 ha        1 0YW      0.197000
     39 H8         -4.6690    0.1980   -1.6980 ha        1 0YW      0.137000
     40 H9         -6.0580   -1.0450   -3.3350 ha        1 0YW      0.128000
     41 H10        -6.8300   -1.4120   -5.4280 h1        1 0YW      0.035700
     42 H11        -6.7210   -2.9230   -4.3970 h1        1 0YW      0.035700
     43 H12        -6.4590   -4.3150   -6.4870 hc        1 0YW      0.056700
     44 H13        -6.5630   -2.8280   -7.5040 hc        1 0YW      0.056700
     45 H14        -8.8670   -2.3570   -6.5810 hc        1 0YW      0.039700
     46 H15        -8.7630   -3.8460   -5.5640 hc        1 0YW      0.039700
     47 H16        -8.5870   -3.7570   -8.6570 hc        1 0YW      0.041700
     48 H17        -8.4850   -5.2450   -7.6390 hc        1 0YW      0.041700
     49 H18       -10.8820   -3.2820   -7.7320 hc        1 0YW      0.038700
     50 H19       -10.7800   -4.7710   -6.7150 hc        1 0YW      0.038700
     51 H20       -10.6030   -4.6820   -9.8080 hc        1 0YW      0.039700
     52 H21       -10.5020   -6.1700   -8.7910 hc        1 0YW      0.039700
     53 H22       -12.7960   -5.6950   -7.8670 hc        1 0YW      0.038700
     54 H23       -12.8980   -4.2070   -8.8830 hc        1 0YW      0.038700
     55 H24       -12.5180   -7.0940   -9.9440 hc        1 0YW      0.039700
     56 H25       -12.6200   -5.6050  -10.9600 hc        1 0YW      0.039700
     57 H26       -14.8110   -6.6190   -9.0200 hc        1 0YW      0.037700
     58 H27       -14.9120   -5.1300  -10.0350 hc        1 0YW      0.037700
     59 H28       -16.0950   -7.0420  -11.1170 hc        1 0YW      0.031033
     60 H29       -14.5710   -8.0220  -11.0970 hc        1 0YW      0.031033
     61 H30       -14.6720   -6.5290  -12.1150 hc        1 0YW      0.031033
@<TRIPOS>BOND
     1    1    2 1   
     2    2    3 1   
     3    2    4 1   
     4    4    5 ar  
     5    4   12 ar  
     6    5    6 ar  
     7    5   33 1   
     8    6    7 1   
     9    6   10 ar  
    10    7    8 1   
    11    7    9 1   
    12   10   11 ar  
    13   10   34 1   
    14   11   12 ar  
    15   11   35 1   
    16   12   13 1   
    17   13   14 1   
    18   13   36 1   
    19   14   15 2   
    20   14   16 1   
    21   16   17 ar  
    22   16   18 ar  
    23   17   21 ar  
    24   17   37 1   
    25   18   19 ar  
    26   18   38 1   
    27   19   20 ar  
    28   19   39 1   
    29   20   21 ar  
    30   20   40 1   
    31   21   22 1   
    32   22   23 1   
    33   23   24 1   
    34   23   41 1   
    35   23   42 1   
    36   24   25 1   
    37   24   43 1   
    38   24   44 1   
    39   25   26 1   
    40   25   45 1   
    41   25   46 1   
    42   26   27 1   
    43   26   47 1   
    44   26   48 1   
    45   27   28 1   
    46   27   49 1   
    47   27   50 1   
    48   28   29 1   
    49   28   51 1   
    50   28   52 1   
    51   29   30 1   
    52   29   53 1   
    53   29   54 1   
    54   30   31 1   
    55   30   55 1   
    56   30   56 1   
    57   31   32 1   
    58   31   57 1   
    59   31   58 1   
    60   32   59 1   
    61   32   60 1   
    62   32   61 1   
@<TRIPOS>SUBSTRUCTURE
     1 0YW         1 TEMP              0 ****  ****    0 ROOT
