@<TRIPOS>MOLECULE
0YX
   54    55     1     0     0
SMALL
bcc


@<TRIPOS>ATOM
      1 OAC         1.7580    3.9580   -0.3540 o         1 0YX     -0.896167
      2 PBB         2.8960    3.5420    0.5200 p5        1 0YX      1.217000
      3 OAD         4.1230    4.4020    0.4840 o         1 0YX     -0.896167
      4 OAB         2.5420    3.0090    1.8780 o         1 0YX     -0.896167
      5 CBA         3.5250    1.7940   -0.3610 ca        1 0YX     -0.162500
      6 CAL         2.3370    1.3270   -0.9190 ca        1 0YX     -0.078000
      7 CAW         2.2740    0.1140   -1.6130 ca        1 0YX     -0.058900
      8 BRE         0.6440   -0.5010   -2.3580 br        1 0YX     -0.227100
      9 CAI         3.4160   -0.6710   -1.7720 ca        1 0YX     -0.146000
     10 CAJ         4.6150   -0.2340   -1.2260 ca        1 0YX     -0.209000
     11 CAZ         4.6660    0.9920   -0.5270 ca        1 0YX      0.164100
     12 OAV         5.9610    1.2830   -0.1170 os        1 0YX     -0.367900
     13 CAT         6.1330    2.1780    0.9800 c3        1 0YX      0.129700
     14 CAX         6.0660    1.4590    2.2930 ca        1 0YX     -0.083300
     15 CAK         7.1510    0.7070    2.7480 ca        1 0YX     -0.149000
     16 CAG         4.9070    1.5650    3.0770 ca        1 0YX     -0.100000
     17 CAF         4.8500    0.9250    4.3150 ca        1 0YX     -0.143000
     18 CAH         5.9220    0.1660    4.7830 ca        1 0YX     -0.161000
     19 CAY         7.0700    0.0650    3.9900 ca        1 0YX      0.031100
     20 OAU         8.1700   -0.6300    4.5040 os        1 0YX     -0.363900
     21 CAS         8.4230   -1.8460    3.7920 c3        1 0YX      0.132400
     22 CAR         9.7110   -2.4180    4.3590 c3        1 0YX     -0.085400
     23 CAQ        10.0620   -3.7170    3.6690 c3        1 0YX     -0.079400
     24 CAP        11.3450   -4.3020    4.2210 c3        1 0YX     -0.077400
     25 CAO        11.6990   -5.6010    3.5300 c3        1 0YX     -0.080400
     26 CAN        12.9820   -6.1860    4.0810 c3        1 0YX     -0.078400
     27 CAM        13.3380   -7.4850    3.3890 c3        1 0YX     -0.081400
     28 CAA        14.6140   -8.0720    3.9340 c3        1 0YX     -0.091100
     29 H3          1.4290    1.9590   -0.8210 ha        1 0YX      0.193000
     30 H4          3.3790   -1.6240   -2.3170 ha        1 0YX      0.092000
     31 H5          5.5280   -0.8330   -1.3390 ha        1 0YX      0.099000
     32 H6          7.1720    2.5790    0.8170 h1        1 0YX      0.102200
     33 H7          5.3770    3.0290    0.9310 h1        1 0YX      0.102200
     34 H8          8.0570    0.6120    2.1350 ha        1 0YX      0.119000
     35 H9          4.0250    2.1580    2.6850 ha        1 0YX      0.272000
     36 H10         3.9380    1.0160    4.9240 ha        1 0YX      0.124000
     37 H11         5.8820   -0.3410    5.7550 ha        1 0YX      0.107000
     38 H12         7.5660   -2.5530    3.9500 h1        1 0YX      0.033700
     39 H13         8.5240   -1.6330    2.6960 h1        1 0YX      0.033700
     40 H14         9.5910   -2.5840    5.4610 hc        1 0YX      0.045200
     41 H15        10.5370   -1.6720    4.2250 hc        1 0YX      0.045200
     42 H16         9.2260   -4.4530    3.8020 hc        1 0YX      0.041200
     43 H17        10.1730   -3.5390    2.5670 hc        1 0YX      0.041200
     44 H18        11.2330   -4.4800    5.3230 hc        1 0YX      0.036200
     45 H19        12.1810   -3.5650    4.0890 hc        1 0YX      0.036200
     46 H20        10.8630   -6.3370    3.6610 hc        1 0YX      0.040200
     47 H21        11.8100   -5.4210    2.4280 hc        1 0YX      0.040200
     48 H22        12.8710   -6.3660    5.1820 hc        1 0YX      0.036700
     49 H23        13.8180   -5.4500    3.9490 hc        1 0YX      0.036700
     50 H24        13.4470   -7.3030    2.2870 hc        1 0YX      0.038700
     51 H25        12.4990   -8.2190    3.5200 hc        1 0YX      0.038700
     52 H26        15.4660   -7.3640    3.7910 hc        1 0YX      0.027700
     53 H27        14.8580   -9.0280    3.4110 hc        1 0YX      0.027700
     54 H28        14.5160   -8.2830    5.0270 hc        1 0YX      0.027700
@<TRIPOS>BOND
     1    1    2 1   
     2    2    3 1   
     3    2    4 1   
     4    2    5 1   
     5    5    6 ar  
     6    5   11 ar  
     7    6    7 ar  
     8    6   29 1   
     9    7    8 1   
    10    7    9 ar  
    11    9   10 ar  
    12    9   30 1   
    13   10   11 ar  
    14   10   31 1   
    15   11   12 1   
    16   12   13 1   
    17   13   14 1   
    18   13   32 1   
    19   13   33 1   
    20   14   15 ar  
    21   14   16 ar  
    22   15   19 ar  
    23   15   34 1   
    24   16   17 ar  
    25   16   35 1   
    26   17   18 ar  
    27   17   36 1   
    28   18   19 ar  
    29   18   37 1   
    30   19   20 1   
    31   20   21 1   
    32   21   22 1   
    33   21   38 1   
    34   21   39 1   
    35   22   23 1   
    36   22   40 1   
    37   22   41 1   
    38   23   24 1   
    39   23   42 1   
    40   23   43 1   
    41   24   25 1   
    42   24   44 1   
    43   24   45 1   
    44   25   26 1   
    45   25   46 1   
    46   25   47 1   
    47   26   27 1   
    48   26   48 1   
    49   26   49 1   
    50   27   28 1   
    51   27   50 1   
    52   27   51 1   
    53   28   52 1   
    54   28   53 1   
    55   28   54 1   
@<TRIPOS>SUBSTRUCTURE
     1 0YX         1 TEMP              0 ****  ****    0 ROOT
