@<TRIPOS>MOLECULE
0YX
   54    55     1     0     0
SMALL
bcc


@<TRIPOS>ATOM
      1 OAC        -3.4820   -2.8550   -0.8600 o         1 0YX     -0.896167
      2 PBB        -3.8140   -1.4990   -1.4050 p5        1 0YX      1.217000
      3 OAD        -3.1220   -1.1510   -2.6900 o         1 0YX     -0.896167
      4 OAB        -5.2320   -1.0480   -1.2630 o         1 0YX     -0.896167
      5 CBA        -2.8090   -0.2280   -0.1390 ca        1 0YX     -0.162500
      6 CAL        -3.6150    0.9070   -0.1980 ca        1 0YX     -0.078000
      7 CAW        -3.2950    2.0750    0.5040 ca        1 0YX     -0.058900
      8 BRE        -4.4040    3.6080    0.4030 br        1 0YX     -0.227100
      9 CAI        -2.1490    2.1350    1.2960 ca        1 0YX     -0.146000
     10 CAJ        -1.3240    1.0200    1.3730 ca        1 0YX     -0.209000
     11 CAZ        -1.6570   -0.1520    0.6600 ca        1 0YX      0.164100
     12 OAV        -0.7490   -1.1720    0.9180 os        1 0YX     -0.367900
     13 CAT        -0.6260   -2.2200   -0.0400 c3        1 0YX      0.129700
     14 CAX         0.3460   -1.8650   -1.1240 ca        1 0YX     -0.083300
     15 CAK         1.7220   -1.9260   -0.8920 ca        1 0YX     -0.149000
     16 CAG        -0.1370   -1.4890   -2.3860 ca        1 0YX     -0.100000
     17 CAF         0.7630   -1.1880   -3.4090 ca        1 0YX     -0.143000
     18 CAH         2.1400   -1.2400   -3.1940 ca        1 0YX     -0.161000
     19 CAY         2.6090   -1.6130   -1.9300 ca        1 0YX      0.031100
     20 OAU         3.9900   -1.7400   -1.7480 os        1 0YX     -0.363900
     21 CAS         4.5170   -0.7350   -0.8760 c3        1 0YX      0.132400
     22 CAR         5.9810   -1.0750   -0.6600 c3        1 0YX     -0.085400
     23 CAQ         6.6330   -0.0570    0.2480 c3        1 0YX     -0.079400
     24 CAP         8.0950   -0.3810    0.4760 c3        1 0YX     -0.077400
     25 CAO         8.7490    0.6370    1.3850 c3        1 0YX     -0.080400
     26 CAN        10.2100    0.3140    1.6130 c3        1 0YX     -0.078400
     27 CAM        10.8650    1.3320    2.5230 c3        1 0YX     -0.081400
     28 CAA        12.3190    1.0140    2.7540 c3        1 0YX     -0.091100
     29 H3         -4.5440    0.8600   -0.8030 ha        1 0YX      0.193000
     30 H4         -1.8890    3.0460    1.8520 ha        1 0YX      0.092000
     31 H5         -0.4170    1.0420    1.9910 ha        1 0YX      0.099000
     32 H6         -0.2210   -3.0740    0.5710 h1        1 0YX      0.102200
     33 H7         -1.6450   -2.4990   -0.4690 h1        1 0YX      0.102200
     34 H8          2.1080   -2.2100    0.0960 ha        1 0YX      0.119000
     35 H9         -1.2560   -1.4190   -2.5530 ha        1 0YX      0.272000
     36 H10         0.3740   -0.8970   -4.3960 ha        1 0YX      0.124000
     37 H11         2.8520   -1.0020   -3.9940 ha        1 0YX      0.107000
     38 H12         4.4050    0.2710   -1.3600 h1        1 0YX      0.033700
     39 H13         3.9550   -0.7380    0.0950 h1        1 0YX      0.033700
     40 H14         6.0610   -2.1000   -0.2140 hc        1 0YX      0.045200
     41 H15         6.5060   -1.1030   -1.6500 hc        1 0YX      0.045200
     42 H16         6.5400    0.9660   -0.2040 hc        1 0YX      0.041200
     43 H17         6.0950   -0.0320    1.2330 hc        1 0YX      0.041200
     44 H18         8.1860   -1.4030    0.9280 hc        1 0YX      0.036200
     45 H19         8.6320   -0.4060   -0.5090 hc        1 0YX      0.036200
     46 H20         8.6550    1.6600    0.9330 hc        1 0YX      0.040200
     47 H21         8.2100    0.6620    2.3690 hc        1 0YX      0.040200
     48 H22        10.3020   -0.7080    2.0660 hc        1 0YX      0.036700
     49 H23        10.7480    0.2890    0.6290 hc        1 0YX      0.036700
     50 H24        10.7690    2.3540    2.0700 hc        1 0YX      0.038700
     51 H25        10.3240    1.3560    3.5060 hc        1 0YX      0.038700
     52 H26        12.4330    0.0100    3.2280 hc        1 0YX      0.027700
     53 H27        12.8800    1.0100    1.7880 hc        1 0YX      0.027700
     54 H28        12.7830    1.7760    3.4260 hc        1 0YX      0.027700
@<TRIPOS>BOND
     1    1    2 1   
     2    2    3 1   
     3    2    4 1   
     4    2    5 1   
     5    5    6 ar  
     6    5   11 ar  
     7    6    7 ar  
     8    6   29 1   
     9    7    8 1   
    10    7    9 ar  
    11    9   10 ar  
    12    9   30 1   
    13   10   11 ar  
    14   10   31 1   
    15   11   12 1   
    16   12   13 1   
    17   13   14 1   
    18   13   32 1   
    19   13   33 1   
    20   14   15 ar  
    21   14   16 ar  
    22   15   19 ar  
    23   15   34 1   
    24   16   17 ar  
    25   16   35 1   
    26   17   18 ar  
    27   17   36 1   
    28   18   19 ar  
    29   18   37 1   
    30   19   20 1   
    31   20   21 1   
    32   21   22 1   
    33   21   38 1   
    34   21   39 1   
    35   22   23 1   
    36   22   40 1   
    37   22   41 1   
    38   23   24 1   
    39   23   42 1   
    40   23   43 1   
    41   24   25 1   
    42   24   44 1   
    43   24   45 1   
    44   25   26 1   
    45   25   46 1   
    46   25   47 1   
    47   26   27 1   
    48   26   48 1   
    49   26   49 1   
    50   27   28 1   
    51   27   50 1   
    52   27   51 1   
    53   28   52 1   
    54   28   53 1   
    55   28   54 1   
@<TRIPOS>SUBSTRUCTURE
     1 0YX         1 TEMP              0 ****  ****    0 ROOT
