@<TRIPOS>MOLECULE
0YX
   54    55     1     0     0
SMALL
bcc


@<TRIPOS>ATOM
      1 OAC         4.0960    4.3340    0.3170 o         1 0YX     -0.896167
      2 PBB         2.8630    3.4960    0.4780 p5        1 0YX      1.217000
      3 OAD         2.5830    3.0550    1.8850 o         1 0YX     -0.896167
      4 OAB         1.6810    3.8740   -0.3550 o         1 0YX     -0.896167
      5 CBA         3.4200    1.6870   -0.3260 ca        1 0YX     -0.162500
      6 CAL         2.1950    1.2050   -0.7840 ca        1 0YX     -0.078000
      7 CAW         2.0780   -0.0480   -1.3950 ca        1 0YX     -0.058900
      8 BrE         0.4000   -0.6850   -2.0040 br        1 0YX     -0.227100
      9 CAI         3.1990   -0.8590   -1.5700 ca        1 0YX     -0.146000
     10 CAJ         4.4340   -0.4070   -1.1230 ca        1 0YX     -0.209000
     11 CAZ         4.5400    0.8590   -0.5060 ca        1 0YX      0.164100
     12 OAV         5.8600    1.1560   -0.1910 os        1 0YX     -0.367900
     13 CAT         6.1050    2.1150    0.8350 c3        1 0YX      0.129700
     14 CAX         6.1060    1.4800    2.1930 ca        1 0YX     -0.083300
     15 CAK         7.2070    0.7400    2.6310 ca        1 0YX     -0.149000
     16 CAG         4.9970    1.6530    3.0350 ca        1 0YX     -0.100000
     17 CAF         5.0040    1.0910    4.3110 ca        1 0YX     -0.143000
     18 CAH         6.0930    0.3450    4.7640 ca        1 0YX     -0.161000
     19 CAY         7.1910    0.1780    3.9130 ca        1 0YX      0.031100
     20 OAU         8.3100   -0.5030    4.4050 os        1 0YX     -0.363900
     21 CAS         8.5040   -1.7650    3.7590 c3        1 0YX      0.132400
     22 CAR         9.8160   -2.3220    4.2860 c3        1 0YX     -0.085400
     23 CAQ        10.1070   -3.6690    3.6630 c3        1 0YX     -0.079400
     24 CAP        11.4110   -4.2410    4.1770 c3        1 0YX     -0.077400
     25 CAO        11.7050   -5.5880    3.5530 c3        1 0YX     -0.080400
     26 CAN        13.0090   -6.1600    4.0660 c3        1 0YX     -0.078400
     27 CAM        13.3040   -7.5080    3.4420 c3        1 0YX     -0.081400
     28 CAA        14.6010   -8.0820    3.9490 c3        1 0YX     -0.091100
     29 H3          1.3020    1.8550   -0.6740 ha        1 0YX      0.193000
     30 H4          3.1200   -1.8440   -2.0500 ha        1 0YX      0.092000
     31 H5          5.3320   -1.0260   -1.2500 ha        1 0YX      0.099000
     32 H6          5.3570    2.9720    0.7770 h1        1 0YX      0.102200
     33 H7          7.1380    2.4880    0.5890 h1        1 0YX      0.102200
     34 H8          8.0740    0.5920    1.9740 ha        1 0YX      0.119000
     35 H9          4.1010    2.2340    2.6570 ha        1 0YX      0.272000
     36 H10         4.1310    1.2340    4.9640 ha        1 0YX      0.124000
     37 H11         6.1030   -0.1000    5.7660 ha        1 0YX      0.107000
     38 H12         7.6490   -2.4460    4.0100 h1        1 0YX      0.033700
     39 H13         8.5440   -1.6230    2.6470 h1        1 0YX      0.033700
     40 H14         9.7580   -2.4160    5.4020 hc        1 0YX      0.045200
     41 H15        10.6430   -1.6020    4.0560 hc        1 0YX      0.045200
     42 H16         9.2690   -4.3800    3.8920 hc        1 0YX      0.041200
     43 H17        10.1550   -3.5650    2.5470 hc        1 0YX      0.041200
     44 H18        12.2480   -3.5290    3.9470 hc        1 0YX      0.036200
     45 H19        11.3620   -4.3450    5.2930 hc        1 0YX      0.036200
     46 H20        10.8670   -6.2980    3.7810 hc        1 0YX      0.040200
     47 H21        11.7530   -5.4830    2.4370 hc        1 0YX      0.040200
     48 H22        12.9610   -6.2660    5.1820 hc        1 0YX      0.036700
     49 H23        13.8470   -5.4500    3.8370 hc        1 0YX      0.036700
     50 H24        12.4640   -8.2160    3.6700 hc        1 0YX      0.038700
     51 H25        13.3500   -7.4000    2.3260 hc        1 0YX      0.038700
     52 H26        14.7990   -9.0750    3.4770 hc        1 0YX      0.027700
     53 H27        14.5650   -8.2200    5.0570 hc        1 0YX      0.027700
     54 H28        15.4540   -7.4010    3.7100 hc        1 0YX      0.027700
@<TRIPOS>BOND
     1    1    2 1   
     2    2    3 1   
     3    2    4 1   
     4    2    5 1   
     5    5    6 ar  
     6    5   11 ar  
     7    6    7 ar  
     8    6   29 1   
     9    7    8 1   
    10    7    9 ar  
    11    9   10 ar  
    12    9   30 1   
    13   10   11 ar  
    14   10   31 1   
    15   11   12 1   
    16   12   13 1   
    17   13   14 1   
    18   13   32 1   
    19   13   33 1   
    20   14   15 ar  
    21   14   16 ar  
    22   15   19 ar  
    23   15   34 1   
    24   16   17 ar  
    25   16   35 1   
    26   17   18 ar  
    27   17   36 1   
    28   18   19 ar  
    29   18   37 1   
    30   19   20 1   
    31   20   21 1   
    32   21   22 1   
    33   21   38 1   
    34   21   39 1   
    35   22   23 1   
    36   22   40 1   
    37   22   41 1   
    38   23   24 1   
    39   23   42 1   
    40   23   43 1   
    41   24   25 1   
    42   24   44 1   
    43   24   45 1   
    44   25   26 1   
    45   25   46 1   
    46   25   47 1   
    47   26   27 1   
    48   26   48 1   
    49   26   49 1   
    50   27   28 1   
    51   27   50 1   
    52   27   51 1   
    53   28   52 1   
    54   28   53 1   
    55   28   54 1   
@<TRIPOS>SUBSTRUCTURE
     1 0YX         1 TEMP              0 ****  ****    0 ROOT
