@<TRIPOS>MOLECULE
0YX
   54    49     1     0     0
SMALL
bcc


@<TRIPOS>ATOM
      1 OAC        -1.3280    6.5040   -2.3800 o         1 0YX     -1.220333
      2 PBB        -2.0010    5.3850   -1.6060 p3        1 0YX      2.571000
      3 OAD        -1.1240    4.1560   -1.6310 o         1 0YX     -1.220333
      4 OAB        -2.2150    5.8220   -0.1730 o         1 0YX     -1.220333
      5 CBA        -3.6280    4.9980   -2.3840 c1        1 0YX     -0.562000
      6 CAL        -4.0670    5.7380   -3.4820 c1        1 0YX     -0.075000
      7 CAW        -5.3250    5.4880   -4.0340 c1        1 0YX     -0.202000
      8 BRE        -5.8510    6.3730   -5.6590 br        1 0YX     -0.084000
      9 CAI        -6.1400    4.5020   -3.4900 c1        1 0YX     -0.173750
     10 CAJ        -5.7030    3.7600   -2.3900 c1        1 0YX     -0.173750
     11 CAZ        -4.4490    4.0060   -1.8370 c1        1 0YX      0.123000
     12 OAV        -4.0530    3.3270   -0.6470 os        1 0YX     -0.250000
     13 CAT        -4.2750    1.8950   -0.6870 c3        1 0YX     -0.032000
     14 CAX        -3.5690    1.2350    0.4940 c2        1 0YX     -0.055000
     15 CAK        -2.6780    0.1900    0.2730 c2        1 0YX     -0.173000
     16 CAG        -3.8730    1.6160    1.7760 c1        1 0YX     -0.173000
     17 CAF        -3.2900    0.9560    2.8530 c1        1 0YX     -0.173750
     18 CAH        -2.4040   -0.0830    2.6300 c1        1 0YX     -0.173750
     19 CAY        -2.0990   -0.4640    1.3440 c1        1 0YX      0.078000
     20 OAU        -1.2270   -1.5660    1.1160 os        1 0YX     -0.258000
     21 CAS         0.1690   -1.2690    1.3490 c3        1 0YX     -0.042000
     22 CAR         1.0130   -2.5130    1.0300 c3        1 0YX     -0.147000
     23 CAQ         2.5200   -2.2070    1.2910 c3        1 0YX     -0.169000
     24 CAP         3.3850   -3.4170    0.8030 c3        1 0YX     -0.150000
     25 CAO         4.8730   -3.1340    1.0830 c3        1 0YX     -0.162000
     26 CAN         5.7180   -4.3800    0.7000 c3        1 0YX     -0.155000
     27 CAM         7.2020   -4.0720    0.8970 c3        1 0YX     -0.162000
     28 CAA         8.0290   -5.2610    0.4470 c3        1 0YX     -0.206000
     29 H3         -3.4920    6.4320   -3.8670 ha        1 0YX      0.188000
     30 H4         -7.0170    4.3290   -3.8760 ha        1 0YX      0.098500
     31 H5         -6.2730    3.0540   -2.0200 ha        1 0YX      0.098500
     32 H6         -5.2480    1.7090   -0.6380 h1        1 0YX      0.140500
     33 H7         -3.9140    1.5310   -1.5270 h1        1 0YX      0.140500
     34 H8         -2.4600   -0.0820   -0.6400 ha        1 0YX      0.259000
     35 H9         -4.4930    2.3430    1.9320 ha        1 0YX      0.106000
     36 H10        -3.5030    1.2230    3.7570 ha        1 0YX      0.098500
     37 H11        -1.9960   -0.5450    3.3820 ha        1 0YX      0.098500
     38 H12         0.4460   -0.5270    0.7700 h1        1 0YX      0.142500
     39 H13         0.2990   -1.0170    2.2950 h1        1 0YX      0.142500
     40 H14         0.8910   -2.7570    0.0950 hc        1 0YX      0.058500
     41 H15         0.7280   -3.2570    1.6000 hc        1 0YX      0.058500
     42 H16         2.6650   -2.0670    2.2570 hc        1 0YX      0.112500
     43 H17         2.7810   -1.3990    0.7990 hc        1 0YX      0.112500
     44 H18         3.1130   -4.2240    1.2790 hc        1 0YX      0.060000
     45 H19         3.2530   -3.5450   -0.1570 hc        1 0YX      0.060000
     46 H20         4.9940   -2.9380    2.0330 hc        1 0YX      0.089000
     47 H21         5.1640   -2.3670    0.5520 hc        1 0YX      0.089000
     48 H22         5.4630   -5.1370    1.2710 hc        1 0YX      0.068000
     49 H23         5.5540   -4.6100   -0.2390 hc        1 0YX      0.068000
     50 H24         7.3750   -3.8950    1.8410 hc        1 0YX      0.081500
     51 H25         7.4450   -3.2870    0.3680 hc        1 0YX      0.081500
     52 H26         7.9280   -5.3810   -0.5210 hc        1 0YX      0.062000
     53 H27         7.7190   -6.0710    0.9120 hc        1 0YX      0.062000
     54 H28         8.9730   -5.1020    0.6590 hc        1 0YX      0.062000
@<TRIPOS>BOND
     1    1    2 1   
     2    2    3 1   
     3    2    4 1   
     4    5   11 1   
     5    6    7 1   
     6    6   29 1   
     7    7    8 1   
     8    9   10 1   
     9    9   30 1   
    10   10   31 1   
    11   11   12 1   
    12   12   13 1   
    13   13   14 1   
    14   13   32 1   
    15   13   33 1   
    16   14   15 1   
    17   14   16 1   
    18   15   19 1   
    19   15   34 1   
    20   16   35 1   
    21   17   18 1   
    22   17   36 1   
    23   18   37 1   
    24   19   20 1   
    25   20   21 1   
    26   21   22 1   
    27   21   38 1   
    28   21   39 1   
    29   22   23 1   
    30   22   40 1   
    31   22   41 1   
    32   23   24 1   
    33   23   42 1   
    34   23   43 1   
    35   24   25 1   
    36   24   44 1   
    37   24   45 1   
    38   25   26 1   
    39   25   46 1   
    40   25   47 1   
    41   26   27 1   
    42   26   48 1   
    43   26   49 1   
    44   27   28 1   
    45   27   50 1   
    46   27   51 1   
    47   28   52 1   
    48   28   53 1   
    49   28   54 1   
@<TRIPOS>SUBSTRUCTURE
     1 0YX         1 TEMP              0 ****  ****    0 ROOT
