@<TRIPOS>MOLECULE
0YX
   54    55     1     0     0
SMALL
bcc


@<TRIPOS>ATOM
      1 OAC         3.9090    4.2970    0.5760 o         1 0YX     -0.896167
      2 PBB         2.7180    3.3870    0.5680 p5        1 0YX      1.217000
      3 OAD         2.3640    2.8040    1.9060 o         1 0YX     -0.896167
      4 OAB         1.5780    3.7790   -0.3160 o         1 0YX     -0.896167
      5 CBA         3.4330    1.6900   -0.3470 ca        1 0YX     -0.162500
      6 CAL         2.2750    1.1900   -0.9370 ca        1 0YX     -0.078000
      7 CAW         2.2740   -0.0060   -1.6630 ca        1 0YX     -0.058900
      8 BRE         0.6830   -0.6680   -2.4510 br        1 0YX     -0.227100
      9 CAI         3.4490   -0.7390   -1.8230 ca        1 0YX     -0.146000
     10 CAJ         4.6210   -0.2680   -1.2450 ca        1 0YX     -0.209000
     11 CAZ         4.6090    0.9400   -0.5140 ca        1 0YX      0.164100
     12 OAV         5.8850    1.2740   -0.0740 os        1 0YX     -0.367900
     13 CAT         6.0010    2.1460    1.0480 c3        1 0YX      0.129700
     14 CAX         5.9420    1.3890    2.3410 ca        1 0YX     -0.083300
     15 CAK         7.0490    0.6700    2.7950 ca        1 0YX     -0.149000
     16 CAG         4.7670    1.4270    3.1080 ca        1 0YX     -0.100000
     17 CAF         4.7160    0.7530    4.3280 ca        1 0YX     -0.143000
     18 CAH         5.8110    0.0250    4.7940 ca        1 0YX     -0.161000
     19 CAY         6.9750   -0.0070    4.0190 ca        1 0YX      0.031100
     20 OAU         8.0940   -0.6710    4.5330 os        1 0YX     -0.363900
     21 CAS         8.4060   -1.8580    3.7960 c3        1 0YX      0.132400
     22 CAR         9.7070   -2.3920    4.3690 c3        1 0YX     -0.085400
     23 CAQ        10.1190   -3.6610    3.6560 c3        1 0YX     -0.079400
     24 CAP        11.4150   -4.2080    4.2140 c3        1 0YX     -0.077400
     25 CAO        11.8290   -5.4770    3.5010 c3        1 0YX     -0.080400
     26 CAN        13.1250   -6.0250    4.0590 c3        1 0YX     -0.078400
     27 CAM        13.5400   -7.2940    3.3450 c3        1 0YX     -0.081400
     28 CAA        14.8300   -7.8440    3.8970 c3        1 0YX     -0.091100
     29 H3          1.3400    1.7810   -0.8390 ha        1 0YX      0.193000
     30 H4          3.4620   -1.6780   -2.3920 ha        1 0YX      0.092000
     31 H5          5.5600   -0.8260   -1.3570 ha        1 0YX      0.099000
     32 H6          5.2110    2.9660    1.0080 h1        1 0YX      0.102200
     33 H7          7.0250    2.5920    0.9140 h1        1 0YX      0.102200
     34 H8          7.9690    0.6270    2.1960 ha        1 0YX      0.119000
     35 H9          3.8680    1.9940    2.7160 ha        1 0YX      0.272000
     36 H10         3.7920    0.7900    4.9220 ha        1 0YX      0.124000
     37 H11         5.7760   -0.5080    5.7520 ha        1 0YX      0.107000
     38 H12         7.5760   -2.6020    3.9210 h1        1 0YX      0.033700
     39 H13         8.5160   -1.6130    2.7060 h1        1 0YX      0.033700
     40 H14         9.5770   -2.5890    5.4650 hc        1 0YX      0.045200
     41 H15        10.5050   -1.6120    4.2660 hc        1 0YX      0.045200
     42 H16         9.3100   -4.4310    3.7590 hc        1 0YX      0.041200
     43 H17        10.2390   -3.4530    2.5590 hc        1 0YX      0.041200
     44 H18        12.2230   -3.4370    4.1110 hc        1 0YX      0.036200
     45 H19        11.2940   -4.4150    5.3100 hc        1 0YX      0.036200
     46 H20        11.0200   -6.2470    3.6030 hc        1 0YX      0.040200
     47 H21        11.9500   -5.2690    2.4050 hc        1 0YX      0.040200
     48 H22        13.0050   -6.2330    5.1550 hc        1 0YX      0.036700
     49 H23        13.9340   -5.2550    3.9560 hc        1 0YX      0.036700
     50 H24        12.7290   -8.0620    3.4480 hc        1 0YX      0.038700
     51 H25        13.6580   -7.0840    2.2490 hc        1 0YX      0.038700
     52 H26        15.1180   -8.7790    3.3570 hc        1 0YX      0.027700
     53 H27        14.7250   -8.0820    4.9830 hc        1 0YX      0.027700
     54 H28        15.6560   -7.1020    3.7810 hc        1 0YX      0.027700
@<TRIPOS>BOND
     1    1    2 1   
     2    2    3 1   
     3    2    4 1   
     4    2    5 1   
     5    5    6 ar  
     6    5   11 ar  
     7    6    7 ar  
     8    6   29 1   
     9    7    8 1   
    10    7    9 ar  
    11    9   10 ar  
    12    9   30 1   
    13   10   11 ar  
    14   10   31 1   
    15   11   12 1   
    16   12   13 1   
    17   13   14 1   
    18   13   32 1   
    19   13   33 1   
    20   14   15 ar  
    21   14   16 ar  
    22   15   19 ar  
    23   15   34 1   
    24   16   17 ar  
    25   16   35 1   
    26   17   18 ar  
    27   17   36 1   
    28   18   19 ar  
    29   18   37 1   
    30   19   20 1   
    31   20   21 1   
    32   21   22 1   
    33   21   38 1   
    34   21   39 1   
    35   22   23 1   
    36   22   40 1   
    37   22   41 1   
    38   23   24 1   
    39   23   42 1   
    40   23   43 1   
    41   24   25 1   
    42   24   44 1   
    43   24   45 1   
    44   25   26 1   
    45   25   46 1   
    46   25   47 1   
    47   26   27 1   
    48   26   48 1   
    49   26   49 1   
    50   27   28 1   
    51   27   50 1   
    52   27   51 1   
    53   28   52 1   
    54   28   53 1   
    55   28   54 1   
@<TRIPOS>SUBSTRUCTURE
     1 0YX         1 TEMP              0 ****  ****    0 ROOT
