@<TRIPOS>MOLECULE
0YY
   46    46     1     0     0
SMALL
bcc


@<TRIPOS>ATOM
      1 OAB         0.2060   -1.8630   -0.5440 o         1 0YY     -0.804800
      2 CAS         1.1330   -1.0930   -0.1980 c         1 0YY      0.882800
      3 OAD         1.5620   -0.9180    0.9800 o         1 0YY     -0.804800
      4 CAU         1.8500   -0.2500   -1.2660 ce        1 0YY      0.116900
      5 OAE         2.8180    0.5800   -0.8000 oh        1 0YY     -0.499100
      6 CAF         1.5390   -0.3010   -2.5870 cf        1 0YY     -0.388200
      7 CAT         2.1510    0.4540   -3.6550 c         1 0YY      0.595900
      8 OAC         3.1830    1.1430   -3.5620 o         1 0YY     -0.586100
      9 CAW         1.4680    0.3600   -4.9820 ca        1 0YY     -0.167600
     10 CAJ         2.2330    0.4220   -6.1500 ca        1 0YY     -0.064000
     11 CAH         1.6330    0.3390   -7.4060 ca        1 0YY     -0.198000
     12 CAI         0.0760    0.2290   -5.0790 ca        1 0YY     -0.064000
     13 CAG        -0.5430    0.1530   -6.3210 ca        1 0YY     -0.198000
     14 CAV         0.2430    0.2040   -7.4860 ca        1 0YY      0.119100
     15 OAR        -0.4730    0.1200   -8.6700 os        1 0YY     -0.338900
     16 CAQ         0.3100    0.1100   -9.8660 c3        1 0YY      0.131400
     17 CAP        -0.6790   -0.0400  -11.0100 c3        1 0YY     -0.086400
     18 CAO         0.0490   -0.0570  -12.3350 c3        1 0YY     -0.078400
     19 CAN        -0.9220   -0.2050  -13.4880 c3        1 0YY     -0.078400
     20 CAM        -0.1980   -0.2230  -14.8170 c3        1 0YY     -0.079400
     21 CAL        -1.1680   -0.3710  -15.9690 c3        1 0YY     -0.079400
     22 CAK        -0.4450   -0.3890  -17.2990 c3        1 0YY     -0.080400
     23 CAA        -1.4070   -0.5370  -18.4500 c3        1 0YY     -0.092100
     24 H2          2.8640    0.4510    0.1720 ho        1 0YY      0.447000
     25 H3          0.7390   -1.0100   -2.8610 ha        1 0YY      0.155000
     26 H4          3.3250    0.5450   -6.0660 ha        1 0YY      0.151500
     27 H5          2.2560    0.3840   -8.3080 ha        1 0YY      0.132500
     28 H6         -0.5330    0.1880   -4.1610 ha        1 0YY      0.151500
     29 H7         -1.6330    0.0500   -6.4060 ha        1 0YY      0.132500
     30 H8          1.0300   -0.7500   -9.8420 h1        1 0YY      0.036200
     31 H9          0.8800    1.0720   -9.9510 h1        1 0YY      0.036200
     32 H10        -1.4120    0.8080  -10.9790 hc        1 0YY      0.055200
     33 H11        -1.2620   -0.9870  -10.8740 hc        1 0YY      0.055200
     34 H12         0.6340    0.8930  -12.4570 hc        1 0YY      0.040200
     35 H13         0.7840   -0.9040  -12.3520 hc        1 0YY      0.040200
     36 H14        -1.6580    0.6420  -13.4710 hc        1 0YY      0.041200
     37 H15        -1.5080   -1.1540  -13.3650 hc        1 0YY      0.041200
     38 H16         0.5380   -1.0690  -14.8330 hc        1 0YY      0.039200
     39 H17         0.3880    0.7260  -14.9380 hc        1 0YY      0.039200
     40 H18        -1.7540   -1.3200  -15.8480 hc        1 0YY      0.039200
     41 H19        -1.9040    0.4750  -15.9530 hc        1 0YY      0.039200
     42 H20         0.1420    0.5600  -17.4180 hc        1 0YY      0.037700
     43 H21         0.2920   -1.2350  -17.3130 hc        1 0YY      0.037700
     44 H22        -2.1340    0.3110  -18.4670 hc        1 0YY      0.031033
     45 H23        -1.9830   -1.4890  -18.3620 hc        1 0YY      0.031033
     46 H24        -0.8540   -0.5470  -19.4200 hc        1 0YY      0.031033
@<TRIPOS>BOND
     1    1    2 1   
     2    2    3 1   
     3    2    4 1   
     4    4    5 1   
     5    4    6 2   
     6    5   24 1   
     7    6    7 1   
     8    6   25 1   
     9    7    8 2   
    10    7    9 1   
    11    9   10 ar  
    12    9   12 ar  
    13   10   11 ar  
    14   10   26 1   
    15   11   14 ar  
    16   11   27 1   
    17   12   13 ar  
    18   12   28 1   
    19   13   14 ar  
    20   13   29 1   
    21   14   15 1   
    22   15   16 1   
    23   16   17 1   
    24   16   30 1   
    25   16   31 1   
    26   17   18 1   
    27   17   32 1   
    28   17   33 1   
    29   18   19 1   
    30   18   34 1   
    31   18   35 1   
    32   19   20 1   
    33   19   36 1   
    34   19   37 1   
    35   20   21 1   
    36   20   38 1   
    37   20   39 1   
    38   21   22 1   
    39   21   40 1   
    40   21   41 1   
    41   22   23 1   
    42   22   42 1   
    43   22   43 1   
    44   23   44 1   
    45   23   45 1   
    46   23   46 1   
@<TRIPOS>SUBSTRUCTURE
     1 0YY         1 TEMP              0 ****  ****    0 ROOT
