@<TRIPOS>MOLECULE
0YY
   46    46     1     0     0
SMALL
bcc


@<TRIPOS>ATOM
      1 OAB         7.5770   -1.8890    0.1920 o         1 0YY     -0.791300
      2 CAS         7.2060   -0.9530    0.9410 c         1 0YY      0.926800
      3 OAD         7.4860   -0.7870    2.1520 o         1 0YY     -0.791300
      4 CAU         6.2670    0.1030    0.3000 ce        1 0YY      0.180900
      5 OAE         6.9290    1.1710   -0.1850 oh        1 0YY     -0.481100
      6 CAF         4.9110   -0.0750    0.2450 cf        1 0YY     -0.472200
      7 CAT         3.9680    0.8390   -0.3330 c         1 0YY      0.600900
      8 OAC         4.2670    1.9640   -0.7980 o         1 0YY     -0.652100
      9 CAW         2.5430    0.4060   -0.3580 ca        1 0YY     -0.160600
     10 CAJ         1.5350    1.3630   -0.2080 ca        1 0YY     -0.062500
     11 CAH         0.1900    0.9940   -0.2220 ca        1 0YY     -0.198000
     12 CAI         2.1930   -0.9380   -0.5430 ca        1 0YY     -0.062500
     13 CAG         0.8590   -1.3260   -0.5690 ca        1 0YY     -0.198000
     14 CAV        -0.1440   -0.3530   -0.4020 ca        1 0YY      0.122100
     15 OAR        -1.4380   -0.8440   -0.4430 os        1 0YY     -0.337900
     16 CAQ        -2.4730    0.1180   -0.2190 c3        1 0YY      0.131400
     17 CAP        -3.7780   -0.6590   -0.2610 c3        1 0YY     -0.086400
     18 CAO        -4.9500    0.2710   -0.0380 c3        1 0YY     -0.078400
     19 CAN        -6.2600   -0.4860   -0.0750 c3        1 0YY     -0.078400
     20 CAM        -7.4360    0.4410    0.1470 c3        1 0YY     -0.079400
     21 CAL        -8.7470   -0.3150    0.1100 c3        1 0YY     -0.079400
     22 CAK        -9.9240    0.6110    0.3330 c3        1 0YY     -0.080400
     23 CAA       -11.2310   -0.1380    0.2960 c3        1 0YY     -0.092100
     24 H2          6.3080    1.8120   -0.5760 ho        1 0YY      0.430000
     25 H3          4.5150   -0.9970    0.6950 ha        1 0YY      0.147000
     26 H4          1.8170    2.4200   -0.0840 ha        1 0YY      0.151500
     27 H5         -0.5840    1.7620   -0.0950 ha        1 0YY      0.133500
     28 H6          2.9850   -1.6950   -0.6750 ha        1 0YY      0.151500
     29 H7          0.5750   -2.3760   -0.7150 ha        1 0YY      0.133500
     30 H8         -2.3270    0.6060    0.7800 h1        1 0YY      0.036700
     31 H9         -2.4430    0.8970   -1.0250 h1        1 0YY      0.036700
     32 H10        -3.8730   -1.1730   -1.2520 hc        1 0YY      0.055200
     33 H11        -3.7600   -1.4570    0.5260 hc        1 0YY      0.055200
     34 H12        -4.8410    0.7850    0.9540 hc        1 0YY      0.040200
     35 H13        -4.9540    1.0700   -0.8260 hc        1 0YY      0.040200
     36 H14        -6.3690   -1.0000   -1.0670 hc        1 0YY      0.041200
     37 H15        -6.2560   -1.2840    0.7120 hc        1 0YY      0.041200
     38 H16        -7.3270    0.9560    1.1390 hc        1 0YY      0.039200
     39 H17        -7.4400    1.2400   -0.6400 hc        1 0YY      0.039200
     40 H18        -8.8560   -0.8290   -0.8810 hc        1 0YY      0.039700
     41 H19        -8.7430   -1.1140    0.8970 hc        1 0YY      0.039700
     42 H20        -9.8120    1.1250    1.3240 hc        1 0YY      0.038200
     43 H21        -9.9250    1.4100   -0.4550 hc        1 0YY      0.038200
     44 H22       -11.3720   -0.6370   -0.6930 hc        1 0YY      0.031033
     45 H23       -11.2580   -0.9220    1.0900 hc        1 0YY      0.031033
     46 H24       -12.0850    0.5630    0.4630 hc        1 0YY      0.031033
@<TRIPOS>BOND
     1    1    2 1   
     2    2    3 1   
     3    2    4 1   
     4    4    5 1   
     5    4    6 2   
     6    5   24 1   
     7    6    7 1   
     8    6   25 1   
     9    7    8 2   
    10    7    9 1   
    11    9   10 ar  
    12    9   12 ar  
    13   10   11 ar  
    14   10   26 1   
    15   11   14 ar  
    16   11   27 1   
    17   12   13 ar  
    18   12   28 1   
    19   13   14 ar  
    20   13   29 1   
    21   14   15 1   
    22   15   16 1   
    23   16   17 1   
    24   16   30 1   
    25   16   31 1   
    26   17   18 1   
    27   17   32 1   
    28   17   33 1   
    29   18   19 1   
    30   18   34 1   
    31   18   35 1   
    32   19   20 1   
    33   19   36 1   
    34   19   37 1   
    35   20   21 1   
    36   20   38 1   
    37   20   39 1   
    38   21   22 1   
    39   21   40 1   
    40   21   41 1   
    41   22   23 1   
    42   22   42 1   
    43   22   43 1   
    44   23   44 1   
    45   23   45 1   
    46   23   46 1   
@<TRIPOS>SUBSTRUCTURE
     1 0YY         1 TEMP              0 ****  ****    0 ROOT
