@<TRIPOS>MOLECULE
0YY
   46    38     1     0     0
SMALL
bcc


@<TRIPOS>ATOM
      1 OAB        -3.5970   -0.5570   -8.4240 o         1 0YY     -0.546000
      2 CAS        -4.0760   -0.8610   -7.3010 c1        1 0YY      0.341000
      3 OAD        -4.9210   -0.1060   -6.7510 o         1 0YY     -0.546000
      4 CAU        -3.6590   -2.1490   -6.6240 c1        1 0YY     -0.009000
      5 OAE        -4.0680   -3.3870   -7.1530 o         1 0YY     -0.304000
      6 CAF        -2.8950   -2.1090   -5.5140 c1        1 0YY     -0.188333
      7 CAT        -2.4550   -0.7780   -4.9450 c1        1 0YY      0.366000
      8 OAC        -3.0600    0.2350   -5.2310 o         1 0YY     -0.315000
      9 CAW        -1.2770   -0.7130   -3.9970 c1        1 0YY     -0.009000
     10 CAJ        -0.1570    0.0320   -4.3340 c1        1 0YY     -0.188333
     11 CAH         0.9040    0.1300   -3.4470 c1        1 0YY     -0.188333
     12 CAI        -1.3350   -1.3600   -2.7730 c1        1 0YY     -0.153500
     13 CAG        -0.2740   -1.2630   -1.8860 c1        1 0YY     -0.153500
     14 CAV         0.8450   -0.5180   -2.2230 c1        1 0YY     -0.009000
     15 OAR         1.9490   -0.4760   -1.3530 o         1 0YY     -0.223000
     16 CAQ         1.9170    0.5980   -0.4420 c3        1 0YY     -0.018000
     17 CAP         2.6140    0.1940    0.8380 c3        1 0YY     -0.165000
     18 CAO         2.1980    1.1260    1.9550 c3        1 0YY     -0.155000
     19 CAN         1.4590    0.3410    3.0180 c3        1 0YY     -0.160000
     20 CAM         0.9220    1.2920    4.0640 c3        1 0YY     -0.157000
     21 CAL         1.0970    0.6820    5.4380 c3        1 0YY     -0.158000
     22 CAK         0.6210    1.6600    6.4890 c3        1 0YY     -0.158000
     23 CAA         0.9700    1.1330    7.8630 c3        1 0YY     -0.210000
     24 H2         -4.7720   -3.6850   -6.6980 ho        1 0YY      0.247000
     25 H3         -2.6260   -2.9400   -5.0770 ha        1 0YY      0.159667
     26 H4         -0.1160    0.4880   -5.1970 ha        1 0YY      0.159667
     27 H5          1.6910    0.6570   -3.6830 ha        1 0YY      0.159667
     28 H6         -2.1240   -1.8850   -2.5360 ha        1 0YY      0.124500
     29 H7         -0.3190   -1.7130   -1.0210 ha        1 0YY      0.124500
     30 H8          0.9870    0.8340   -0.2470 h1        1 0YY      0.073500
     31 H9          2.3750    1.3710   -0.8330 h1        1 0YY      0.073500
     32 H10         2.3660   -0.7230    1.0690 hc        1 0YY      0.094000
     33 H11         3.5830    0.2480    0.7130 hc        1 0YY      0.094000
     34 H12         2.9920    1.5390    2.3480 hc        1 0YY      0.077500
     35 H13         1.6110    1.8220    1.5970 hc        1 0YY      0.077500
     36 H14         2.0720   -0.2940    3.4390 hc        1 0YY      0.082500
     37 H15         0.7170   -0.1460    2.6070 hc        1 0YY      0.082500
     38 H16        -0.0290    1.4550    3.8990 hc        1 0YY      0.076500
     39 H17         1.4110    2.1380    4.0190 hc        1 0YY      0.076500
     40 H18         2.0420    0.4780    5.5860 hc        1 0YY      0.080500
     41 H19         0.5720   -0.1420    5.4980 hc        1 0YY      0.080500
     42 H20         1.0570    2.5250    6.3510 hc        1 0YY      0.076000
     43 H21        -0.3490    1.7700    6.4180 hc        1 0YY      0.076000
     44 H22         1.9430    1.1440    7.9800 hc        1 0YY      0.070667
     45 H23         0.5530    1.7000    8.5460 hc        1 0YY      0.070667
     46 H24         0.6400    0.2150    7.9550 hc        1 0YY      0.070667
@<TRIPOS>BOND
     1    1    2 1   
     2    2    3 1   
     3    4    6 1   
     4    5   24 1   
     5    6   25 1   
     6    7    8 1   
     7    9   10 1   
     8   10   26 1   
     9   11   14 1   
    10   11   27 1   
    11   12   13 1   
    12   12   28 1   
    13   13   29 1   
    14   15   16 1   
    15   16   17 1   
    16   16   30 1   
    17   16   31 1   
    18   17   18 1   
    19   17   32 1   
    20   17   33 1   
    21   18   19 1   
    22   18   34 1   
    23   18   35 1   
    24   19   20 1   
    25   19   36 1   
    26   19   37 1   
    27   20   21 1   
    28   20   38 1   
    29   20   39 1   
    30   21   22 1   
    31   21   40 1   
    32   21   41 1   
    33   22   23 1   
    34   22   42 1   
    35   22   43 1   
    36   23   44 1   
    37   23   45 1   
    38   23   46 1   
@<TRIPOS>SUBSTRUCTURE
     1 0YY         1 TEMP              0 ****  ****    0 ROOT
