@<TRIPOS>MOLECULE
0YY
   46    46     1     0     0
SMALL
bcc


@<TRIPOS>ATOM
      1 OAB         0.1630   -1.8100   -0.5290 o         1 0YY     -0.804800
      2 CAS         1.1060   -1.0570   -0.1890 c         1 0YY      0.882800
      3 OAD         1.5370   -0.8820    0.9880 o         1 0YY     -0.804800
      4 CAU         1.8410   -0.2380   -1.2630 ce        1 0YY      0.116900
      5 OAE         2.8260    0.5750   -0.8020 oh        1 0YY     -0.499100
      6 CAF         1.5300   -0.2930   -2.5840 cf        1 0YY     -0.388200
      7 CAT         2.1590    0.4410   -3.6570 c         1 0YY      0.595900
      8 OAC         3.2050    1.1090   -3.5680 o         1 0YY     -0.586100
      9 CAW         1.4750    0.3520   -4.9830 ca        1 0YY     -0.167600
     10 CAJ         2.2420    0.3900   -6.1510 ca        1 0YY     -0.064000
     11 CAH         1.6410    0.3100   -7.4070 ca        1 0YY     -0.198000
     12 CAI         0.0810    0.2490   -5.0800 ca        1 0YY     -0.064000
     13 CAG        -0.5390    0.1770   -6.3220 ca        1 0YY     -0.198000
     14 CAV         0.2480    0.2040   -7.4880 ca        1 0YY      0.119100
     15 OAR        -0.4680    0.1260   -8.6710 os        1 0YY     -0.338900
     16 CAQ         0.3160    0.0980   -9.8670 c3        1 0YY      0.131400
     17 CAP        -0.6760   -0.0350  -11.0110 c3        1 0YY     -0.086400
     18 CAO         0.0520   -0.0680  -12.3360 c3        1 0YY     -0.078400
     19 CAN        -0.9210   -0.2010  -13.4890 c3        1 0YY     -0.078400
     20 CAM        -0.1970   -0.2330  -14.8170 c3        1 0YY     -0.079400
     21 CAL        -1.1690   -0.3660  -15.9700 c3        1 0YY     -0.079400
     22 CAK        -0.4460   -0.3980  -17.3000 c3        1 0YY     -0.080400
     23 CAA        -1.4100   -0.5320  -18.4500 c3        1 0YY     -0.092100
     24 H2          2.8680    0.4530    0.1710 ho        1 0YY      0.447000
     25 H3          0.7160   -0.9870   -2.8530 ha        1 0YY      0.155000
     26 H4          3.3360    0.4910   -6.0670 ha        1 0YY      0.151500
     27 H5          2.2650    0.3360   -8.3090 ha        1 0YY      0.132500
     28 H6         -0.5300    0.2270   -4.1630 ha        1 0YY      0.151500
     29 H7         -1.6310    0.0960   -6.4080 ha        1 0YY      0.132500
     30 H8          0.9040    1.0490   -9.9540 h1        1 0YY      0.036200
     31 H9          1.0180   -0.7760   -9.8400 h1        1 0YY      0.036200
     32 H10        -1.2770   -0.9720  -10.8740 hc        1 0YY      0.055200
     33 H11        -1.3930    0.8260  -10.9820 hc        1 0YY      0.055200
     34 H12         0.6550    0.8710  -12.4590 hc        1 0YY      0.040200
     35 H13         0.7720   -0.9280  -12.3510 hc        1 0YY      0.040200
     36 H14        -1.5230   -1.1390  -13.3650 hc        1 0YY      0.041200
     37 H15        -1.6410    0.6590  -13.4730 hc        1 0YY      0.041200
     38 H16         0.5240   -1.0920  -14.8320 hc        1 0YY      0.039200
     39 H17         0.4060    0.7060  -14.9400 hc        1 0YY      0.039200
     40 H18        -1.7710   -1.3050  -15.8470 hc        1 0YY      0.039700
     41 H19        -1.8900    0.4930  -15.9550 hc        1 0YY      0.039700
     42 H20         0.2760   -1.2570  -17.3110 hc        1 0YY      0.037700
     43 H21         0.1570    0.5400  -17.4200 hc        1 0YY      0.037700
     44 H22        -2.0020   -1.4740  -18.3610 hc        1 0YY      0.031033
     45 H23        -2.1220    0.3280  -18.4700 hc        1 0YY      0.031033
     46 H24        -0.8570   -0.5530  -19.4200 hc        1 0YY      0.031033
@<TRIPOS>BOND
     1    1    2 1   
     2    2    3 1   
     3    2    4 1   
     4    4    5 1   
     5    4    6 2   
     6    5   24 1   
     7    6    7 1   
     8    6   25 1   
     9    7    8 2   
    10    7    9 1   
    11    9   10 ar  
    12    9   12 ar  
    13   10   11 ar  
    14   10   26 1   
    15   11   14 ar  
    16   11   27 1   
    17   12   13 ar  
    18   12   28 1   
    19   13   14 ar  
    20   13   29 1   
    21   14   15 1   
    22   15   16 1   
    23   16   17 1   
    24   16   30 1   
    25   16   31 1   
    26   17   18 1   
    27   17   32 1   
    28   17   33 1   
    29   18   19 1   
    30   18   34 1   
    31   18   35 1   
    32   19   20 1   
    33   19   36 1   
    34   19   37 1   
    35   20   21 1   
    36   20   38 1   
    37   20   39 1   
    38   21   22 1   
    39   21   40 1   
    40   21   41 1   
    41   22   23 1   
    42   22   42 1   
    43   22   43 1   
    44   23   44 1   
    45   23   45 1   
    46   23   46 1   
@<TRIPOS>SUBSTRUCTURE
     1 0YY         1 TEMP              0 ****  ****    0 ROOT
