@<TRIPOS>MOLECULE
0YY
   46    46     1     0     0
SMALL
bcc


@<TRIPOS>ATOM
      1 OAB         0.2120   -1.8570   -0.5410 o         1 0YY     -0.804800
      2 CAS         1.1380   -1.0850   -0.1970 c         1 0YY      0.882800
      3 OAD         1.5670   -0.9080    0.9810 o         1 0YY     -0.804800
      4 CAU         1.8540   -0.2440   -1.2660 ce        1 0YY      0.116900
      5 OAE         2.8220    0.5880   -0.8010 oh        1 0YY     -0.499100
      6 CAF         1.5430   -0.2970   -2.5870 cf        1 0YY     -0.388200
      7 CAT         2.1540    0.4570   -3.6570 c         1 0YY      0.595900
      8 OAC         3.1860    1.1470   -3.5650 o         1 0YY     -0.586100
      9 CAW         1.4700    0.3610   -4.9830 ca        1 0YY     -0.167600
     10 CAJ         2.2350    0.4210   -6.1510 ca        1 0YY     -0.064000
     11 CAH         1.6340    0.3360   -7.4070 ca        1 0YY     -0.198000
     12 CAI         0.0790    0.2290   -5.0790 ca        1 0YY     -0.064000
     13 CAG        -0.5410    0.1500   -6.3200 ca        1 0YY     -0.198000
     14 CAV         0.2440    0.2000   -7.4860 ca        1 0YY      0.119100
     15 OAR        -0.4720    0.1140   -8.6690 os        1 0YY     -0.338900
     16 CAQ         0.3100    0.1060   -9.8660 c3        1 0YY      0.131400
     17 CAP        -0.6800   -0.0440  -11.0090 c3        1 0YY     -0.086400
     18 CAO         0.0470   -0.0590  -12.3350 c3        1 0YY     -0.078400
     19 CAN        -0.9240   -0.2080  -13.4870 c3        1 0YY     -0.078400
     20 CAM        -0.2010   -0.2240  -14.8170 c3        1 0YY     -0.079400
     21 CAL        -1.1710   -0.3710  -15.9690 c3        1 0YY     -0.079400
     22 CAK        -0.4490   -0.3880  -17.2990 c3        1 0YY     -0.080400
     23 CAA        -1.4120   -0.5340  -18.4490 c3        1 0YY     -0.092100
     24 H2          2.8680    0.4600    0.1700 ho        1 0YY      0.447000
     25 H3          0.7440   -1.0070   -2.8590 ha        1 0YY      0.155000
     26 H4          3.3270    0.5450   -6.0680 ha        1 0YY      0.151500
     27 H5          2.2560    0.3800   -8.3100 ha        1 0YY      0.132500
     28 H6         -0.5300    0.1880   -4.1600 ha        1 0YY      0.151500
     29 H7         -1.6310    0.0470   -6.4050 ha        1 0YY      0.132500
     30 H8          1.0310   -0.7540   -9.8430 h1        1 0YY      0.036200
     31 H9          0.8790    1.0690   -9.9510 h1        1 0YY      0.036200
     32 H10        -1.4140    0.8030  -10.9780 hc        1 0YY      0.055200
     33 H11        -1.2620   -0.9920  -10.8740 hc        1 0YY      0.055200
     34 H12         0.6320    0.8900  -12.4570 hc        1 0YY      0.040200
     35 H13         0.7830   -0.9060  -12.3530 hc        1 0YY      0.040200
     36 H14        -1.6600    0.6390  -13.4690 hc        1 0YY      0.041200
     37 H15        -1.5090   -1.1570  -13.3650 hc        1 0YY      0.041200
     38 H16         0.5360   -1.0700  -14.8340 hc        1 0YY      0.039200
     39 H17         0.3850    0.7260  -14.9380 hc        1 0YY      0.039200
     40 H18        -1.7570   -1.3210  -15.8480 hc        1 0YY      0.039200
     41 H19        -1.9070    0.4750  -15.9510 hc        1 0YY      0.039200
     42 H20         0.1380    0.5610  -17.4170 hc        1 0YY      0.037700
     43 H21         0.2870   -1.2340  -17.3140 hc        1 0YY      0.037700
     44 H22        -2.1390    0.3130  -18.4660 hc        1 0YY      0.031033
     45 H23        -1.9880   -1.4870  -18.3620 hc        1 0YY      0.031033
     46 H24        -0.8590   -0.5440  -19.4200 hc        1 0YY      0.031033
@<TRIPOS>BOND
     1    1    2 1   
     2    2    3 1   
     3    2    4 1   
     4    4    5 1   
     5    4    6 2   
     6    5   24 1   
     7    6    7 1   
     8    6   25 1   
     9    7    8 2   
    10    7    9 1   
    11    9   10 ar  
    12    9   12 ar  
    13   10   11 ar  
    14   10   26 1   
    15   11   14 ar  
    16   11   27 1   
    17   12   13 ar  
    18   12   28 1   
    19   13   14 ar  
    20   13   29 1   
    21   14   15 1   
    22   15   16 1   
    23   16   17 1   
    24   16   30 1   
    25   16   31 1   
    26   17   18 1   
    27   17   32 1   
    28   17   33 1   
    29   18   19 1   
    30   18   34 1   
    31   18   35 1   
    32   19   20 1   
    33   19   36 1   
    34   19   37 1   
    35   20   21 1   
    36   20   38 1   
    37   20   39 1   
    38   21   22 1   
    39   21   40 1   
    40   21   41 1   
    41   22   23 1   
    42   22   42 1   
    43   22   43 1   
    44   23   44 1   
    45   23   45 1   
    46   23   46 1   
@<TRIPOS>SUBSTRUCTURE
     1 0YY         1 TEMP              0 ****  ****    0 ROOT
