@<TRIPOS>MOLECULE
0YZ
   52    52     1     0     0
SMALL
bcc


@<TRIPOS>ATOM
      1 OAB         1.0850   -2.2480   -0.6820 o         1 0YZ     -0.803800
      2 CAU         1.9520   -1.3810   -0.4180 c         1 0YZ      0.882800
      3 OAD         2.5630   -1.2440    0.6810 o         1 0YZ     -0.803800
      4 CAW         2.3440   -0.3550   -1.4950 ce        1 0YZ      0.118900
      5 OAE         3.2660    0.5660   -1.1130 oh        1 0YZ     -0.498100
      6 CAF         1.8050   -0.3410   -2.7410 cf        1 0YZ     -0.389200
      7 CAV         2.1020    0.5860   -3.8070 c         1 0YZ      0.591900
      8 OAC         2.9980    1.4480   -3.8020 o         1 0YZ     -0.577100
      9 CAY         1.2330    0.4540   -5.0200 ca        1 0YZ     -0.107600
     10 CAJ         1.7960    0.6260   -6.2850 ca        1 0YZ     -0.118000
     11 CAI        -0.1350    0.1720   -4.8960 ca        1 0YZ     -0.125000
     12 CAG        -0.9290    0.0570   -6.0310 ca        1 0YZ     -0.118000
     13 CAH        -0.3820    0.2150   -7.3060 ca        1 0YZ     -0.205000
     14 CAX         0.9820    0.4980   -7.4250 ca        1 0YZ      0.100100
     15 OAT         1.6410    0.6940   -8.6290 os        1 0YZ     -0.334900
     16 CAS         0.8730    0.4240   -9.8040 c3        1 0YZ      0.132400
     17 CAR         1.8300    0.5870  -10.9730 c3        1 0YZ     -0.086400
     18 CAQ         1.1110    0.3370  -12.2800 c3        1 0YZ     -0.077400
     19 CAP         2.0490    0.4950  -13.4570 c3        1 0YZ     -0.078400
     20 CAO         1.3340    0.2460  -14.7670 c3        1 0YZ     -0.079400
     21 CAN         2.2720    0.4040  -15.9440 c3        1 0YZ     -0.079400
     22 CAM         1.5580    0.1560  -17.2550 c3        1 0YZ     -0.079400
     23 CAL         2.4960    0.3130  -18.4320 c3        1 0YZ     -0.079400
     24 CAK         1.7830    0.0650  -19.7440 c3        1 0YZ     -0.080400
     25 CAA         2.7140    0.2210  -20.9180 c3        1 0YZ     -0.092100
     26 H2          3.5060    0.3640   -0.1830 ho        1 0YZ      0.447000
     27 H3          1.0690   -1.1350   -2.9510 ha        1 0YZ      0.156000
     28 H4          2.8640    0.8680   -6.3900 ha        1 0YZ      0.160000
     29 H5         -0.5730    0.0390   -3.8940 ha        1 0YZ      0.154000
     30 H6         -2.0020   -0.1650   -5.9290 ha        1 0YZ      0.123000
     31 H7         -1.0240    0.1160   -8.1900 ha        1 0YZ      0.122000
     32 H8          0.4630   -0.6200   -9.7620 h1        1 0YZ      0.033200
     33 H9          0.0250    1.1550   -9.8740 h1        1 0YZ      0.033200
     34 H10         2.6840   -0.1300  -10.8560 hc        1 0YZ      0.056200
     35 H11         2.2610    1.6220  -10.9580 hc        1 0YZ      0.056200
     36 H12         0.2540    1.0550  -12.3830 hc        1 0YZ      0.039200
     37 H13         0.6770   -0.6980  -12.2810 hc        1 0YZ      0.039200
     38 H14         2.4830    1.5300  -13.4550 hc        1 0YZ      0.042200
     39 H15         2.9050   -0.2230  -13.3530 hc        1 0YZ      0.042200
     40 H16         0.9000   -0.7880  -14.7690 hc        1 0YZ      0.038700
     41 H17         0.4770    0.9640  -14.8710 hc        1 0YZ      0.038700
     42 H18         3.1290   -0.3140  -15.8410 hc        1 0YZ      0.039700
     43 H19         2.7070    1.4380  -15.9430 hc        1 0YZ      0.039700
     44 H20         1.1230   -0.8790  -17.2560 hc        1 0YZ      0.038700
     45 H21         0.7010    0.8730  -17.3580 hc        1 0YZ      0.038700
     46 H22         2.9310    1.3470  -18.4310 hc        1 0YZ      0.039700
     47 H23         3.3530   -0.4050  -18.3290 hc        1 0YZ      0.039700
     48 H24         0.9260    0.7830  -19.8440 hc        1 0YZ      0.037700
     49 H25         1.3470   -0.9690  -19.7420 hc        1 0YZ      0.037700
     50 H26         2.1680    0.0340  -21.8750 hc        1 0YZ      0.031033
     51 H27         3.5610   -0.5030  -20.8490 hc        1 0YZ      0.031033
     52 H28         3.1390    1.2530  -20.9510 hc        1 0YZ      0.031033
@<TRIPOS>BOND
     1    1    2 1   
     2    2    3 1   
     3    2    4 1   
     4    4    5 1   
     5    4    6 2   
     6    5   26 1   
     7    6    7 1   
     8    6   27 1   
     9    7    8 2   
    10    7    9 1   
    11    9   10 ar  
    12    9   11 ar  
    13   10   14 ar  
    14   10   28 1   
    15   11   12 ar  
    16   11   29 1   
    17   12   13 ar  
    18   12   30 1   
    19   13   14 ar  
    20   13   31 1   
    21   14   15 1   
    22   15   16 1   
    23   16   17 1   
    24   16   32 1   
    25   16   33 1   
    26   17   18 1   
    27   17   34 1   
    28   17   35 1   
    29   18   19 1   
    30   18   36 1   
    31   18   37 1   
    32   19   20 1   
    33   19   38 1   
    34   19   39 1   
    35   20   21 1   
    36   20   40 1   
    37   20   41 1   
    38   21   22 1   
    39   21   42 1   
    40   21   43 1   
    41   22   23 1   
    42   22   44 1   
    43   22   45 1   
    44   23   24 1   
    45   23   46 1   
    46   23   47 1   
    47   24   25 1   
    48   24   48 1   
    49   24   49 1   
    50   25   50 1   
    51   25   51 1   
    52   25   52 1   
@<TRIPOS>SUBSTRUCTURE
     1 0YZ         1 TEMP              0 ****  ****    0 ROOT
