@<TRIPOS>MOLECULE
0YZ
   52    52     1     0     0
SMALL
bcc


@<TRIPOS>ATOM
      1 OAB         1.1210   -2.2590   -0.6890 o         1 0YZ     -0.803800
      2 CAU         1.9730   -1.3790   -0.4230 c         1 0YZ      0.882800
      3 OAD         2.5830   -1.2340    0.6760 o         1 0YZ     -0.803800
      4 CAW         2.3480   -0.3440   -1.4970 ce        1 0YZ      0.118900
      5 OAE         3.2550    0.5910   -1.1130 oh        1 0YZ     -0.498100
      6 CAF         1.8090   -0.3360   -2.7440 cf        1 0YZ     -0.389200
      7 CAV         2.0910    0.5990   -3.8080 c         1 0YZ      0.591900
      8 OAC         2.9720    1.4760   -3.8000 o         1 0YZ     -0.577100
      9 CAY         1.2230    0.4560   -5.0210 ca        1 0YZ     -0.107600
     10 CAJ         1.7830    0.6390   -6.2850 ca        1 0YZ     -0.118000
     11 CAI        -0.1390    0.1500   -4.8970 ca        1 0YZ     -0.125000
     12 CAG        -0.9320    0.0250   -6.0320 ca        1 0YZ     -0.118000
     13 CAH        -0.3870    0.1950   -7.3070 ca        1 0YZ     -0.204000
     14 CAX         0.9720    0.5010   -7.4250 ca        1 0YZ      0.100100
     15 OAT         1.6270    0.7120   -8.6290 os        1 0YZ     -0.334900
     16 CAS         0.8650    0.4240   -9.8040 c3        1 0YZ      0.132400
     17 CAR         1.8200    0.6020  -10.9730 c3        1 0YZ     -0.086400
     18 CAQ         1.1070    0.3350  -12.2800 c3        1 0YZ     -0.077400
     19 CAP         2.0440    0.5070  -13.4560 c3        1 0YZ     -0.078400
     20 CAO         1.3350    0.2410  -14.7670 c3        1 0YZ     -0.079400
     21 CAN         2.2720    0.4120  -15.9430 c3        1 0YZ     -0.079400
     22 CAM         1.5640    0.1460  -17.2540 c3        1 0YZ     -0.079400
     23 CAL         2.5010    0.3180  -18.4300 c3        1 0YZ     -0.079400
     24 CAK         1.7940    0.0510  -19.7420 c3        1 0YZ     -0.080400
     25 CAA         2.7230    0.2210  -20.9160 c3        1 0YZ     -0.092100
     26 H2          3.4990    0.3910   -0.1850 ho        1 0YZ      0.447000
     27 H3          1.0860   -1.1410   -2.9560 ha        1 0YZ      0.156000
     28 H4          2.8470    0.9000   -6.3900 ha        1 0YZ      0.160000
     29 H5         -0.5750    0.0080   -3.8950 ha        1 0YZ      0.154000
     30 H6         -2.0010   -0.2150   -5.9310 ha        1 0YZ      0.123000
     31 H7         -1.0280    0.0880   -8.1910 ha        1 0YZ      0.122000
     32 H8          0.4750   -0.6270   -9.7600 h1        1 0YZ      0.033200
     33 H9          0.0040    1.1400   -9.8770 h1        1 0YZ      0.033200
     34 H10         2.6870   -0.0990  -10.8530 hc        1 0YZ      0.056200
     35 H11         2.2320    1.6440  -10.9600 hc        1 0YZ      0.056200
     36 H12         0.2380    1.0370  -12.3860 hc        1 0YZ      0.039200
     37 H13         0.6930   -0.7080  -12.2780 hc        1 0YZ      0.039200
     38 H14         2.4590    1.5490  -13.4570 hc        1 0YZ      0.042200
     39 H15         2.9140   -0.1940  -13.3490 hc        1 0YZ      0.042200
     40 H16         0.9210   -0.8020  -14.7650 hc        1 0YZ      0.038700
     41 H17         0.4660    0.9410  -14.8730 hc        1 0YZ      0.038700
     42 H18         3.1420   -0.2880  -15.8360 hc        1 0YZ      0.040200
     43 H19         2.6870    1.4550  -15.9440 hc        1 0YZ      0.040200
     44 H20         1.1500   -0.8970  -17.2520 hc        1 0YZ      0.038700
     45 H21         0.6940    0.8460  -17.3600 hc        1 0YZ      0.038700
     46 H22         2.9150    1.3600  -18.4320 hc        1 0YZ      0.039700
     47 H23         3.3710   -0.3830  -18.3230 hc        1 0YZ      0.039700
     48 H24         0.9230    0.7510  -19.8460 hc        1 0YZ      0.037700
     49 H25         1.3790   -0.9920  -19.7370 hc        1 0YZ      0.037700
     50 H26         2.1820    0.0200  -21.8720 hc        1 0YZ      0.031033
     51 H27         3.5840   -0.4860  -20.8430 hc        1 0YZ      0.031033
     52 H28         3.1270    1.2620  -20.9510 hc        1 0YZ      0.031033
@<TRIPOS>BOND
     1    1    2 1   
     2    2    3 1   
     3    2    4 1   
     4    4    5 1   
     5    4    6 2   
     6    5   26 1   
     7    6    7 1   
     8    6   27 1   
     9    7    8 2   
    10    7    9 1   
    11    9   10 ar  
    12    9   11 ar  
    13   10   14 ar  
    14   10   28 1   
    15   11   12 ar  
    16   11   29 1   
    17   12   13 ar  
    18   12   30 1   
    19   13   14 ar  
    20   13   31 1   
    21   14   15 1   
    22   15   16 1   
    23   16   17 1   
    24   16   32 1   
    25   16   33 1   
    26   17   18 1   
    27   17   34 1   
    28   17   35 1   
    29   18   19 1   
    30   18   36 1   
    31   18   37 1   
    32   19   20 1   
    33   19   38 1   
    34   19   39 1   
    35   20   21 1   
    36   20   40 1   
    37   20   41 1   
    38   21   22 1   
    39   21   42 1   
    40   21   43 1   
    41   22   23 1   
    42   22   44 1   
    43   22   45 1   
    44   23   24 1   
    45   23   46 1   
    46   23   47 1   
    47   24   25 1   
    48   24   48 1   
    49   24   49 1   
    50   25   50 1   
    51   25   51 1   
    52   25   52 1   
@<TRIPOS>SUBSTRUCTURE
     1 0YZ         1 TEMP              0 ****  ****    0 ROOT
