@<TRIPOS>MOLECULE
0YZ
   52    52     1     0     0
SMALL
bcc


@<TRIPOS>ATOM
      1 OAB         1.0720   -2.2190   -0.6630 o         1 0YZ     -0.803800
      2 CAU         1.9400   -1.3530   -0.4040 c         1 0YZ      0.882800
      3 OAD         2.5490   -1.2090    0.6960 o         1 0YZ     -0.803800
      4 CAW         2.3370   -0.3360   -1.4870 ce        1 0YZ      0.118900
      5 OAE         3.2610    0.5860   -1.1090 oh        1 0YZ     -0.499100
      6 CAF         1.8020   -0.3300   -2.7350 cf        1 0YZ     -0.389200
      7 CAV         2.1040    0.5890   -3.8070 c         1 0YZ      0.591900
      8 OAC         3.0030    1.4480   -3.8060 o         1 0YZ     -0.577100
      9 CAY         1.2360    0.4510   -5.0210 ca        1 0YZ     -0.107600
     10 CAJ         1.8020    0.6140   -6.2850 ca        1 0YZ     -0.118000
     11 CAI        -0.1320    0.1720   -4.8960 ca        1 0YZ     -0.125000
     12 CAG        -0.9250    0.0520   -6.0330 ca        1 0YZ     -0.118000
     13 CAH        -0.3750    0.2010   -7.3070 ca        1 0YZ     -0.205000
     14 CAX         0.9900    0.4810   -7.4260 ca        1 0YZ      0.101100
     15 OAT         1.6510    0.6670   -8.6300 os        1 0YZ     -0.334900
     16 CAS         0.8810    0.4040   -9.8050 c3        1 0YZ      0.132400
     17 CAR         1.8380    0.5650  -10.9740 c3        1 0YZ     -0.086400
     18 CAQ         1.1160    0.3230  -12.2810 c3        1 0YZ     -0.077400
     19 CAP         2.0540    0.4810  -13.4590 c3        1 0YZ     -0.078400
     20 CAO         1.3350    0.2400  -14.7690 c3        1 0YZ     -0.079400
     21 CAN         2.2730    0.4000  -15.9470 c3        1 0YZ     -0.079400
     22 CAM         1.5550    0.1600  -17.2580 c3        1 0YZ     -0.079400
     23 CAL         2.4920    0.3210  -18.4350 c3        1 0YZ     -0.079400
     24 CAK         1.7760    0.0800  -19.7470 c3        1 0YZ     -0.080400
     25 CAA         2.7040    0.2400  -20.9230 c3        1 0YZ     -0.092100
     26 H2          3.4990    0.3900   -0.1780 ho        1 0YZ      0.447000
     27 H3          1.0640   -1.1230   -2.9410 ha        1 0YZ      0.156000
     28 H4          2.8700    0.8530   -6.3900 ha        1 0YZ      0.160000
     29 H5         -0.5730    0.0470   -3.8940 ha        1 0YZ      0.154000
     30 H6         -1.9980   -0.1670   -5.9310 ha        1 0YZ      0.123000
     31 H7         -1.0160    0.0980   -8.1920 ha        1 0YZ      0.122000
     32 H8          0.0370    1.1400   -9.8730 h1        1 0YZ      0.033700
     33 H9          0.4660   -0.6370   -9.7650 h1        1 0YZ      0.033700
     34 H10         2.2740    1.5980  -10.9570 hc        1 0YZ      0.056200
     35 H11         2.6880   -0.1560  -10.8600 hc        1 0YZ      0.056200
     36 H12         0.2620    1.0450  -12.3810 hc        1 0YZ      0.039200
     37 H13         0.6780   -0.7100  -12.2850 hc        1 0YZ      0.039200
     38 H14         2.9070   -0.2410  -13.3590 hc        1 0YZ      0.041700
     39 H15         2.4930    1.5140  -13.4540 hc        1 0YZ      0.041700
     40 H16         0.8980   -0.7930  -14.7740 hc        1 0YZ      0.038700
     41 H17         0.4810    0.9610  -14.8680 hc        1 0YZ      0.038700
     42 H18         3.1270   -0.3210  -15.8480 hc        1 0YZ      0.039700
     43 H19         2.7110    1.4330  -15.9420 hc        1 0YZ      0.039700
     44 H20         0.7000    0.8790  -17.3560 hc        1 0YZ      0.038700
     45 H21         1.1190   -0.8740  -17.2630 hc        1 0YZ      0.038700
     46 H22         3.3470   -0.3990  -18.3370 hc        1 0YZ      0.039700
     47 H23         2.9290    1.3540  -18.4300 hc        1 0YZ      0.039700
     48 H24         0.9200    0.7990  -19.8420 hc        1 0YZ      0.037700
     49 H25         1.3390   -0.9540  -19.7500 hc        1 0YZ      0.037700
     50 H26         3.1310    1.2720  -20.9510 hc        1 0YZ      0.031033
     51 H27         3.5510   -0.4860  -20.8580 hc        1 0YZ      0.031033
     52 H28         2.1570    0.0580  -21.8790 hc        1 0YZ      0.031033
@<TRIPOS>BOND
     1    1    2 1   
     2    2    3 1   
     3    2    4 1   
     4    4    5 1   
     5    4    6 2   
     6    5   26 1   
     7    6    7 1   
     8    6   27 1   
     9    7    8 2   
    10    7    9 1   
    11    9   10 ar  
    12    9   11 ar  
    13   10   14 ar  
    14   10   28 1   
    15   11   12 ar  
    16   11   29 1   
    17   12   13 ar  
    18   12   30 1   
    19   13   14 ar  
    20   13   31 1   
    21   14   15 1   
    22   15   16 1   
    23   16   17 1   
    24   16   32 1   
    25   16   33 1   
    26   17   18 1   
    27   17   34 1   
    28   17   35 1   
    29   18   19 1   
    30   18   36 1   
    31   18   37 1   
    32   19   20 1   
    33   19   38 1   
    34   19   39 1   
    35   20   21 1   
    36   20   40 1   
    37   20   41 1   
    38   21   22 1   
    39   21   42 1   
    40   21   43 1   
    41   22   23 1   
    42   22   44 1   
    43   22   45 1   
    44   23   24 1   
    45   23   46 1   
    46   23   47 1   
    47   24   25 1   
    48   24   48 1   
    49   24   49 1   
    50   25   50 1   
    51   25   51 1   
    52   25   52 1   
@<TRIPOS>SUBSTRUCTURE
     1 0YZ         1 TEMP              0 ****  ****    0 ROOT
