@<TRIPOS>MOLECULE
0YZ
   52    44     1     0     0
SMALL
bcc


@<TRIPOS>ATOM
      1 OAB         1.5940   -4.6020    8.4630 o         1 0YZ     -0.546000
      2 CAU         1.5730   -5.3180    7.4280 c1        1 0YZ      0.342000
      3 OAD         2.5580   -6.0520    7.1510 o         1 0YZ     -0.546000
      4 CAW         0.3520   -5.3220    6.5360 c1        1 0YZ      0.007333
      5 OAE        -0.7500   -6.1370    6.8550 o         1 0YZ     -0.303000
      6 CAF         0.3190   -4.5450    5.4350 c1        1 0YZ     -0.230000
      7 CAV         1.5030   -3.6680    5.0930 c1        1 0YZ      0.363000
      8 OAC         2.1750   -3.1810    5.9800 o         1 0YZ     -0.309000
      9 CAY         1.8770   -3.4340    3.6450 c1        1 0YZ      0.007333
     10 CAJ         2.0010   -2.1410    3.1620 c1        1 0YZ     -0.230000
     11 CAI         2.1070   -4.5120    2.8050 c1        1 0YZ     -0.116500
     12 CAG         2.4610   -4.2980    1.4830 c1        1 0YZ     -0.116500
     13 CAH         2.5850   -3.0050    0.9990 c1        1 0YZ     -0.230000
     14 CAX         2.3550   -1.9260    1.8390 c1        1 0YZ      0.007333
     15 OAT         2.5710   -0.6160    1.3740 o         1 0YZ     -0.228000
     16 CAS         1.4070    0.0190    0.8970 c3        1 0YZ     -0.020000
     17 CAR         1.7450    0.8310   -0.3350 c3        1 0YZ     -0.164000
     18 CAQ         0.7790    1.9890   -0.4560 c3        1 0YZ     -0.157000
     19 CAP         0.9190    2.6230   -1.8230 c3        1 0YZ     -0.156000
     20 CAO        -0.2600    3.5340   -2.0800 c3        1 0YZ     -0.158000
     21 CAN        -0.5310    3.6020   -3.5670 c3        1 0YZ     -0.157000
     22 CAM        -1.9220    4.1460   -3.8020 c3        1 0YZ     -0.158000
     23 CAL        -2.5330    3.4640   -5.0060 c3        1 0YZ     -0.158000
     24 CAK        -4.0200    3.7430   -5.0430 c3        1 0YZ     -0.159000
     25 CAA        -4.6750    2.8460   -6.0690 c3        1 0YZ     -0.210000
     26 H2         -1.3600   -5.6550    7.2870 ho        1 0YZ      0.247000
     27 H3         -0.4700   -4.5470    4.8600 ha        1 0YZ      0.131000
     28 H4          1.8390   -1.3810    3.7530 ha        1 0YZ      0.131000
     29 H5          2.0150   -5.4230    3.1450 ha        1 0YZ      0.166500
     30 H6          2.6230   -5.0580    0.8920 ha        1 0YZ      0.166500
     31 H7          2.8340   -2.8540    0.0680 ha        1 0YZ      0.131000
     32 H8          0.7360   -0.6570    0.6690 h1        1 0YZ      0.078000
     33 H9          1.0510    0.6120    1.5910 h1        1 0YZ      0.078000
     34 H10         1.6740    0.2630   -1.1290 hc        1 0YZ      0.091000
     35 H11         2.6580    1.1740   -0.2600 hc        1 0YZ      0.091000
     36 H12        -0.1360    1.6640   -0.3400 hc        1 0YZ      0.081000
     37 H13         0.9790    2.6540    0.2330 hc        1 0YZ      0.081000
     38 H14         1.7470    3.1420   -1.8580 hc        1 0YZ      0.079000
     39 H15         0.9450    1.9220   -2.5060 hc        1 0YZ      0.079000
     40 H16        -0.0580    4.4310   -1.7440 hc        1 0YZ      0.079500
     41 H17        -1.0490    3.1840   -1.6200 hc        1 0YZ      0.079500
     42 H18        -0.4620    2.7060   -3.9520 hc        1 0YZ      0.078000
     43 H19         0.1250    4.1910   -3.9910 hc        1 0YZ      0.078000
     44 H20        -2.4770    3.9750   -3.0140 hc        1 0YZ      0.079000
     45 H21        -1.8730    5.1090   -3.9630 hc        1 0YZ      0.079000
     46 H22        -2.3840    2.5000   -4.9450 hc        1 0YZ      0.078000
     47 H23        -2.1170    3.8080   -5.8210 hc        1 0YZ      0.078000
     48 H24        -4.4060    3.5670   -4.1620 hc        1 0YZ      0.078000
     49 H25        -4.1700    4.6790   -5.2840 hc        1 0YZ      0.078000
     50 H26        -4.3650    1.9250   -5.9450 hc        1 0YZ      0.070333
     51 H27        -4.4380    3.1510   -6.9700 hc        1 0YZ      0.070333
     52 H28        -5.6490    2.8800   -5.9590 hc        1 0YZ      0.070333
@<TRIPOS>BOND
     1    1    2 1   
     2    2    3 1   
     3    4    6 1   
     4    5   26 1   
     5    6   27 1   
     6    7    8 1   
     7    9   10 1   
     8   10   28 1   
     9   11   12 1   
    10   11   29 1   
    11   12   30 1   
    12   13   14 1   
    13   13   31 1   
    14   15   16 1   
    15   16   17 1   
    16   16   32 1   
    17   16   33 1   
    18   17   18 1   
    19   17   34 1   
    20   17   35 1   
    21   18   19 1   
    22   18   36 1   
    23   18   37 1   
    24   19   20 1   
    25   19   38 1   
    26   19   39 1   
    27   20   21 1   
    28   20   40 1   
    29   20   41 1   
    30   21   22 1   
    31   21   42 1   
    32   21   43 1   
    33   22   23 1   
    34   22   44 1   
    35   22   45 1   
    36   23   24 1   
    37   23   46 1   
    38   23   47 1   
    39   24   25 1   
    40   24   48 1   
    41   24   49 1   
    42   25   50 1   
    43   25   51 1   
    44   25   52 1   
@<TRIPOS>SUBSTRUCTURE
     1 0YZ         1 TEMP              0 ****  ****    0 ROOT
