@<TRIPOS>MOLECULE
0YZ
   52    52     1     0     0
SMALL
bcc


@<TRIPOS>ATOM
      1 OAB         8.8170   -0.6000    0.8690 o         1 0YZ     -0.790800
      2 CAU         8.0700    0.2620    1.3910 c         1 0YZ      0.926800
      3 OAD         8.1180    0.7040    2.5640 o         1 0YZ     -0.790800
      4 CAW         6.9360    0.8190    0.4900 ce        1 0YZ      0.180900
      5 OAE         7.2790    1.9560   -0.1460 oh        1 0YZ     -0.480100
      6 CAF         5.7300    0.1840    0.3720 cf        1 0YZ     -0.473200
      7 CAV         4.6320    0.6140   -0.4450 c         1 0YZ      0.595900
      8 OAC         4.6150    1.6730   -1.1140 o         1 0YZ     -0.643100
      9 CAY         3.4380   -0.2820   -0.4740 ca        1 0YZ     -0.099600
     10 CAJ         2.1630    0.2810   -0.5000 ca        1 0YZ     -0.116000
     11 CAI         3.5900   -1.6760   -0.4820 ca        1 0YZ     -0.125000
     12 CAG         2.4690   -2.4980   -0.5100 ca        1 0YZ     -0.118000
     13 CAH         1.1830   -1.9540   -0.5250 ca        1 0YZ     -0.203000
     14 CAX         1.0380   -0.5630   -0.5190 ca        1 0YZ      0.102100
     15 OAT        -0.1800    0.0990   -0.5510 os        1 0YZ     -0.333900
     16 CAS        -1.3370   -0.7300   -0.4150 c3        1 0YZ      0.131400
     17 CAR        -2.5220    0.2180   -0.3510 c3        1 0YZ     -0.086400
     18 CAQ        -3.8120   -0.5610   -0.2230 c3        1 0YZ     -0.077400
     19 CAP        -5.0050    0.3690   -0.1560 c3        1 0YZ     -0.078400
     20 CAO        -6.2990   -0.4070   -0.0270 c3        1 0YZ     -0.079400
     21 CAN        -7.4920    0.5230    0.0400 c3        1 0YZ     -0.079400
     22 CAM        -8.7860   -0.2520    0.1680 c3        1 0YZ     -0.079400
     23 CAL        -9.9790    0.6770    0.2350 c3        1 0YZ     -0.079400
     24 CAK       -11.2740   -0.0960    0.3640 c3        1 0YZ     -0.080400
     25 CAA       -12.4640    0.8250    0.4310 c3        1 0YZ     -0.092100
     26 H2          6.5430    2.2760   -0.6980 ho        1 0YZ      0.430000
     27 H3          5.5920   -0.7340    0.9630 ha        1 0YZ      0.148000
     28 H4          2.0360    1.3740   -0.5150 ha        1 0YZ      0.161000
     29 H5          4.6010   -2.1130   -0.4670 ha        1 0YZ      0.155000
     30 H6          2.5920   -3.5910   -0.5170 ha        1 0YZ      0.124000
     31 H7          0.3110   -2.6190   -0.5420 ha        1 0YZ      0.124000
     32 H8         -1.4150   -1.4120   -1.3030 h1        1 0YZ      0.033700
     33 H9         -1.2610   -1.3430    0.5210 h1        1 0YZ      0.033700
     34 H10        -2.3970    0.9100    0.5220 hc        1 0YZ      0.056700
     35 H11        -2.5410    0.8520   -1.2760 hc        1 0YZ      0.056700
     36 H12        -3.9240   -1.2540   -1.0980 hc        1 0YZ      0.039200
     37 H13        -3.7790   -1.1970    0.7010 hc        1 0YZ      0.039200
     38 H14        -4.8930    1.0620    0.7190 hc        1 0YZ      0.042200
     39 H15        -5.0380    1.0050   -1.0790 hc        1 0YZ      0.042200
     40 H16        -6.4110   -1.1000   -0.9020 hc        1 0YZ      0.038700
     41 H17        -6.2660   -1.0430    0.8960 hc        1 0YZ      0.038700
     42 H18        -7.3800    1.2160    0.9150 hc        1 0YZ      0.040200
     43 H19        -7.5250    1.1590   -0.8840 hc        1 0YZ      0.040200
     44 H20        -8.8980   -0.9450   -0.7070 hc        1 0YZ      0.038700
     45 H21        -8.7530   -0.8880    1.0920 hc        1 0YZ      0.038700
     46 H22        -9.8670    1.3710    1.1100 hc        1 0YZ      0.039700
     47 H23       -10.0120    1.3140   -0.6880 hc        1 0YZ      0.039700
     48 H24       -11.3830   -0.7900   -0.5110 hc        1 0YZ      0.037700
     49 H25       -11.2380   -0.7330    1.2870 hc        1 0YZ      0.037700
     50 H26       -12.3850    1.5080    1.3120 hc        1 0YZ      0.031367
     51 H27       -12.5310    1.4510   -0.4910 hc        1 0YZ      0.031367
     52 H28       -13.4080    0.2350    0.5260 hc        1 0YZ      0.031367
@<TRIPOS>BOND
     1    1    2 1   
     2    2    3 1   
     3    2    4 1   
     4    4    5 1   
     5    4    6 2   
     6    5   26 1   
     7    6    7 1   
     8    6   27 1   
     9    7    8 2   
    10    7    9 1   
    11    9   10 ar  
    12    9   11 ar  
    13   10   14 ar  
    14   10   28 1   
    15   11   12 ar  
    16   11   29 1   
    17   12   13 ar  
    18   12   30 1   
    19   13   14 ar  
    20   13   31 1   
    21   14   15 1   
    22   15   16 1   
    23   16   17 1   
    24   16   32 1   
    25   16   33 1   
    26   17   18 1   
    27   17   34 1   
    28   17   35 1   
    29   18   19 1   
    30   18   36 1   
    31   18   37 1   
    32   19   20 1   
    33   19   38 1   
    34   19   39 1   
    35   20   21 1   
    36   20   40 1   
    37   20   41 1   
    38   21   22 1   
    39   21   42 1   
    40   21   43 1   
    41   22   23 1   
    42   22   44 1   
    43   22   45 1   
    44   23   24 1   
    45   23   46 1   
    46   23   47 1   
    47   24   25 1   
    48   24   48 1   
    49   24   49 1   
    50   25   50 1   
    51   25   51 1   
    52   25   52 1   
@<TRIPOS>SUBSTRUCTURE
     1 0YZ         1 TEMP              0 ****  ****    0 ROOT
