@<TRIPOS>MOLECULE
0Z0
   52    53     1     0     0
SMALL
bcc


@<TRIPOS>ATOM
      1 C1         -4.1830   -1.0320    1.2220 c         1 0Z0      0.646100
      2 C2         -5.4000   -1.9900    1.5570 c3        1 0Z0      0.551900
      3 O          -3.5200   -0.5810    2.1600 o         1 0Z0     -0.524100
      4 F1         -5.3910   -2.4280    2.8490 f         1 0Z0     -0.222300
      5 F2         -6.6180   -1.3900    1.3750 f         1 0Z0     -0.222300
      6 F3         -5.4420   -3.1200    0.7830 f         1 0Z0     -0.222300
      7 N          -4.0550   -0.7300   -0.1160 n         1 0Z0     -0.511900
      8 CA         -2.9070   -0.0740   -0.6950 c3        1 0Z0      0.050700
      9 C          -1.7110   -1.0450   -0.8850 c         1 0Z0      0.621100
     10 O1         -1.6160   -2.1120   -0.2510 o         1 0Z0     -0.589100
     11 CB         -2.4030    1.1650    0.0680 c3        1 0Z0     -0.047100
     12 CG         -3.4090    2.2610    0.0650 ca        1 0Z0     -0.091300
     13 CD1        -4.1530    2.5370    1.2180 ca        1 0Z0     -0.121000
     14 CD2        -3.6000    3.0420   -1.0810 ca        1 0Z0     -0.121000
     15 CE1        -5.0780    3.5800    1.2220 ca        1 0Z0     -0.127000
     16 CE2        -4.5250    4.0830   -1.0750 ca        1 0Z0     -0.127000
     17 CZ         -5.2660    4.3540    0.0770 ca        1 0Z0     -0.124000
     18 N1         -0.7870   -0.7000   -1.8580 n         1 0Z0     -0.547900
     19 CA1         0.4500   -1.4270   -2.0100 c3        1 0Z0      0.032700
     20 C3          1.6470   -0.6100   -1.4420 c         1 0Z0      0.639100
     21 O2          1.7090    0.6190   -1.6290 o         1 0Z0     -0.590100
     22 CB1         0.7880   -1.7260   -3.4720 c3        1 0Z0     -0.105100
     23 N2          2.6130   -1.3390   -0.7700 n         1 0Z0     -0.461100
     24 C11         3.7950   -0.8560   -0.1890 ca        1 0Z0      0.097600
     25 C21         4.2410    0.4760   -0.3370 ca        1 0Z0     -0.176500
     26 C31         5.4320    0.8840    0.2550 ca        1 0Z0     -0.052500
     27 C4          6.1990   -0.0140    0.9980 ca        1 0Z0     -0.199300
     28 C5          5.7710   -1.3340    1.1540 ca        1 0Z0     -0.052500
     29 C6          4.5850   -1.7570    0.5710 ca        1 0Z0     -0.176500
     30 C7          7.4910    0.4470    1.6530 c3        1 0Z0      0.692200
     31 F11         7.3370    0.9260    2.9330 f         1 0Z0     -0.237967
     32 F21         8.4490   -0.5310    1.7780 f         1 0Z0     -0.237967
     33 F31         8.1370    1.4650    0.9930 f         1 0Z0     -0.237967
     34 H          -4.5600   -1.3150   -0.7490 hn        1 0Z0      0.326500
     35 HA         -3.2490    0.2700   -1.7220 h1        1 0Z0      0.084700
     36 HB2        -2.1330    0.8810    1.1220 hc        1 0Z0      0.081200
     37 HB3        -1.4660    1.5280   -0.4350 hc        1 0Z0      0.081200
     38 HD1        -4.0050    1.9210    2.1210 ha        1 0Z0      0.136500
     39 HD2        -3.0120    2.8360   -1.9880 ha        1 0Z0      0.136500
     40 HE1        -5.6590    3.7920    2.1310 ha        1 0Z0      0.135000
     41 HE2        -4.6700    4.6940   -1.9780 ha        1 0Z0      0.135000
     42 HZ         -5.9950    5.1770    0.0810 ha        1 0Z0      0.134000
     43 H1         -0.7840    0.2310   -2.2110 hn        1 0Z0      0.323500
     44 HA1         0.3380   -2.4080   -1.4540 h1        1 0Z0      0.101700
     45 HB1         1.7350   -2.3160   -3.5100 hc        1 0Z0      0.056367
     46 HB21       -0.0280   -2.3240   -3.9440 hc        1 0Z0      0.056367
     47 HB31        0.9270   -0.7820   -4.0510 hc        1 0Z0      0.056367
     48 HN1         2.4250   -2.3060   -0.6160 hn        1 0Z0      0.325500
     49 H2          3.6540    1.2080   -0.9170 ha        1 0Z0      0.160500
     50 H3          5.7740    1.9250    0.1300 ha        1 0Z0      0.154000
     51 H5          6.3800   -2.0420    1.7390 ha        1 0Z0      0.154000
     52 H6          4.2670   -2.8020    0.7090 ha        1 0Z0      0.160500
@<TRIPOS>BOND
     1    1    2 1   
     2    1    3 2   
     3    1    7 1   
     4    2    4 1   
     5    2    5 1   
     6    2    6 1   
     7    7    8 1   
     8    7   34 1   
     9    8    9 1   
    10    8   11 1   
    11    8   35 1   
    12    9   10 2   
    13    9   18 1   
    14   11   12 1   
    15   11   36 1   
    16   11   37 1   
    17   12   13 ar  
    18   12   14 ar  
    19   13   15 ar  
    20   13   38 1   
    21   14   16 ar  
    22   14   39 1   
    23   15   17 ar  
    24   15   40 1   
    25   16   17 ar  
    26   16   41 1   
    27   17   42 1   
    28   18   19 1   
    29   18   43 1   
    30   19   20 1   
    31   19   22 1   
    32   19   44 1   
    33   20   21 2   
    34   20   23 1   
    35   22   45 1   
    36   22   46 1   
    37   22   47 1   
    38   23   24 1   
    39   23   48 1   
    40   24   25 ar  
    41   24   29 ar  
    42   25   26 ar  
    43   25   49 1   
    44   26   27 ar  
    45   26   50 1   
    46   27   28 ar  
    47   27   30 1   
    48   28   29 ar  
    49   28   51 1   
    50   29   52 1   
    51   30   31 1   
    52   30   32 1   
    53   30   33 1   
@<TRIPOS>SUBSTRUCTURE
     1 0Z0         1 TEMP              0 ****  ****    0 ROOT
