@<TRIPOS>MOLECULE
0Z0
   52    48     1     0     0
SMALL
bcc


@<TRIPOS>ATOM
      1 C1          3.4990   -0.6140   -2.4800 c1        1 0Z0      0.276000
      2 C2          4.8320   -0.4860   -3.1650 c2        1 0Z0      0.401000
      3 O           2.4880   -0.2150   -3.0310 o         1 0Z0     -0.316000
      4 F1          4.7630    0.5120   -4.1380 f         1 0Z0     -0.146333
      5 F2          5.7610   -0.1690   -2.2580 f         1 0Z0     -0.146333
      6 F3          5.1520   -1.6380   -3.7340 f         1 0Z0     -0.146333
      7 N           3.4410   -1.0820   -1.1190 n3        1 0Z0     -0.343000
      8 CA          2.1970   -1.3330   -0.5180 c3        1 0Z0      0.017000
      9 C           1.7710   -0.1400    0.2590 c2        1 0Z0      0.291000
     10 O1          2.4180    0.2090    1.2690 o         1 0Z0     -0.387000
     11 CB          2.3070   -2.5530    0.4330 c3        1 0Z0     -0.128000
     12 CG          2.4650   -3.8720   -0.4120 c2        1 0Z0     -0.097000
     13 CD1         3.6230   -4.6510   -0.2790 c2        1 0Z0     -0.132000
     14 CD2         1.4100   -4.3240   -1.2100 c1        1 0Z0     -0.121000
     15 CE1         3.7210   -5.8960   -0.9540 c1        1 0Z0     -0.123000
     16 CE2         1.5150   -5.5840   -1.8900 c1        1 0Z0     -0.121500
     17 CZ          2.6550   -6.3490   -1.7580 c1        1 0Z0     -0.121500
     18 N1          0.5330    0.4810   -0.0350 n         1 0Z0     -0.367000
     19 CA1         0.2470    1.7720    0.4770 c3        1 0Z0      0.012000
     20 C3         -1.2440    1.9360    0.6190 c2        1 0Z0      0.288000
     21 O2         -1.9980    1.3590   -0.1490 o         1 0Z0     -0.339000
     22 CB1         0.8040    2.8500   -0.4920 c3        1 0Z0     -0.219000
     23 N2         -1.7770    2.8100    1.6350 n         1 0Z0     -0.323000
     24 C11        -3.1810    3.0040    1.7440 c2        1 0Z0      0.111000
     25 C21        -3.8020    3.9800    0.9790 c2        1 0Z0     -0.171000
     26 C31        -5.1440    4.2310    1.1420 c1        1 0Z0     -0.053000
     27 C4         -5.8780    3.5040    2.0770 c1        1 0Z0     -0.199000
     28 C5         -5.2490    2.5170    2.8510 c1        1 0Z0     -0.054000
     29 C6         -3.9260    2.2690    2.6900 c1        1 0Z0     -0.192000
     30 C7         -7.3670    3.7900    2.2720 c3        1 0Z0      0.471000
     31 F11        -8.0090    2.6360    2.6090 f         1 0Z0     -0.168667
     32 F21        -7.5320    4.7160    3.2740 f         1 0Z0     -0.168667
     33 F31        -7.8890    4.2790    1.1150 f         1 0Z0     -0.168667
     34 H           4.1980   -1.2930   -0.6880 hn        1 0Z0      0.256000
     35 HA          1.5340   -1.5210   -1.2100 h1        1 0Z0      0.131000
     36 HB2         1.5280   -2.6070    0.9570 hc        1 0Z0      0.121000
     37 HB3         3.0710   -2.4490    1.0050 hc        1 0Z0      0.121000
     38 HD1         4.4250   -4.3090    0.3210 ha        1 0Z0      0.130000
     39 HD2         0.6020   -3.7840   -1.3050 ha        1 0Z0      0.134000
     40 HE1         4.5640   -6.4640   -0.8580 ha        1 0Z0      0.138000
     41 HE2         0.8320   -5.8780   -2.4070 ha        1 0Z0      0.138000
     42 HZ          2.7180   -7.1520   -2.1940 ha        1 0Z0      0.138000
     43 H1         -0.1450   -0.0020   -0.5500 hn        1 0Z0      0.262000
     44 HA1         0.6470    1.8720    1.3090 h1        1 0Z0      0.127000
     45 HB1         1.3450    3.5260    0.0310 hc        1 0Z0      0.100333
     46 HB21        1.3510    2.4410   -1.1300 hc        1 0Z0      0.100333
     47 HB31        0.0490    3.3100   -0.9510 hc        1 0Z0      0.100333
     48 HN1        -1.1650    3.2630    2.2710 hn        1 0Z0      0.260000
     49 H2         -3.2800    4.4950    0.3160 ha        1 0Z0      0.180000
     50 H3         -5.5960    4.9420    0.5860 ha        1 0Z0      0.153000
     51 H5         -5.7530    2.0190    3.4920 ha        1 0Z0      0.150000
     52 H6         -3.5270    1.6420    3.1840 ha        1 0Z0      0.144000
@<TRIPOS>BOND
     1    1    3 1   
     2    1    7 1   
     3    2    4 1   
     4    2    5 1   
     5    2    6 1   
     6    7    8 1   
     7    7   34 1   
     8    8    9 1   
     9    8   11 1   
    10    8   35 1   
    11    9   10 1   
    12    9   18 1   
    13   11   12 1   
    14   11   36 1   
    15   11   37 1   
    16   12   13 1   
    17   12   14 1   
    18   13   15 1   
    19   13   38 1   
    20   14   39 1   
    21   15   40 1   
    22   16   17 1   
    23   16   41 1   
    24   17   42 1   
    25   18   19 1   
    26   18   43 1   
    27   19   20 1   
    28   19   22 1   
    29   19   44 1   
    30   20   21 1   
    31   20   23 1   
    32   22   45 1   
    33   22   46 1   
    34   22   47 1   
    35   23   24 1   
    36   23   48 1   
    37   24   25 1   
    38   24   29 1   
    39   25   26 1   
    40   25   49 1   
    41   26   50 1   
    42   27   28 1   
    43   27   30 1   
    44   28   51 1   
    45   29   52 1   
    46   30   31 1   
    47   30   32 1   
    48   30   33 1   
@<TRIPOS>SUBSTRUCTURE
     1 0Z0         1 TEMP              0 ****  ****    0 ROOT
