@<TRIPOS>MOLECULE
0Z1
   64    61     1     0     0
SMALL
bcc


@<TRIPOS>ATOM
      1 C1          4.5120    0.1050   -1.1530 c1        1 0Z1      0.299000
      2 C2          5.9680    0.6850   -1.1340 c2        1 0Z1      0.398000
      3 O           4.0580   -0.4970   -0.1370 o         1 0Z1     -0.374000
      4 F1          6.0540    1.7110   -2.0180 f         1 0Z1     -0.141000
      5 F2          6.2490    1.1180    0.0670 f         1 0Z1     -0.141000
      6 F3          6.8340   -0.2720   -1.4770 f         1 0Z1     -0.141000
      7 N           3.7250    0.1550   -2.3810 n3        1 0Z1     -0.316000
      8 CA          2.3590   -0.0550   -2.3370 c3        1 0Z1      0.013000
      9 C           1.8150    0.4550   -1.0130 c2        1 0Z1      0.284000
     10 O1          2.1180   -0.1020    0.0210 o         1 0Z1     -0.339000
     11 CB          2.0620   -1.5820   -2.4750 c3        1 0Z1     -0.178000
     12 CG          2.7290   -2.1330   -3.7920 c3        1 0Z1     -0.149000
     13 CD          2.2100   -3.5400   -4.0650 c3        1 0Z1     -0.179000
     14 CE          3.3440   -4.4220   -4.5330 c3        1 0Z1     -0.144000
     15 NZ          2.9770   -5.8230   -4.3430 n4        1 0Z1     -0.065000
     16 N1          1.1000    1.7180   -0.9730 n         1 0Z1     -0.308000
     17 CA1         0.6380    2.5030    0.3070 c3        1 0Z1      0.008000
     18 C3         -0.5030    1.7520    0.9850 c2        1 0Z1      0.298000
     19 O2         -0.8110    0.6480    0.6010 o         1 0Z1     -0.386000
     20 CB1         0.2890    3.6940   -0.2200 c3        1 0Z1     -0.164000
     21 CG1        -0.1500    3.4240   -1.7260 c3        1 0Z1     -0.165000
     22 CD1         0.6410    2.5520   -2.1870 c3        1 0Z1     -0.029000
     23 C11        -2.2020    1.5820    2.8290 c1        1 0Z1      0.055000
     24 N11        -1.1670    2.3300    2.1370 n2        1 0Z1     -0.308000
     25 C21        -1.9280    1.0070    4.0570 c2        1 0Z1     -0.166000
     26 C31        -2.9450    0.4490    4.7940 c1        1 0Z1     -0.101000
     27 C4         -4.2440    0.4610    4.3100 c1        1 0Z1     -0.076000
     28 C5         -4.5200    1.0330    3.0860 c1        1 0Z1     -0.109000
     29 C6         -3.5050    1.5930    2.3440 c1        1 0Z1     -0.147000
     30 C1'        -5.4120   -0.0200    5.2210 c3        1 0Z1     -0.071000
     31 C2'        -6.2980    1.1290    5.5480 c3        1 0Z1     -0.206000
     32 C3'        -6.2180   -1.0950    4.4870 c3        1 0Z1     -0.206000
     33 H           4.1240    0.3750   -3.1650 hn        1 0Z1      0.253000
     34 HA          1.9270    0.4330   -3.0780 h1        1 0Z1      0.125000
     35 HB2         2.4310   -2.0610   -1.6950 hc        1 0Z1      0.124500
     36 HB3         1.0710   -1.7270   -2.5180 hc        1 0Z1      0.124500
     37 HG2         2.5000   -1.5530   -4.5360 hc        1 0Z1      0.106500
     38 HG3         3.6690   -2.1550   -3.6860 hc        1 0Z1      0.106500
     39 HD2         1.8240   -3.9140   -3.2360 hc        1 0Z1      0.105000
     40 HD3         1.5100   -3.5020   -4.7680 hc        1 0Z1      0.105000
     41 HE2         3.5230   -4.2500   -5.5050 hx        1 0Z1      0.172500
     42 HE3         4.1550   -4.2210   -4.0080 hx        1 0Z1      0.172500
     43 HZ1         3.7310   -6.3440   -4.3910 hn        1 0Z1      0.252333
     44 HZ2         2.5820   -5.9280   -3.5190 hn        1 0Z1      0.252333
     45 HZ3         2.3850   -6.0780   -5.0030 hn        1 0Z1      0.252333
     46 HA1         1.2890    2.6080    1.0670 h1        1 0Z1      0.137000
     47 HB21        1.0920    4.3310   -0.2020 hc        1 0Z1      0.111000
     48 HB31       -0.4410    4.0730    0.2710 hc        1 0Z1      0.111000
     49 HG21       -1.0780    3.0820   -1.7510 hc        1 0Z1      0.106500
     50 HG31       -0.0840    4.2330   -2.2380 hc        1 0Z1      0.106500
     51 HD21        0.1650    1.9670   -2.8520 h1        1 0Z1      0.086500
     52 HD31        1.4290    2.9950   -2.6180 h1        1 0Z1      0.086500
     53 HN11       -0.9850    3.2070    2.3860 hn        1 0Z1      0.237000
     54 H2         -0.9590    0.9970    4.4210 ha        1 0Z1      0.135000
     55 H3         -2.7560    0.0500    5.6470 ha        1 0Z1      0.141000
     56 H5         -5.4560    1.0400    2.7370 ha        1 0Z1      0.134000
     57 H6         -3.7060    2.0100    1.4530 ha        1 0Z1      0.156000
     58 H1'        -5.0420   -0.3980    6.0560 hc        1 0Z1      0.096000
     59 H2'1       -7.0250    0.8240    6.1160 hc        1 0Z1      0.076667
     60 H2'2       -5.7830    1.8150    6.0170 hc        1 0Z1      0.076667
     61 H2'3       -6.6640    1.5010    4.7260 hc        1 0Z1      0.076667
     62 H3'1       -6.5640   -0.7350    3.6800 hc        1 0Z1      0.076667
     63 H3'2       -6.9860   -1.4050    5.0740 hc        1 0Z1      0.076667
     64 H3'3       -5.6560   -1.8280    4.2890 hc        1 0Z1      0.076667
@<TRIPOS>BOND
     1    1    3 1   
     2    1    7 1   
     3    2    4 1   
     4    2    5 1   
     5    2    6 1   
     6    7    8 1   
     7    7   33 1   
     8    8    9 1   
     9    8   11 1   
    10    8   34 1   
    11    9   10 1   
    12    9   16 1   
    13   11   12 1   
    14   11   35 1   
    15   11   36 1   
    16   12   13 1   
    17   12   37 1   
    18   12   38 1   
    19   13   14 1   
    20   13   39 1   
    21   13   40 1   
    22   14   15 1   
    23   14   41 1   
    24   14   42 1   
    25   15   43 1   
    26   15   44 1   
    27   15   45 1   
    28   16   17 1   
    29   16   22 1   
    30   17   18 1   
    31   17   20 1   
    32   17   46 1   
    33   18   19 1   
    34   18   24 1   
    35   20   21 1   
    36   20   47 1   
    37   20   48 1   
    38   21   22 1   
    39   21   49 1   
    40   21   50 1   
    41   22   51 1   
    42   22   52 1   
    43   23   25 1   
    44   23   29 1   
    45   24   53 1   
    46   25   26 1   
    47   25   54 1   
    48   26   55 1   
    49   27   28 1   
    50   27   30 1   
    51   28   56 1   
    52   29   57 1   
    53   30   31 1   
    54   30   32 1   
    55   30   58 1   
    56   31   59 1   
    57   31   60 1   
    58   31   61 1   
    59   32   62 1   
    60   32   63 1   
    61   32   64 1   
@<TRIPOS>SUBSTRUCTURE
     1 0Z1         1 TEMP              0 ****  ****    0 ROOT
