@<TRIPOS>MOLECULE
0Z1
   64    65     1     0     0
SMALL
bcc


@<TRIPOS>ATOM
      1 C1         -4.2490   -0.6460   -0.1730 c         1 0Z1      0.657100
      2 C2         -5.4890   -1.5340   -0.6040 c3        1 0Z1      0.569900
      3 O          -3.4250   -1.1340    0.6160 o         1 0Z1     -0.594100
      4 F1         -5.3980   -2.8130   -0.1450 f         1 0Z1     -0.208300
      5 F2         -6.6750   -1.0370   -0.1350 f         1 0Z1     -0.208300
      6 F3         -5.6360   -1.6180   -1.9620 f         1 0Z1     -0.208300
      7 N          -4.2460    0.6280   -0.6770 n         1 0Z1     -0.528900
      8 CA         -3.1500    1.5610   -0.6500 c3        1 0Z1      0.050700
      9 C          -1.8530    0.9770   -1.2770 c         1 0Z1      0.649100
     10 O1         -1.5330   -0.2160   -1.0770 o         1 0Z1     -0.633100
     11 CB         -2.7200    2.1810    0.7010 c3        1 0Z1     -0.104400
     12 CG         -3.2900    1.6350    1.9950 c3        1 0Z1     -0.089400
     13 CD         -2.2240    1.3170    3.0290 c3        1 0Z1     -0.104400
     14 CE         -1.7620   -0.1350    3.0020 c3        1 0Z1      0.107800
     15 NZ         -0.9660   -0.4870    1.8000 n4        1 0Z1     -0.840600
     16 N1         -1.0470    1.7950   -2.0340 n         1 0Z1     -0.437800
     17 CA1         0.3440    1.4390   -2.2900 c3        1 0Z1      0.034700
     18 C3          1.1140    1.0370   -1.0050 c         1 0Z1      0.677100
     19 O2          0.5970    1.1680    0.1300 o         1 0Z1     -0.698100
     20 CB1         1.0080    2.6650   -2.9550 c3        1 0Z1     -0.088400
     21 CG1        -0.0270    3.7860   -2.9340 c3        1 0Z1     -0.088400
     22 CD1        -1.2980    3.2020   -2.3000 c3        1 0Z1      0.082000
     23 C11         3.2470    0.0810   -0.1790 ca        1 0Z1      0.023600
     24 N11         2.3720    0.5260   -1.1960 n         1 0Z1     -0.445100
     25 C21         4.1910   -0.9250   -0.4840 ca        1 0Z1     -0.152000
     26 C31         5.0850   -1.3600    0.4870 ca        1 0Z1     -0.107500
     27 C4          5.0700   -0.8170    1.7780 ca        1 0Z1     -0.067300
     28 C5          4.1350    0.1790    2.0760 ca        1 0Z1     -0.107500
     29 C6          3.2320    0.6300    1.1180 ca        1 0Z1     -0.152000
     30 C1'         6.0460   -1.2940    2.8070 c3        1 0Z1     -0.028400
     31 C2'         6.9570   -0.1660    3.2550 c3        1 0Z1     -0.089600
     32 C3'         5.3300   -1.9050    3.9970 c3        1 0Z1     -0.089600
     33 H          -4.9800    0.8550   -1.3170 hn        1 0Z1      0.344500
     34 HA         -3.5030    2.4260   -1.2990 h1        1 0Z1      0.088700
     35 HB2        -1.5940    2.1490    0.7480 hc        1 0Z1      0.069700
     36 HB3        -2.9940    3.2710    0.6420 hc        1 0Z1      0.069700
     37 HG2        -3.9700    2.4180    2.4330 hc        1 0Z1      0.070700
     38 HG3        -3.9280    0.7290    1.8430 hc        1 0Z1      0.070700
     39 HD2        -1.3490    2.0120    2.9250 hc        1 0Z1      0.080700
     40 HD3        -2.6560    1.4850    4.0540 hc        1 0Z1      0.080700
     41 HE2        -1.1270   -0.3440    3.9110 hx        1 0Z1      0.102200
     42 HE3        -2.6620   -0.8190    3.0170 hx        1 0Z1      0.102200
     43 HZ1        -0.0930    0.0540    1.7560 hn        1 0Z1      0.470800
     44 HZ2        -0.7520   -1.4850    1.7990 hn        1 0Z1      0.470800
     45 HZ3        -1.5180   -0.2800    0.9450 hn        1 0Z1      0.470800
     46 HA1         0.3440    0.5450   -2.9820 h1        1 0Z1      0.101700
     47 HB21        1.9340    2.9710   -2.4090 hc        1 0Z1      0.074700
     48 HB31        1.2950    2.4090   -4.0050 hc        1 0Z1      0.074700
     49 HG21        0.3390    4.6570   -2.3350 hc        1 0Z1      0.073700
     50 HG31       -0.2420    4.1480   -3.9700 hc        1 0Z1      0.073700
     51 HD21       -2.1710    3.2900   -3.0040 h1        1 0Z1      0.055700
     52 HD31       -1.5510    3.7460   -1.3460 h1        1 0Z1      0.055700
     53 HN11        2.6930    0.3970   -2.1310 hn        1 0Z1      0.332500
     54 H2          4.2330   -1.3700   -1.4900 ha        1 0Z1      0.144000
     55 H3          5.8180   -2.1430    0.2300 ha        1 0Z1      0.145500
     56 H5          4.1200    0.6250    3.0840 ha        1 0Z1      0.145500
     57 H6          2.5170    1.4260    1.3780 ha        1 0Z1      0.144000
     58 H1'         6.6920   -2.0970    2.3430 hc        1 0Z1      0.060700
     59 H2'1        6.3670    0.6490    3.7400 hc        1 0Z1      0.040200
     60 H2'2        7.7020   -0.5510    3.9920 hc        1 0Z1      0.040200
     61 H2'3        7.5060    0.2630    2.3830 hc        1 0Z1      0.040200
     62 H3'1        4.6860   -2.7560    3.6710 hc        1 0Z1      0.040200
     63 H3'2        6.0770   -2.2850    4.7340 hc        1 0Z1      0.040200
     64 H3'3        4.6890   -1.1450    4.5040 hc        1 0Z1      0.040200
@<TRIPOS>BOND
     1    1    2 1   
     2    1    3 2   
     3    1    7 1   
     4    2    4 1   
     5    2    5 1   
     6    2    6 1   
     7    7    8 1   
     8    7   33 1   
     9    8    9 1   
    10    8   11 1   
    11    8   34 1   
    12    9   10 2   
    13    9   16 1   
    14   11   12 1   
    15   11   35 1   
    16   11   36 1   
    17   12   13 1   
    18   12   37 1   
    19   12   38 1   
    20   13   14 1   
    21   13   39 1   
    22   13   40 1   
    23   14   15 1   
    24   14   41 1   
    25   14   42 1   
    26   15   43 1   
    27   15   44 1   
    28   15   45 1   
    29   16   17 1   
    30   16   22 1   
    31   17   18 1   
    32   17   20 1   
    33   17   46 1   
    34   18   19 2   
    35   18   24 1   
    36   20   21 1   
    37   20   47 1   
    38   20   48 1   
    39   21   22 1   
    40   21   49 1   
    41   21   50 1   
    42   22   51 1   
    43   22   52 1   
    44   23   24 1   
    45   23   25 ar  
    46   23   29 ar  
    47   24   53 1   
    48   25   26 ar  
    49   25   54 1   
    50   26   27 ar  
    51   26   55 1   
    52   27   28 ar  
    53   27   30 1   
    54   28   29 ar  
    55   28   56 1   
    56   29   57 1   
    57   30   31 1   
    58   30   32 1   
    59   30   58 1   
    60   31   59 1   
    61   31   60 1   
    62   31   61 1   
    63   32   62 1   
    64   32   63 1   
    65   32   64 1   
@<TRIPOS>SUBSTRUCTURE
     1 0Z1         1 TEMP              0 ****  ****    0 ROOT
