@<TRIPOS>MOLECULE
0Z2
   51    51     1     0     0
SMALL
bcc


@<TRIPOS>ATOM
      1 C1         -5.5030    0.4110    0.0490 c         1 0Z2      0.636100
      2 C2         -6.6460    1.0180   -0.8570 c3        1 0Z2      0.560900
      3 O          -5.7620    0.0830    1.2140 o         1 0Z2     -0.541100
      4 F1         -7.8180    1.2000   -0.1820 f         1 0Z2     -0.220300
      5 F2         -6.3270    2.2410   -1.3850 f         1 0Z2     -0.220300
      6 F3         -6.9540    0.2310   -1.9340 f         1 0Z2     -0.220300
      7 N          -4.2940    0.2610   -0.5710 n         1 0Z2     -0.532900
      8 CA         -3.1240   -0.2020    0.1380 c3        1 0Z2      0.039700
      9 C          -1.9860    0.8490    0.0430 c         1 0Z2      0.639100
     10 O1         -1.8350    1.5550   -0.9730 o         1 0Z2     -0.605100
     11 CB         -2.5440   -1.5150   -0.4100 c3        1 0Z2     -0.089400
     12 CG         -3.5030   -2.6910   -0.3210 c3        1 0Z2     -0.064700
     13 CD1        -2.8400   -3.9210   -0.9110 c3        1 0Z2     -0.098100
     14 CD2        -3.9370   -2.9620    1.1050 c3        1 0Z2     -0.098100
     15 N1         -1.1670    0.9740    1.1480 n         1 0Z2     -0.544900
     16 CA1         0.0140    1.7990    1.1270 c3        1 0Z2      0.035700
     17 C3          1.2990    0.9270    1.0160 c         1 0Z2      0.639100
     18 O2          1.3810   -0.1530    1.6270 o         1 0Z2     -0.588100
     19 CB1         0.1740    2.6460    2.3900 c3        1 0Z2     -0.107100
     20 N2          2.3180    1.4510    0.2370 n         1 0Z2     -0.463100
     21 C11         3.5800    0.8900   -0.0080 ca        1 0Z2      0.098600
     22 C21         4.0440   -0.2810    0.6310 ca        1 0Z2     -0.178000
     23 C31         5.3130   -0.7750    0.3500 ca        1 0Z2     -0.052500
     24 C4          6.1410   -0.1230   -0.5640 ca        1 0Z2     -0.200300
     25 C5          5.6970    1.0340   -1.2060 ca        1 0Z2     -0.052500
     26 C6          4.4330    1.5400   -0.9370 ca        1 0Z2     -0.178000
     27 C7          7.5340   -0.6610   -0.8500 c3        1 0Z2      0.692200
     28 F11         7.9940   -0.4120   -2.1210 f         1 0Z2     -0.238300
     29 F21         8.5160   -0.1470   -0.0360 f         1 0Z2     -0.238300
     30 F31         7.6640   -2.0220   -0.7080 f         1 0Z2     -0.238300
     31 H          -4.1500    0.6400   -1.4820 hn        1 0Z2      0.347500
     32 HA         -3.4170   -0.3600    1.2220 h1        1 0Z2      0.105700
     33 HB2        -2.2360   -1.3710   -1.4800 hc        1 0Z2      0.061200
     34 HB3        -1.6190   -1.7470    0.1830 hc        1 0Z2      0.061200
     35 HG         -4.4200   -2.4600   -0.9340 hc        1 0Z2      0.055700
     36 HD11       -1.9350   -4.2020   -0.3190 hc        1 0Z2      0.040200
     37 HD12       -3.5500   -4.7820   -0.9010 hc        1 0Z2      0.040200
     38 HD13       -2.5290   -3.7290   -1.9660 hc        1 0Z2      0.040200
     39 HD21       -4.5950   -2.1390    1.4810 hc        1 0Z2      0.040200
     40 HD22       -4.5140   -3.9170    1.1540 hc        1 0Z2      0.040200
     41 HD23       -3.0520   -3.0510    1.7780 hc        1 0Z2      0.040200
     42 H1         -1.2090    0.2870    1.8670 hn        1 0Z2      0.329500
     43 HA1        -0.0710    2.4900    0.2320 h1        1 0Z2      0.100700
     44 HB1         0.2840    1.9990    3.2940 hc        1 0Z2      0.057700
     45 HB21        1.0870    3.2800    2.2890 hc        1 0Z2      0.057700
     46 HB31       -0.7130    3.3090    2.5270 hc        1 0Z2      0.057700
     47 HN1         2.1240    2.2970   -0.2540 hn        1 0Z2      0.324500
     48 H2          3.4100   -0.8180    1.3570 ha        1 0Z2      0.160000
     49 H3          5.6640   -1.6920    0.8510 ha        1 0Z2      0.154000
     50 H5          6.3500    1.5430   -1.9330 ha        1 0Z2      0.154000
     51 H6          4.1030    2.4530   -1.4580 ha        1 0Z2      0.160000
@<TRIPOS>BOND
     1    1    2 1   
     2    1    3 2   
     3    1    7 1   
     4    2    4 1   
     5    2    5 1   
     6    2    6 1   
     7    7    8 1   
     8    7   31 1   
     9    8    9 1   
    10    8   11 1   
    11    8   32 1   
    12    9   10 2   
    13    9   15 1   
    14   11   12 1   
    15   11   33 1   
    16   11   34 1   
    17   12   13 1   
    18   12   14 1   
    19   12   35 1   
    20   13   36 1   
    21   13   37 1   
    22   13   38 1   
    23   14   39 1   
    24   14   40 1   
    25   14   41 1   
    26   15   16 1   
    27   15   42 1   
    28   16   17 1   
    29   16   19 1   
    30   16   43 1   
    31   17   18 2   
    32   17   20 1   
    33   19   44 1   
    34   19   45 1   
    35   19   46 1   
    36   20   21 1   
    37   20   47 1   
    38   21   22 ar  
    39   21   26 ar  
    40   22   23 ar  
    41   22   48 1   
    42   23   24 ar  
    43   23   49 1   
    44   24   25 ar  
    45   24   27 1   
    46   25   26 ar  
    47   25   50 1   
    48   26   51 1   
    49   27   28 1   
    50   27   29 1   
    51   27   30 1   
@<TRIPOS>SUBSTRUCTURE
     1 0Z2         1 TEMP              0 ****  ****    0 ROOT
