@<TRIPOS>MOLECULE
0Z2
   51    48     1     0     0
SMALL
bcc


@<TRIPOS>ATOM
      1 C1         -2.7260    3.7630   -0.1080 c1        1 0Z2      0.282000
      2 C2         -4.2220    3.9320    0.1320 c2        1 0Z2      0.396000
      3 O          -1.9250    4.3250    0.6180 o         1 0Z2     -0.314000
      4 F1         -4.7590    4.6190   -0.8770 f         1 0Z2     -0.146667
      5 F2         -4.7990    2.7320    0.2090 f         1 0Z2     -0.146667
      6 F3         -4.4180    4.5950    1.2770 f         1 0Z2     -0.146667
      7 N          -2.2650    2.9710   -1.2060 n3        1 0Z2     -0.352000
      8 CA         -0.9050    2.5690   -1.2720 c3        1 0Z2      0.021000
      9 C          -0.4970    1.9260    0.0540 c2        1 0Z2      0.286000
     10 O1         -0.0960    2.6230    0.9710 o         1 0Z2     -0.389000
     11 CB         -0.0220    3.7920   -1.5410 c3        1 0Z2     -0.178000
     12 CG          0.8360    3.5450   -2.8180 c3        1 0Z2     -0.106000
     13 CD1         2.3140    3.4410   -2.4280 c3        1 0Z2     -0.212500
     14 CD2         0.6460    4.7070   -3.7930 c3        1 0Z2     -0.212500
     15 N1         -0.6390    0.4860    0.2420 n         1 0Z2     -0.365000
     16 CA1        -0.2550   -0.1180    1.4930 c3        1 0Z2      0.011000
     17 C3         -0.1290   -1.6240    1.3140 c2        1 0Z2      0.289000
     18 O2         -1.1130   -2.2890    1.0360 o         1 0Z2     -0.339000
     19 CB1        -1.2960    0.1770    2.5310 c3        1 0Z2     -0.220000
     20 N2          1.1230   -2.2730    1.5790 n         1 0Z2     -0.322000
     21 C11         1.2170   -3.7180    1.5150 c2        1 0Z2      0.110000
     22 C21         1.3080   -4.3520    0.2830 c2        1 0Z2     -0.170000
     23 C31         1.4850   -5.7250    0.2220 c1        1 0Z2     -0.053000
     24 C4          1.5730   -6.4660    1.3890 c1        1 0Z2     -0.198000
     25 C5          1.4820   -5.8310    2.6240 c1        1 0Z2     -0.054000
     26 C6          1.3050   -4.4590    2.6850 c1        1 0Z2     -0.192000
     27 C7          1.8490   -7.9590    1.3230 c3        1 0Z2      0.471000
     28 F11         1.1620   -8.4950    0.3080 f         1 0Z2     -0.168667
     29 F21         1.4710   -8.5340    2.4710 f         1 0Z2     -0.168667
     30 F31         3.1570   -8.1630    1.1310 f         1 0Z2     -0.168667
     31 H          -2.8390    2.7500   -1.8810 hn        1 0Z2      0.254000
     32 HA         -0.7930    1.9260   -1.9900 h1        1 0Z2      0.143000
     33 HB2         0.5630    3.9420   -0.7830 hc        1 0Z2      0.111500
     34 HB3        -0.5870    4.5780   -1.6770 hc        1 0Z2      0.111500
     35 HG          0.5520    2.7120   -3.2450 hc        1 0Z2      0.088000
     36 HD11        2.4610    2.6180   -1.9210 hc        1 0Z2      0.078333
     37 HD12        2.5620    4.2110   -1.8790 hc        1 0Z2      0.078333
     38 HD13        2.8690    3.4270   -3.2430 hc        1 0Z2      0.078333
     39 HD21        0.7350    5.5520   -3.3130 hc        1 0Z2      0.078333
     40 HD22        1.3310    4.6570   -4.5010 hc        1 0Z2      0.078333
     41 HD23       -0.2470    4.6520   -4.1970 hc        1 0Z2      0.078333
     42 H1         -0.9210   -0.0370   -0.4480 hn        1 0Z2      0.263000
     43 HA1         0.6040    0.2480    1.7810 h1        1 0Z2      0.126000
     44 HB1        -1.0090    0.9390    3.0720 hc        1 0Z2      0.100000
     45 HB21       -1.4150   -0.6130    3.1120 hc        1 0Z2      0.100000
     46 HB31       -2.1520    0.3920    2.0870 hc        1 0Z2      0.100000
     47 HN1         1.8430   -1.7810    1.8500 hn        1 0Z2      0.261000
     48 H2          1.2460   -3.8330   -0.5370 ha        1 0Z2      0.180000
     49 H3          1.5490   -6.1710   -0.6440 ha        1 0Z2      0.153000
     50 H5          1.5440   -6.3500    3.4420 ha        1 0Z2      0.150000
     51 H6          1.2420   -4.0140    3.5510 ha        1 0Z2      0.144000
@<TRIPOS>BOND
     1    1    3 1   
     2    1    7 1   
     3    2    4 1   
     4    2    5 1   
     5    2    6 1   
     6    7    8 1   
     7    7   31 1   
     8    8    9 1   
     9    8   11 1   
    10    8   32 1   
    11    9   10 1   
    12    9   15 1   
    13   11   12 1   
    14   11   33 1   
    15   11   34 1   
    16   12   13 1   
    17   12   14 1   
    18   12   35 1   
    19   13   36 1   
    20   13   37 1   
    21   13   38 1   
    22   14   39 1   
    23   14   40 1   
    24   14   41 1   
    25   15   16 1   
    26   15   42 1   
    27   16   17 1   
    28   16   19 1   
    29   16   43 1   
    30   17   18 1   
    31   17   20 1   
    32   19   44 1   
    33   19   45 1   
    34   19   46 1   
    35   20   21 1   
    36   20   47 1   
    37   21   22 1   
    38   21   26 1   
    39   22   23 1   
    40   22   48 1   
    41   23   49 1   
    42   24   25 1   
    43   24   27 1   
    44   25   50 1   
    45   26   51 1   
    46   27   28 1   
    47   27   29 1   
    48   27   30 1   
@<TRIPOS>SUBSTRUCTURE
     1 0Z2         1 TEMP              0 ****  ****    0 ROOT
