@<TRIPOS>MOLECULE
0Z3
   70    71     1     0     0
SMALL
bcc


@<TRIPOS>ATOM
      1 C1         -4.5620    1.4380    1.7620 c         1 0Z3      0.652100
      2 C2         -5.6360    1.0640    2.8560 c3        1 0Z3      0.584900
      3 O          -4.7490    2.4560    1.0590 o         1 0Z3     -0.681100
      4 F1         -6.5820    2.0370    3.0000 f         1 0Z3     -0.204300
      5 F2         -6.3060   -0.0890    2.5590 f         1 0Z3     -0.204300
      6 F3         -5.0880    0.8760    4.0950 f         1 0Z3     -0.204300
      7 N          -3.4970    0.6080    1.6370 n         1 0Z3     -0.509900
      8 CA         -2.4700    0.8430    0.6410 c3        1 0Z3      0.027700
      9 C          -1.4160   -0.2970    0.6620 c         1 0Z3      0.651100
     10 O1         -1.2120   -0.9570    1.6960 o         1 0Z3     -0.575100
     11 CB         -1.7120    2.1720    0.8340 c3        1 0Z3     -0.111400
     12 CG         -1.2160    2.7360   -0.4840 c3        1 0Z3     -0.118400
     13 CD         -1.1910    4.2510   -0.4880 c3        1 0Z3     -0.106400
     14 CE         -2.4210    4.8830   -1.1270 c3        1 0Z3      0.100800
     15 NZ         -3.7010    4.4810   -0.4810 n4        1 0Z3     -0.836600
     16 N1         -0.7610   -0.5250   -0.5290 n         1 0Z3     -0.512900
     17 CA1         0.4810   -1.2650   -0.5710 c3        1 0Z3      0.023700
     18 C3          1.6980   -0.2880   -0.5860 c         1 0Z3      0.639100
     19 O2          1.5480    0.8860   -0.9890 o         1 0Z3     -0.642100
     20 CB1         0.6010   -2.1560   -1.8210 c3        1 0Z3     -0.036100
     21 CG1        -0.4870   -3.1650   -1.9100 ca        1 0Z3     -0.094300
     22 CD1        -1.3780   -3.1460   -2.9900 ca        1 0Z3     -0.123000
     23 CD2        -0.6100   -4.1630   -0.9360 ca        1 0Z3     -0.123000
     24 CE1        -2.3790   -4.1110   -3.0910 ca        1 0Z3     -0.123500
     25 CE2        -1.6130   -5.1250   -1.0380 ca        1 0Z3     -0.123500
     26 CZ         -2.5000   -5.1010   -2.1150 ca        1 0Z3     -0.119000
     27 C11         4.1300   -0.1340   -0.0700 ca        1 0Z3      0.035600
     28 N11         2.8920   -0.8080   -0.1520 n         1 0Z3     -0.444100
     29 C21         4.3990    1.0580   -0.7690 ca        1 0Z3     -0.153000
     30 C31         5.6480    1.6630   -0.6620 ca        1 0Z3     -0.104500
     31 C4          6.6570    1.1080    0.1290 ca        1 0Z3     -0.076300
     32 C5          6.3900   -0.0790    0.8220 ca        1 0Z3     -0.104500
     33 C6          5.1500   -0.6970    0.7320 ca        1 0Z3     -0.153000
     34 C1'         7.9950    1.7720    0.2270 c3        1 0Z3     -0.024400
     35 C2'         8.2930    2.1870    1.6560 c3        1 0Z3     -0.089600
     36 C3'         9.0910    0.8680   -0.3040 c3        1 0Z3     -0.089600
     37 H          -3.3490   -0.1420    2.2850 hn        1 0Z3      0.375500
     38 HA         -2.9970    0.8580   -0.3630 h1        1 0Z3      0.072700
     39 HB2        -2.3810    2.9130    1.3470 hc        1 0Z3      0.068200
     40 HB3        -0.8420    2.0070    1.5250 hc        1 0Z3      0.068200
     41 HG2        -0.1670    2.3590   -0.6680 hc        1 0Z3      0.080200
     42 HG3        -1.8380    2.3660   -1.3420 hc        1 0Z3      0.080200
     43 HD2        -1.0460    4.6440    0.5540 hc        1 0Z3      0.092700
     44 HD3        -0.3100    4.6060   -1.0940 hc        1 0Z3      0.092700
     45 HE2        -2.3420    6.0070   -1.0670 hx        1 0Z3      0.106200
     46 HE3        -2.4850    4.5820   -2.2130 hx        1 0Z3      0.106200
     47 HZ1        -3.8150    3.4540   -0.5190 hn        1 0Z3      0.467133
     48 HZ2        -3.7110    4.7420    0.5110 hn        1 0Z3      0.467133
     49 HZ3        -4.4960    4.9220   -0.9490 hn        1 0Z3      0.467133
     50 H1         -0.8800    0.1350   -1.2660 hn        1 0Z3      0.315500
     51 HA1         0.5210   -1.9200    0.3530 h1        1 0Z3      0.110700
     52 HB21        0.6150   -1.5120   -2.7410 hc        1 0Z3      0.067700
     53 HB31        1.5900   -2.6860   -1.7670 hc        1 0Z3      0.067700
     54 HD1        -1.2820   -2.3760   -3.7690 ha        1 0Z3      0.128000
     55 HD21        0.0910   -4.1930   -0.0890 ha        1 0Z3      0.128000
     56 HE1        -3.0710   -4.0960   -3.9460 ha        1 0Z3      0.140000
     57 HE21       -1.7010   -5.9080   -0.2700 ha        1 0Z3      0.140000
     58 HZ         -3.2880   -5.8640   -2.1980 ha        1 0Z3      0.142000
     59 HN11        2.8920   -1.7440    0.1930 hn        1 0Z3      0.325500
     60 H2          3.6280    1.5240   -1.4040 ha        1 0Z3      0.146000
     61 H3          5.8390    2.5950   -1.2180 ha        1 0Z3      0.141000
     62 H5          7.1750   -0.5320    1.4500 ha        1 0Z3      0.141000
     63 H6          4.9760   -1.6300    1.2900 ha        1 0Z3      0.146000
     64 H1'         7.9780    2.7060   -0.4080 hc        1 0Z3      0.052700
     65 H2'1        7.5030    2.8760    2.0360 hc        1 0Z3      0.039367
     66 H2'2        8.3380    1.2940    2.3250 hc        1 0Z3      0.039367
     67 H2'3        9.2780    2.7130    1.7010 hc        1 0Z3      0.039367
     68 H3'1        8.8860    0.5880   -1.3650 hc        1 0Z3      0.039367
     69 H3'2       10.0740    1.3950   -0.2570 hc        1 0Z3      0.039367
     70 H3'3        9.1610   -0.0670    0.3030 hc        1 0Z3      0.039367
@<TRIPOS>BOND
     1    1    2 1   
     2    1    3 2   
     3    1    7 1   
     4    2    4 1   
     5    2    5 1   
     6    2    6 1   
     7    7    8 1   
     8    7   37 1   
     9    8    9 1   
    10    8   11 1   
    11    8   38 1   
    12    9   10 2   
    13    9   16 1   
    14   11   12 1   
    15   11   39 1   
    16   11   40 1   
    17   12   13 1   
    18   12   41 1   
    19   12   42 1   
    20   13   14 1   
    21   13   43 1   
    22   13   44 1   
    23   14   15 1   
    24   14   45 1   
    25   14   46 1   
    26   15   47 1   
    27   15   48 1   
    28   15   49 1   
    29   16   17 1   
    30   16   50 1   
    31   17   18 1   
    32   17   20 1   
    33   17   51 1   
    34   18   19 2   
    35   18   28 1   
    36   20   21 1   
    37   20   52 1   
    38   20   53 1   
    39   21   22 ar  
    40   21   23 ar  
    41   22   24 ar  
    42   22   54 1   
    43   23   25 ar  
    44   23   55 1   
    45   24   26 ar  
    46   24   56 1   
    47   25   26 ar  
    48   25   57 1   
    49   26   58 1   
    50   27   28 1   
    51   27   29 ar  
    52   27   33 ar  
    53   28   59 1   
    54   29   30 ar  
    55   29   60 1   
    56   30   31 ar  
    57   30   61 1   
    58   31   32 ar  
    59   31   34 1   
    60   32   33 ar  
    61   32   62 1   
    62   33   63 1   
    63   34   35 1   
    64   34   36 1   
    65   34   64 1   
    66   35   65 1   
    67   35   66 1   
    68   35   67 1   
    69   36   68 1   
    70   36   69 1   
    71   36   70 1   
@<TRIPOS>SUBSTRUCTURE
     1 0Z3         1 TEMP              0 ****  ****    0 ROOT
