@<TRIPOS>MOLECULE
0Z3
   70    65     1     0     0
SMALL
bcc


@<TRIPOS>ATOM
      1 C1          4.7110   -3.3790   -0.3040 c1        1 0Z3      0.275000
      2 C2          5.8500   -4.0200    0.4720 c2        1 0Z3      0.405000
      3 O           4.7550   -3.3310   -1.5180 o         1 0Z3     -0.330000
      4 F1          6.7620   -3.0860    0.7840 f         1 0Z3     -0.142333
      5 F2          5.3720   -4.5690    1.5950 f         1 0Z3     -0.142333
      6 F3          6.4210   -4.9690   -0.2800 f         1 0Z3     -0.142333
      7 N           3.5530   -2.9060    0.3870 n3        1 0Z3     -0.348000
      8 CA          2.5470   -2.1940   -0.3170 c3        1 0Z3      0.012000
      9 C           2.2760   -0.8770    0.3840 c2        1 0Z3      0.288000
     10 O1          2.3110   -0.8160    1.5990 o         1 0Z3     -0.339000
     11 CB          1.2670   -3.0240   -0.3550 c3        1 0Z3     -0.184000
     12 CG          1.3000   -3.9780   -1.5840 c3        1 0Z3     -0.157000
     13 CD         -0.1130   -4.6120   -1.7870 c3        1 0Z3     -0.189000
     14 CE         -0.1140   -5.4750   -3.0710 c3        1 0Z3     -0.138000
     15 NZ         -1.3820   -6.1710   -3.1830 n4        1 0Z3     -0.067000
     16 N1          1.9780    0.2960   -0.3840 n         1 0Z3     -0.320000
     17 CA1         1.4640    1.4520    0.2580 c3        1 0Z3     -0.001000
     18 C3         -0.0560    1.4350    0.1950 c2        1 0Z3      0.280000
     19 O2         -0.6180    0.9700   -0.7740 o         1 0Z3     -0.398000
     20 CB1         1.9870    2.6960   -0.4430 c3        1 0Z3     -0.120000
     21 CG1         3.0110    3.4120    0.4710 c2        1 0Z3     -0.086000
     22 CD1         4.3270    3.5880    0.0380 c2        1 0Z3     -0.122000
     23 CD2         2.5850    4.0070    1.6580 c1        1 0Z3     -0.122000
     24 CE1         5.2110    4.3560    0.7900 c1        1 0Z3     -0.125000
     25 CE2         3.4710    4.7760    2.4090 c1        1 0Z3     -0.119500
     26 CZ          4.7840    4.9510    1.9750 c1        1 0Z3     -0.119500
     27 C11        -2.2590    2.0460    1.1790 c1        1 0Z3      0.052000
     28 N11        -0.8240    2.0160    1.2600 n2        1 0Z3     -0.304000
     29 C21        -3.0150    1.2570    2.0240 c2        1 0Z3     -0.165000
     30 C31        -4.4050    1.2650    1.9270 c1        1 0Z3     -0.101000
     31 C4         -5.0290    2.0650    0.9820 c1        1 0Z3     -0.075000
     32 C5         -4.2720    2.8550    0.1360 c1        1 0Z3     -0.109000
     33 C6         -2.8840    2.8460    0.2330 c1        1 0Z3     -0.147000
     34 C1'        -6.5750    2.0290    0.8330 c3        1 0Z3     -0.071000
     35 C2'        -7.1850    3.3310    1.4290 c3        1 0Z3     -0.206000
     36 C3'        -6.9420    1.9240   -0.6560 c3        1 0Z3     -0.206000
     37 H           3.4550   -3.0710    1.2800 hn        1 0Z3      0.274000
     38 HA          2.8490   -2.0210   -1.2300 h1        1 0Z3      0.131000
     39 HB2         1.1960   -3.5510    0.4670 hc        1 0Z3      0.117000
     40 HB3         0.4950   -2.4280   -0.4270 hc        1 0Z3      0.117000
     41 HG2         1.5490   -3.4720   -2.3840 hc        1 0Z3      0.108500
     42 HG3         1.9560   -4.6870   -1.4300 hc        1 0Z3      0.108500
     43 HD2        -0.3320   -5.1730   -1.0170 hc        1 0Z3      0.111500
     44 HD3        -0.7810   -3.8980   -1.8720 hc        1 0Z3      0.111500
     45 HE2         0.6110   -6.1260   -3.0270 hx        1 0Z3      0.156000
     46 HE3         0.0120   -4.8990   -3.8520 hx        1 0Z3      0.156000
     47 HZ1        -2.0350   -5.5790   -3.4480 hn        1 0Z3      0.256333
     48 HZ2        -1.3080   -6.8490   -3.8090 hn        1 0Z3      0.256333
     49 HZ3        -1.6070   -6.5290   -2.3700 hn        1 0Z3      0.256333
     50 H1          2.1540    0.3120   -1.2770 hn        1 0Z3      0.226000
     51 HA1         1.7510    1.4600    1.1940 h1        1 0Z3      0.149000
     52 HB21        1.2430    3.3000   -0.6330 hc        1 0Z3      0.104500
     53 HB31        2.4230    2.4400   -1.2840 hc        1 0Z3      0.104500
     54 HD1         4.6240    3.1740   -0.7870 ha        1 0Z3      0.128000
     55 HD21        1.6730    3.8860    1.9590 ha        1 0Z3      0.128000
     56 HE1         6.1280    4.4790    0.4870 ha        1 0Z3      0.138000
     57 HE21        3.1730    5.1920    3.2370 ha        1 0Z3      0.140500
     58 HZ          5.4050    5.4900    2.5030 ha        1 0Z3      0.140500
     59 HN11       -0.3990    2.3970    1.9730 hn        1 0Z3      0.239000
     60 H2         -2.5730    0.6910    2.6930 ha        1 0Z3      0.135000
     61 H3         -4.9430    0.7050    2.5280 ha        1 0Z3      0.142000
     62 H5         -4.7120    3.4190   -0.5320 ha        1 0Z3      0.135000
     63 H6         -2.3460    3.4070   -0.3680 ha        1 0Z3      0.157000
     64 H1'        -6.9310    1.2520    1.3120 hc        1 0Z3      0.096000
     65 H2'1       -6.7320    3.5490    2.2790 hc        1 0Z3      0.076833
     66 H2'2       -8.1490    3.1970    1.5960 hc        1 0Z3      0.076833
     67 H2'3       -7.0640    4.0700    0.7940 hc        1 0Z3      0.076833
     68 H3'1       -6.3730    1.2400   -1.0880 hc        1 0Z3      0.076833
     69 H3'2       -6.7980    2.7870   -1.0880 hc        1 0Z3      0.076833
     70 H3'3       -7.8870    1.6670   -0.7440 hc        1 0Z3      0.076833
@<TRIPOS>BOND
     1    1    3 1   
     2    1    7 1   
     3    2    4 1   
     4    2    5 1   
     5    2    6 1   
     6    7    8 1   
     7    7   37 1   
     8    8    9 1   
     9    8   11 1   
    10    8   38 1   
    11    9   10 1   
    12    9   16 1   
    13   11   12 1   
    14   11   39 1   
    15   11   40 1   
    16   12   13 1   
    17   12   41 1   
    18   12   42 1   
    19   13   14 1   
    20   13   43 1   
    21   13   44 1   
    22   14   15 1   
    23   14   45 1   
    24   14   46 1   
    25   15   47 1   
    26   15   48 1   
    27   15   49 1   
    28   16   17 1   
    29   16   50 1   
    30   17   18 1   
    31   17   20 1   
    32   17   51 1   
    33   18   19 1   
    34   18   28 1   
    35   20   21 1   
    36   20   52 1   
    37   20   53 1   
    38   21   22 1   
    39   21   23 1   
    40   22   24 1   
    41   22   54 1   
    42   23   55 1   
    43   24   56 1   
    44   25   26 1   
    45   25   57 1   
    46   26   58 1   
    47   27   29 1   
    48   27   33 1   
    49   28   59 1   
    50   29   30 1   
    51   29   60 1   
    52   30   61 1   
    53   31   32 1   
    54   31   34 1   
    55   32   62 1   
    56   33   63 1   
    57   34   35 1   
    58   34   36 1   
    59   34   64 1   
    60   35   65 1   
    61   35   66 1   
    62   35   67 1   
    63   36   68 1   
    64   36   69 1   
    65   36   70 1   
@<TRIPOS>SUBSTRUCTURE
     1 0Z3         1 TEMP              0 ****  ****    0 ROOT
