@<TRIPOS>MOLECULE
0Z4
   69    65     1     0     0
SMALL
bcc


@<TRIPOS>ATOM
      1 C1          1.0640    5.1220    1.2610 c1        1 0Z4      0.273000
      2 C2          2.2530    6.0120    1.6100 c2        1 0Z4      0.406000
      3 O          -0.0020    5.2830    1.8270 o         1 0Z4     -0.327000
      4 F1          3.2470    5.2540    2.1180 f         1 0Z4     -0.141667
      5 F2          1.8760    6.9230    2.5190 f         1 0Z4     -0.141667
      6 F3          2.6860    6.6360    0.5040 f         1 0Z4     -0.141667
      7 N           1.2220    4.0530    0.3250 n3        1 0Z4     -0.352000
      8 CA          0.1440    3.1780    0.0620 c3        1 0Z4      0.017000
      9 C           0.5700    1.7410    0.3710 c2        1 0Z4      0.295000
     10 O1          1.7480    1.4270    0.3040 o         1 0Z4     -0.342000
     11 CB         -0.2520    3.2860   -1.3980 c3        1 0Z4     -0.178000
     12 CG         -0.7340    4.7130   -1.6960 c3        1 0Z4     -0.160000
     13 CD         -1.3680    4.7580   -3.1050 c3        1 0Z4     -0.188000
     14 CE         -1.7330    6.2060   -3.4580 c3        1 0Z4     -0.138000
     15 NZ         -2.2990    6.2510   -4.7950 n4        1 0Z4     -0.067000
     16 N1         -0.4270    0.7460    0.7410 n         1 0Z4     -0.363000
     17 CA1        -0.1420   -0.2070    1.8060 c3        1 0Z4     -0.003000
     18 C3          0.4310   -1.4780    1.2110 c2        1 0Z4      0.285000
     19 O2          1.5570   -1.8270    1.5000 o         1 0Z4     -0.330000
     20 CB1        -1.4040   -0.5250    2.5440 c3        1 0Z4     -0.176000
     21 CG1        -1.2560   -0.1110    4.0120 c3        1 0Z4     -0.110000
     22 CD1        -2.4840    0.7470    4.4380 c3        1 0Z4     -0.210500
     23 CD2        -1.1810   -1.3560    4.8860 c3        1 0Z4     -0.210500
     24 C11         0.1140   -3.6020   -0.0620 c1        1 0Z4      0.050000
     25 N11        -0.3960   -2.3260    0.4060 n2        1 0Z4     -0.317000
     26 C21         1.3620   -3.6720   -0.6680 c2        1 0Z4     -0.150000
     27 C31         1.8280   -4.8880   -1.1640 c1        1 0Z4     -0.103000
     28 C4          1.0440   -6.0290   -1.0520 c1        1 0Z4     -0.080000
     29 C5         -0.2010   -5.9570   -0.4470 c1        1 0Z4     -0.102000
     30 C6         -0.6670   -4.7420    0.0480 c1        1 0Z4     -0.178000
     31 C1'         1.6200   -7.4250   -1.4990 c3        1 0Z4     -0.070000
     32 C2'         2.9940   -7.6570   -0.8200 c3        1 0Z4     -0.206500
     33 C3'         1.7980   -7.4400   -3.0640 c3        1 0Z4     -0.206500
     34 H           2.0310    3.9100   -0.0710 hn        1 0Z4      0.273000
     35 HA         -0.6100    3.4190    0.6190 h1        1 0Z4      0.126000
     36 HB2        -0.9660    2.6580   -1.5860 hc        1 0Z4      0.113000
     37 HB3         0.5170    3.0800   -1.9570 hc        1 0Z4      0.113000
     38 HG2         0.0280    5.3290   -1.6610 hc        1 0Z4      0.108500
     39 HG3        -1.3930    4.9760   -1.0370 hc        1 0Z4      0.108500
     40 HD2        -0.7340    4.4160   -3.7560 hc        1 0Z4      0.110500
     41 HD3        -2.1760    4.2060   -3.1160 hc        1 0Z4      0.110500
     42 HE2        -2.3850    6.5420   -2.8180 hx        1 0Z4      0.157000
     43 HE3        -0.9320    6.7590   -3.4260 hx        1 0Z4      0.157000
     44 HZ1        -2.6030    7.1110   -4.9730 hn        1 0Z4      0.257000
     45 HZ2        -1.6590    6.0220   -5.4050 hn        1 0Z4      0.257000
     46 HZ3        -3.0020    5.6590   -4.8500 hn        1 0Z4      0.257000
     47 H1         -1.2140    0.7120    0.3040 hn        1 0Z4      0.231000
     48 HA1         0.5100    0.1820    2.4270 h1        1 0Z4      0.171000
     49 HB21       -1.5790   -1.4900    2.4930 hc        1 0Z4      0.096500
     50 HB31       -2.1480   -0.0380    2.1410 hc        1 0Z4      0.096500
     51 HG         -0.4360    0.4140    4.1220 hc        1 0Z4      0.102000
     52 HD11       -2.3690    1.0420    5.3740 hc        1 0Z4      0.077833
     53 HD12       -2.5530    1.5370    3.8500 hc        1 0Z4      0.077833
     54 HD13       -3.3030    0.2100    4.3630 hc        1 0Z4      0.077833
     55 HD21       -1.7880   -2.0430    4.5310 hc        1 0Z4      0.077833
     56 HD22       -0.2570   -1.7010    4.8870 hc        1 0Z4      0.077833
     57 HD23       -1.4450   -1.1290    5.7990 hc        1 0Z4      0.077833
     58 HN11       -1.2090   -2.0330    0.1260 hn        1 0Z4      0.225000
     59 H2          1.9200   -2.8590   -0.7470 ha        1 0Z4      0.168000
     60 H3          2.7100   -4.9380   -1.5930 ha        1 0Z4      0.140000
     61 H5         -0.7580   -6.7660   -0.3680 ha        1 0Z4      0.138000
     62 H6         -1.5600   -4.6920    0.4820 ha        1 0Z4      0.128000
     63 H1'         0.9960   -8.1390   -1.2310 hc        1 0Z4      0.093000
     64 H2'1        2.8730   -7.6950    0.1680 hc        1 0Z4      0.077333
     65 H2'2        3.6030   -6.9170   -1.0490 hc        1 0Z4      0.077333
     66 H2'3        3.3760   -8.5060   -1.1360 hc        1 0Z4      0.077333
     67 H3'1        0.9090   -7.5190   -3.4980 hc        1 0Z4      0.077333
     68 H3'2        2.3610   -8.2090   -3.3250 hc        1 0Z4      0.077333
     69 H3'3        2.2310   -6.6030   -3.3520 hc        1 0Z4      0.077333
@<TRIPOS>BOND
     1    1    3 1   
     2    1    7 1   
     3    2    4 1   
     4    2    5 1   
     5    2    6 1   
     6    7    8 1   
     7    7   34 1   
     8    8    9 1   
     9    8   11 1   
    10    8   35 1   
    11    9   10 1   
    12    9   16 1   
    13   11   12 1   
    14   11   36 1   
    15   11   37 1   
    16   12   13 1   
    17   12   38 1   
    18   12   39 1   
    19   13   14 1   
    20   13   40 1   
    21   13   41 1   
    22   14   15 1   
    23   14   42 1   
    24   14   43 1   
    25   15   44 1   
    26   15   45 1   
    27   15   46 1   
    28   16   17 1   
    29   16   47 1   
    30   17   18 1   
    31   17   20 1   
    32   17   48 1   
    33   18   19 1   
    34   18   25 1   
    35   20   21 1   
    36   20   49 1   
    37   20   50 1   
    38   21   22 1   
    39   21   23 1   
    40   21   51 1   
    41   22   52 1   
    42   22   53 1   
    43   22   54 1   
    44   23   55 1   
    45   23   56 1   
    46   23   57 1   
    47   24   26 1   
    48   24   30 1   
    49   25   58 1   
    50   26   27 1   
    51   26   59 1   
    52   27   60 1   
    53   28   29 1   
    54   28   31 1   
    55   29   61 1   
    56   30   62 1   
    57   31   32 1   
    58   31   33 1   
    59   31   63 1   
    60   32   64 1   
    61   32   65 1   
    62   32   66 1   
    63   33   67 1   
    64   33   68 1   
    65   33   69 1   
@<TRIPOS>SUBSTRUCTURE
     1 0Z4         1 TEMP              0 ****  ****    0 ROOT
