@<TRIPOS>MOLECULE
0Z4
   69    69     1     0     0
SMALL
bcc


@<TRIPOS>ATOM
      1 C1         -4.7070    1.0080    0.8700 c         1 0Z4      0.648100
      2 C2         -5.7320    0.9150    2.0720 c3        1 0Z4      0.572900
      3 O          -5.0960    1.5800   -0.1730 o         1 0Z4     -0.683100
      4 F1         -6.7290    1.8420    1.9430 f         1 0Z4     -0.209300
      5 F2         -6.3400   -0.3040    2.1510 f         1 0Z4     -0.209300
      6 F3         -5.1710    1.1430    3.2980 f         1 0Z4     -0.209300
      7 N          -3.4780    0.4830    1.0640 n         1 0Z4     -0.503900
      8 CA         -2.4740    0.4010    0.0190 c3        1 0Z4      0.022700
      9 C          -1.4480   -0.7180    0.3620 c         1 0Z4      0.639100
     10 O1         -1.2380   -1.0470    1.5430 o         1 0Z4     -0.574100
     11 CB         -1.6570    1.6900   -0.1960 c3        1 0Z4     -0.108400
     12 CG         -2.3780    2.7080   -1.0580 c3        1 0Z4     -0.086400
     13 CD         -2.9700    3.8370   -0.2390 c3        1 0Z4     -0.105400
     14 CE         -3.9200    4.7100   -1.0500 c3        1 0Z4      0.107800
     15 NZ         -5.2270    4.0460   -1.3220 n4        1 0Z4     -0.836600
     16 N1         -0.8360   -1.3320   -0.7170 n         1 0Z4     -0.505900
     17 CA1         0.4670   -1.9530   -0.5470 c3        1 0Z4      0.015700
     18 C3          1.5820   -0.8640   -0.6280 c         1 0Z4      0.636100
     19 O2          1.3950    0.1500   -1.3370 o         1 0Z4     -0.635100
     20 CB1         0.7200   -3.0120   -1.6300 c3        1 0Z4     -0.082400
     21 CG1         1.8730   -3.9530   -1.3120 c3        1 0Z4     -0.071700
     22 CD1         1.6510   -4.7210   -0.0260 c3        1 0Z4     -0.095600
     23 CD2         2.0470   -4.9200   -2.4700 c3        1 0Z4     -0.095600
     24 C11         3.8450   -0.2510    0.2160 ca        1 0Z4      0.039600
     25 N11         2.7070   -1.0810    0.1260 n         1 0Z4     -0.444100
     26 C21         4.1050    0.7960   -0.6890 ca        1 0Z4     -0.156000
     27 C31         5.2550    1.5690   -0.5490 ca        1 0Z4     -0.104000
     28 C4          6.1720    1.3280    0.4770 ca        1 0Z4     -0.080300
     29 C5          5.9150    0.2840    1.3740 ca        1 0Z4     -0.104000
     30 C6          4.7740   -0.4970    1.2550 ca        1 0Z4     -0.156000
     31 C1'         7.4040    2.1680    0.6050 c3        1 0Z4     -0.024400
     32 C2'         7.4260    2.9030    1.9310 c3        1 0Z4     -0.089100
     33 C3'         8.6560    1.3260    0.4440 c3        1 0Z4     -0.089100
     34 H          -3.2420    0.0640    1.9450 hn        1 0Z4      0.371500
     35 HA         -3.0120    0.1420   -0.9450 h1        1 0Z4      0.089700
     36 HB2        -1.3720    2.1370    0.7930 hc        1 0Z4      0.091700
     37 HB3        -0.6940    1.4070   -0.7100 hc        1 0Z4      0.091700
     38 HG2        -1.6490    3.1400   -1.7970 hc        1 0Z4      0.054700
     39 HG3        -3.1820    2.1950   -1.6500 hc        1 0Z4      0.054700
     40 HD2        -3.4960    3.4240    0.6630 hc        1 0Z4      0.083700
     41 HD3        -2.1440    4.5040    0.1340 hc        1 0Z4      0.083700
     42 HE2        -4.1360    5.6640   -0.4860 hx        1 0Z4      0.106700
     43 HE3        -3.4530    4.9720   -2.0430 hx        1 0Z4      0.106700
     44 HZ1        -5.8460    4.6660   -1.8460 hn        1 0Z4      0.466800
     45 HZ2        -5.0750    3.1750   -1.8510 hn        1 0Z4      0.466800
     46 HZ3        -5.6760    3.7700   -0.4370 hn        1 0Z4      0.466800
     47 H1         -0.9590   -0.8970   -1.6090 hn        1 0Z4      0.310500
     48 HA1         0.4710   -2.4430    0.4730 h1        1 0Z4      0.109700
     49 HB21       -0.2110   -3.6290   -1.7610 hc        1 0Z4      0.064200
     50 HB31        0.9260   -2.4970   -2.6060 hc        1 0Z4      0.064200
     51 HG          2.8240   -3.3570   -1.2200 hc        1 0Z4      0.052700
     52 HD11        2.4080   -5.5380    0.0670 hc        1 0Z4      0.041700
     53 HD12        1.7530   -4.0540    0.8640 hc        1 0Z4      0.041700
     54 HD13        0.6340   -5.1820   -0.0100 hc        1 0Z4      0.041700
     55 HD21        2.2140   -4.3630   -3.4230 hc        1 0Z4      0.041700
     56 HD22        2.9280   -5.5810   -2.2870 hc        1 0Z4      0.041700
     57 HD23        1.1410   -5.5620   -2.5860 hc        1 0Z4      0.041700
     58 HN11        2.7420   -1.9160    0.6710 hn        1 0Z4      0.327500
     59 H2          3.4070    1.0150   -1.5120 ha        1 0Z4      0.147500
     60 H3          5.4400    2.3820   -1.2690 ha        1 0Z4      0.140000
     61 H5          6.6290    0.0780    2.1880 ha        1 0Z4      0.140000
     62 H6          4.6040   -1.3100    1.9780 ha        1 0Z4      0.147500
     63 H1'         7.3980    2.9400   -0.2190 hc        1 0Z4      0.052700
     64 H2'1        7.4490    2.1810    2.7830 hc        1 0Z4      0.039033
     65 H2'2        8.3330    3.5510    1.9920 hc        1 0Z4      0.039033
     66 H2'3        6.5200    3.5460    2.0370 hc        1 0Z4      0.039033
     67 H3'1        8.7180    0.5530    1.2470 hc        1 0Z4      0.039033
     68 H3'2        8.6530    0.8090   -0.5460 hc        1 0Z4      0.039033
     69 H3'3        9.5620    1.9760    0.5050 hc        1 0Z4      0.039033
@<TRIPOS>BOND
     1    1    2 1   
     2    1    3 2   
     3    1    7 1   
     4    2    4 1   
     5    2    5 1   
     6    2    6 1   
     7    7    8 1   
     8    7   34 1   
     9    8    9 1   
    10    8   11 1   
    11    8   35 1   
    12    9   10 2   
    13    9   16 1   
    14   11   12 1   
    15   11   36 1   
    16   11   37 1   
    17   12   13 1   
    18   12   38 1   
    19   12   39 1   
    20   13   14 1   
    21   13   40 1   
    22   13   41 1   
    23   14   15 1   
    24   14   42 1   
    25   14   43 1   
    26   15   44 1   
    27   15   45 1   
    28   15   46 1   
    29   16   17 1   
    30   16   47 1   
    31   17   18 1   
    32   17   20 1   
    33   17   48 1   
    34   18   19 2   
    35   18   25 1   
    36   20   21 1   
    37   20   49 1   
    38   20   50 1   
    39   21   22 1   
    40   21   23 1   
    41   21   51 1   
    42   22   52 1   
    43   22   53 1   
    44   22   54 1   
    45   23   55 1   
    46   23   56 1   
    47   23   57 1   
    48   24   25 1   
    49   24   26 ar  
    50   24   30 ar  
    51   25   58 1   
    52   26   27 ar  
    53   26   59 1   
    54   27   28 ar  
    55   27   60 1   
    56   28   29 ar  
    57   28   31 1   
    58   29   30 ar  
    59   29   61 1   
    60   30   62 1   
    61   31   32 1   
    62   31   33 1   
    63   31   63 1   
    64   32   64 1   
    65   32   65 1   
    66   32   66 1   
    67   33   67 1   
    68   33   68 1   
    69   33   69 1   
@<TRIPOS>SUBSTRUCTURE
     1 0Z4         1 TEMP              0 ****  ****    0 ROOT
