@<TRIPOS>MOLECULE
0Z6
   71    72     1     0     0
SMALL
bcc


@<TRIPOS>ATOM
      1 N           0.3430    2.0590    1.9350 n3        1 0Z6     -0.939800
      2 CA          1.1260    1.2060    1.0520 c3        1 0Z6      0.095500
      3 C           0.2820    0.7020   -0.1410 c         1 0Z6      0.648100
      4 O          -0.7310    1.3250   -0.5310 o         1 0Z6     -0.642100
      5 CB          2.3950    1.8580    0.4670 c3        1 0Z6     -0.067100
      6 CG          3.2920    2.3590    1.5420 ca        1 0Z6     -0.109300
      7 CD1         4.1580    1.4800    2.2040 ca        1 0Z6     -0.130500
      8 CD2         3.2940    3.7150    1.8870 ca        1 0Z6     -0.130500
      9 CE1         5.0120    1.9520    3.1990 ca        1 0Z6     -0.123000
     10 CE2         4.1510    4.1850    2.8820 ca        1 0Z6     -0.123000
     11 CZ          5.0090    3.3050    3.5400 ca        1 0Z6     -0.118000
     12 N1          0.6740   -0.4710   -0.7350 n         1 0Z6     -0.543900
     13 CA1         0.0380   -0.9730   -1.9330 c3        1 0Z6      0.043700
     14 C1         -1.3340   -1.6060   -1.5730 c         1 0Z6      0.633100
     15 O1         -1.4110   -2.7850   -1.1830 o         1 0Z6     -0.592100
     16 CB1         0.8740   -2.0480   -2.6500 c3        1 0Z6     -0.046100
     17 CG1         2.2530   -1.5770   -2.9430 ca        1 0Z6     -0.105300
     18 CD11        3.3250   -1.9990   -2.1470 ca        1 0Z6     -0.131000
     19 CD21        2.4960   -0.7280   -4.0290 ca        1 0Z6     -0.131000
     20 CE11        4.6210   -1.5750   -2.4330 ca        1 0Z6     -0.123500
     21 CE21        3.7930   -0.3030   -4.3110 ca        1 0Z6     -0.123500
     22 CZ1         4.8570   -0.7250   -3.5140 ca        1 0Z6     -0.119000
     23 N2         -2.4470   -0.8020   -1.7360 n         1 0Z6     -0.548900
     24 CA2        -3.7300   -1.1770   -1.1830 c3        1 0Z6      0.061700
     25 C2         -4.8780   -1.0740   -2.2360 c3        1 0Z6      0.130100
     26 O2         -6.0950   -1.4010   -1.5900 oh        1 0Z6     -0.588800
     27 CB2        -4.1390   -0.3140    0.0260 c3        1 0Z6     -0.099400
     28 CG2        -3.1190   -0.3990    1.1390 c3        1 0Z6     -0.098400
     29 CD         -3.5300    0.5050    2.3030 c3        1 0Z6      0.018300
     30 NE         -2.3940    0.8520    3.1370 nh        1 0Z6     -0.383100
     31 CZ2        -2.4740    1.7440    4.1820 cz        1 0Z6      0.516300
     32 NH1        -3.6950    2.2020    4.6300 nh        1 0Z6     -0.509700
     33 NH2        -1.3190    2.1570    4.8120 nh        1 0Z6     -0.509700
     34 C3         -4.5900   -1.9670   -3.4330 c3        1 0Z6     -0.007000
     35 CL         -5.8370   -1.8540   -4.6540 cl        1 0Z6     -0.158400
     36 H           0.9680    2.6710    2.4310 hn        1 0Z6      0.368300
     37 H2         -0.2860    2.6250    1.3900 hn        1 0Z6      0.368300
     38 HA          1.4470    0.3210    1.6810 h1        1 0Z6      0.078700
     39 HB2         2.9400    1.0960   -0.1510 hc        1 0Z6      0.072700
     40 HB3         2.1010    2.6990   -0.2170 hc        1 0Z6      0.072700
     41 HD1         4.1740    0.4150    1.9280 ha        1 0Z6      0.132000
     42 HD2         2.6360    4.4190    1.3550 ha        1 0Z6      0.132000
     43 HE1         5.6970    1.2570    3.7090 ha        1 0Z6      0.143000
     44 HE2         4.1570    5.2560    3.1390 ha        1 0Z6      0.143000
     45 HZ          5.6910    3.6780    4.3190 ha        1 0Z6      0.145000
     46 H1          1.5240   -0.9100   -0.4630 hn        1 0Z6      0.334500
     47 HA1        -0.1170   -0.1050   -2.6450 h1        1 0Z6      0.081700
     48 HB21        0.8960   -2.9820   -2.0250 hc        1 0Z6      0.083700
     49 HB31        0.3400   -2.3000   -3.6060 hc        1 0Z6      0.083700
     50 HD11        3.1470   -2.6890   -1.3080 ha        1 0Z6      0.132500
     51 HD21        1.6600   -0.4030   -4.6660 ha        1 0Z6      0.132500
     52 HE11        5.4610   -1.9200   -1.8120 ha        1 0Z6      0.141000
     53 HE21        3.9780    0.3600   -5.1700 ha        1 0Z6      0.141000
     54 HZ1         5.8820   -0.3950   -3.7430 ha        1 0Z6      0.143000
     55 H3         -2.2930    0.1760   -1.8610 hn        1 0Z6      0.327500
     56 HA2        -3.6690   -2.2570   -0.8470 h1        1 0Z6      0.090700
     57 HB22       -4.2650    0.7510   -0.3020 hc        1 0Z6      0.068200
     58 HB32       -5.1390   -0.6790    0.3820 hc        1 0Z6      0.068200
     59 HG2        -3.0260   -1.4580    1.4960 hc        1 0Z6      0.071200
     60 HG3        -2.1140   -0.0840    0.7440 hc        1 0Z6      0.071200
     61 HD22       -3.9990    1.4480    1.8940 h1        1 0Z6      0.065200
     62 HD3        -4.2950   -0.0300    2.9370 h1        1 0Z6      0.065200
     63 HE         -1.4860    0.6140    2.7790 hn        1 0Z6      0.337700
     64 HH11       -4.5390    1.8900    4.2060 hn        1 0Z6      0.324950
     65 HH12       -3.7570    2.7850    5.4320 hn        1 0Z6      0.324950
     66 HH21       -1.3560    2.7340    5.6190 hn        1 0Z6      0.324950
     67 HH22       -0.4270    1.8800    4.4650 hn        1 0Z6      0.324950
     68 H11        -3.6360   -1.6670   -3.9290 h1        1 0Z6      0.080200
     69 H21        -4.5310   -3.0390   -3.1230 h1        1 0Z6      0.080200
     70 H35        -5.0110   -0.0030   -2.5580 h1        1 0Z6      0.090700
     71 H36        -6.1910   -2.3610   -1.5980 ho        1 0Z6      0.411000
@<TRIPOS>BOND
     1    1    2 1   
     2    1   36 1   
     3    1   37 1   
     4    2    3 1   
     5    2    5 1   
     6    2   38 1   
     7    3    4 2   
     8    3   12 1   
     9    5    6 1   
    10    5   39 1   
    11    5   40 1   
    12    6    7 ar  
    13    6    8 ar  
    14    7    9 ar  
    15    7   41 1   
    16    8   10 ar  
    17    8   42 1   
    18    9   11 ar  
    19    9   43 1   
    20   10   11 ar  
    21   10   44 1   
    22   11   45 1   
    23   12   13 1   
    24   12   46 1   
    25   13   14 1   
    26   13   16 1   
    27   13   47 1   
    28   14   15 2   
    29   14   23 1   
    30   16   17 1   
    31   16   48 1   
    32   16   49 1   
    33   17   18 ar  
    34   17   19 ar  
    35   18   20 ar  
    36   18   50 1   
    37   19   21 ar  
    38   19   51 1   
    39   20   22 ar  
    40   20   52 1   
    41   21   22 ar  
    42   21   53 1   
    43   22   54 1   
    44   23   24 1   
    45   23   55 1   
    46   24   25 1   
    47   24   27 1   
    48   24   56 1   
    49   25   26 1   
    50   25   34 1   
    51   25   70 1   
    52   26   71 1   
    53   27   28 1   
    54   27   57 1   
    55   27   58 1   
    56   28   29 1   
    57   28   59 1   
    58   28   60 1   
    59   29   30 1   
    60   29   61 1   
    61   29   62 1   
    62   30   31 2   
    63   30   63 1   
    64   31   32 1   
    65   31   33 1   
    66   32   64 1   
    67   32   65 1   
    68   33   66 1   
    69   33   67 1   
    70   34   35 1   
    71   34   68 1   
    72   34   69 1   
@<TRIPOS>SUBSTRUCTURE
     1 0Z6         1 TEMP              0 ****  ****    0 ROOT
