@<TRIPOS>MOLECULE
0Z6
   71    67     1     0     0
SMALL
bcc


@<TRIPOS>ATOM
      1 N           0.4700   -2.1140   -4.6760 n3        1 0Z6     -0.357000
      2 CA          1.3600   -1.2610   -3.9550 c3        1 0Z6     -0.053000
      3 C           1.0020   -1.2950   -2.4730 c2        1 0Z6      0.317000
      4 O           0.7310   -2.3160   -1.9580 o         1 0Z6     -0.443000
      5 CB          2.7610   -1.7370   -4.1400 c3        1 0Z6     -0.154000
      6 CG          3.2190   -1.4480   -5.6030 c2        1 0Z6     -0.107000
      7 CD1         3.5910   -0.1160   -5.9860 c1        1 0Z6     -0.122000
      8 CD2         3.3850   -2.5030   -6.5010 c2        1 0Z6     -0.138000
      9 CE1         4.1200    0.1230   -7.2580 c1        1 0Z6     -0.118500
     10 CE2         3.9260   -2.2590   -7.8040 c1        1 0Z6     -0.122000
     11 CZ          4.2890   -0.9640   -8.1790 c1        1 0Z6     -0.118500
     12 N1          0.9020   -0.0410   -1.7130 n         1 0Z6     -0.340000
     13 CA1         0.8940   -0.0680   -0.3040 c3        1 0Z6      0.020000
     14 C1         -0.5110    0.3040    0.2090 c2        1 0Z6      0.281000
     15 O1         -1.4150    0.5150   -0.5900 o         1 0Z6     -0.381000
     16 CB1         1.9130    0.9360    0.2280 c3        1 0Z6     -0.130000
     17 CG1         3.3230    0.3200    0.1760 c2        1 0Z6     -0.097000
     18 CD11        3.6270   -0.7690    0.9650 c2        1 0Z6     -0.124000
     19 CD21        4.3350    0.9570   -0.5590 c1        1 0Z6     -0.131000
     20 CE11        4.9400   -1.2350    1.0320 c1        1 0Z6     -0.121000
     21 CE21        5.6280    0.4950   -0.4910 c1        1 0Z6     -0.118500
     22 CZ1         5.9380   -0.6030    0.3040 c1        1 0Z6     -0.118500
     23 N2         -0.7860    0.2920    1.6040 n         1 0Z6     -0.373000
     24 CA2        -1.9750    0.9270    2.1010 c3        1 0Z6      0.035000
     25 C2         -1.7190    2.3890    2.2860 c3        1 0Z6      0.008000
     26 O2         -1.4140    2.6430    3.6340 oh        1 0Z6     -0.337000
     27 CB2        -2.3640    0.3070    3.4350 c3        1 0Z6     -0.172000
     28 CG2        -3.8880   -0.0670    3.4120 c3        1 0Z6     -0.180000
     29 CD         -4.5510    0.3590    4.7510 c3        1 0Z6     -0.042000
     30 NE         -5.8230   -0.2880    4.8760 n3        1 0Z6     -0.307000
     31 CZ2        -6.6470   -0.0330    6.0040 c2        1 0Z6      0.382000
     32 NH1        -8.0520    0.1100    5.8410 n3        1 0Z6     -0.364000
     33 NH2        -6.1140    0.0690    7.1960 n2        1 0Z6     -0.307000
     34 C3         -2.9670    3.1780    1.8900 c3        1 0Z6     -0.168000
     35 CL         -2.6960    4.8650    2.1660 cl        1 0Z6     -0.089000
     36 H          -0.2670   -1.6360   -4.9390 hn        1 0Z6      0.158000
     37 H2          0.2100   -2.8030   -4.1410 hn        1 0Z6      0.158000
     38 HA          1.2800   -0.3580   -4.2860 h1        1 0Z6      0.125000
     39 HB2         3.3650   -1.2570   -3.5000 hc        1 0Z6      0.109500
     40 HB3         2.8040   -2.7210   -3.9650 hc        1 0Z6      0.109500
     41 HD1         3.4740    0.6320   -5.3520 ha        1 0Z6      0.132000
     42 HD2         3.1300   -3.4160   -6.2370 ha        1 0Z6      0.129000
     43 HE1         4.3780    1.0450   -7.5230 ha        1 0Z6      0.144500
     44 HE2         4.0420   -2.9980   -8.4310 ha        1 0Z6      0.144000
     45 HZ          4.6610   -0.7970   -9.0740 ha        1 0Z6      0.144500
     46 H1          0.9080    0.7500   -2.1480 hn        1 0Z6      0.248000
     47 HA1         1.1340   -0.9880    0.0160 h1        1 0Z6      0.129000
     48 HB21        1.6900    1.1690    1.1600 hc        1 0Z6      0.114000
     49 HB31        1.8900    1.7600   -0.3350 hc        1 0Z6      0.114000
     50 HD11        2.9140   -1.2190    1.4850 ha        1 0Z6      0.130000
     51 HD21        4.1120    1.7630   -1.1430 ha        1 0Z6      0.131000
     52 HE11        5.1610   -2.0180    1.5980 ha        1 0Z6      0.142000
     53 HE21        6.3360    0.9420   -1.0070 ha        1 0Z6      0.144500
     54 HZ1         6.8530   -0.9270    0.3500 ha        1 0Z6      0.144500
     55 H3         -0.1630   -0.0220    2.1850 hn        1 0Z6      0.245000
     56 HA2        -2.7020    0.8020    1.4610 h1        1 0Z6      0.128000
     57 HB22       -1.8240   -0.5130    3.5890 hc        1 0Z6      0.108000
     58 HB32       -2.1980    0.9400    4.1460 hc        1 0Z6      0.108000
     59 HG2        -4.3310    0.4030    2.6610 hc        1 0Z6      0.110000
     60 HG3        -3.9830   -1.0340    3.2940 hc        1 0Z6      0.110000
     61 HD22       -4.6780    1.3470    4.7600 h1        1 0Z6      0.117000
     62 HD3        -3.9850    0.1010    5.4870 h1        1 0Z6      0.117000
     63 HE         -6.0230   -0.9640    4.3250 hn        1 0Z6      0.266000
     64 HH11       -8.4520   -0.1550    5.0700 hn        1 0Z6      0.266500
     65 HH12       -8.5680    0.3890    6.5510 hn        1 0Z6      0.266500
     66 HH21       -5.2190   -0.0200    7.3170 DU        1 0Z6      0.276000
     67 HH22       -6.6670    0.2370    7.9240 hn        1 0Z6      0.246000
     68 H11        -3.7440    2.8700    2.4420 h1        1 0Z6      0.122000
     69 H21        -3.1640    3.0290    0.9280 h1        1 0Z6      0.122000
     70 H35        -0.9660    2.6640    1.7230 h1        1 0Z6      0.105000
     71 H36        -0.8400    3.3320    3.6870 ho        1 0Z6      0.226000
@<TRIPOS>BOND
     1    1    2 1   
     2    1   36 1   
     3    1   37 1   
     4    2    3 1   
     5    2    5 1   
     6    2   38 1   
     7    3    4 1   
     8    3   12 1   
     9    5    6 1   
    10    5   39 1   
    11    5   40 1   
    12    6    7 1   
    13    6    8 1   
    14    7   41 1   
    15    8   10 1   
    16    8   42 1   
    17    9   11 1   
    18    9   43 1   
    19   10   44 1   
    20   11   45 1   
    21   12   13 1   
    22   12   46 1   
    23   13   14 1   
    24   13   16 1   
    25   13   47 1   
    26   14   15 1   
    27   14   23 1   
    28   16   17 1   
    29   16   48 1   
    30   16   49 1   
    31   17   18 1   
    32   17   19 1   
    33   18   20 1   
    34   18   50 1   
    35   19   51 1   
    36   20   52 1   
    37   21   22 1   
    38   21   53 1   
    39   22   54 1   
    40   23   24 1   
    41   23   55 1   
    42   24   25 1   
    43   24   27 1   
    44   24   56 1   
    45   25   26 1   
    46   25   34 1   
    47   25   70 1   
    48   26   71 1   
    49   27   28 1   
    50   27   57 1   
    51   27   58 1   
    52   28   29 1   
    53   28   59 1   
    54   28   60 1   
    55   29   30 1   
    56   29   61 1   
    57   29   62 1   
    58   30   31 1   
    59   30   63 1   
    60   31   32 1   
    61   31   33 1   
    62   32   64 1   
    63   32   65 1   
    64   33   67 1   
    65   34   35 1   
    66   34   68 1   
    67   34   69 1   
@<TRIPOS>SUBSTRUCTURE
     1 0Z6         1 TEMP              0 ****  ****    0 ROOT
