@<TRIPOS>MOLECULE
0Z9
   50    50     1     0     0
SMALL
bcc


@<TRIPOS>ATOM
      1 O4         -2.7940    0.1550    0.1270 os        1 0Z9     -0.434900
      2 O5         -1.5780   -0.7190    1.8230 o         1 0Z9     -0.591000
      3 C11        -3.8670    0.2590    1.0870 c3        1 0Z9      0.196700
      4 C12        -5.0250    0.8980    0.3990 ca        1 0Z9     -0.097300
      5 C13        -7.2560    2.0610   -0.8180 ca        1 0Z9     -0.124000
      6 C14        -7.0020    2.2860    0.5350 ca        1 0Z9     -0.131500
      7 C15        -5.8880    1.7110    1.1440 ca        1 0Z9     -0.111000
      8 C16        -5.2820    0.6740   -0.9570 ca        1 0Z9     -0.111000
      9 C17        -6.3940    1.2570   -1.5630 ca        1 0Z9     -0.131500
     10 C10        -1.6370   -0.4100    0.6200 c         1 0Z9      0.732100
     11 N          -0.6840   -0.6270   -0.3620 n         1 0Z9     -0.508900
     12 CA          0.6810   -0.8820    0.0360 c3        1 0Z9      0.035700
     13 C           1.6020    0.3200   -0.3070 c         1 0Z9      0.631100
     14 O           1.3530    1.0810   -1.2620 o         1 0Z9     -0.606100
     15 CB          1.2910   -2.1090   -0.6620 c3        1 0Z9     -0.079400
     16 CG          0.5450   -3.4030   -0.3740 c3        1 0Z9     -0.063700
     17 CD1         1.2350   -4.5460   -1.0940 c3        1 0Z9     -0.097600
     18 CD2         0.4590   -3.6900    1.1100 c3        1 0Z9     -0.097600
     19 N1          2.6930    0.5170    0.5160 n         1 0Z9     -0.547900
     20 CA1         3.7110    1.4920    0.2150 c3        1 0Z9      0.029700
     21 CB1         3.9420    2.4830    1.3580 c3        1 0Z9     -0.108100
     22 C1          5.0730    0.8210   -0.0740 c         1 0Z9      0.568100
     23 O1          5.3790   -0.2950    0.3740 o         1 0Z9     -0.564100
     24 N2          5.9290    1.4980   -0.9910 n         1 0Z9     -0.346400
     25 OH          7.2160    1.1530   -0.9170 oh        1 0Z9     -0.434100
     26 H19        -4.1280   -0.7750    1.4410 h1        1 0Z9      0.064700
     27 H20        -3.5090    0.8680    1.9590 h1        1 0Z9      0.064700
     28 H21        -8.1350    2.5180   -1.2960 ha        1 0Z9      0.132000
     29 H22        -7.6800    2.9210    1.1240 ha        1 0Z9      0.133000
     30 H23        -5.6870    1.8960    2.2090 ha        1 0Z9      0.139000
     31 H24        -4.5950    0.0430   -1.5420 ha        1 0Z9      0.139000
     32 H25        -6.5900    1.0810   -2.6310 ha        1 0Z9      0.133000
     33 H          -0.8120   -0.1600   -1.2360 hn        1 0Z9      0.337500
     34 HA          0.6940   -1.0620    1.1560 h1        1 0Z9      0.106700
     35 HB2         1.3160   -1.9370   -1.7700 hc        1 0Z9      0.056700
     36 HB3         2.3510   -2.2070   -0.3060 hc        1 0Z9      0.056700
     37 HG         -0.5020   -3.3140   -0.7800 hc        1 0Z9      0.060700
     38 HD11        2.2720   -4.6870   -0.7040 hc        1 0Z9      0.038367
     39 HD12        0.6670   -5.4950   -0.9400 hc        1 0Z9      0.038367
     40 HD13        1.2930   -4.3400   -2.1900 hc        1 0Z9      0.038367
     41 HD21        1.4690   -3.6420    1.5820 hc        1 0Z9      0.038367
     42 HD22       -0.2110   -2.9520    1.6160 hc        1 0Z9      0.038367
     43 HD23        0.0410   -4.7130    1.2780 hc        1 0Z9      0.038367
     44 HN1         2.9410   -0.1890    1.1720 hn        1 0Z9      0.327500
     45 HA1         3.3750    2.0680   -0.7040 h1        1 0Z9      0.112700
     46 HB1         4.6990    3.2400    1.0420 hc        1 0Z9      0.053700
     47 HB21        2.9900    3.0140    1.6050 hc        1 0Z9      0.053700
     48 HB31        4.3100    1.9640    2.2750 hc        1 0Z9      0.053700
     49 HN2         5.8740    2.5080   -0.9110 hn        1 0Z9      0.301500
     50 HO          7.2790    0.2690   -1.3300 ho        1 0Z9      0.437000
@<TRIPOS>BOND
     1    1    3 1   
     2    1   10 1   
     3    2   10 2   
     4    3    4 1   
     5    3   26 1   
     6    3   27 1   
     7    4    7 ar  
     8    4    8 ar  
     9    5    6 ar  
    10    5    9 ar  
    11    5   28 1   
    12    6    7 ar  
    13    6   29 1   
    14    7   30 1   
    15    8    9 ar  
    16    8   31 1   
    17    9   32 1   
    18   10   11 1   
    19   11   12 1   
    20   11   33 1   
    21   12   13 1   
    22   12   15 1   
    23   12   34 1   
    24   13   14 2   
    25   13   19 1   
    26   15   16 1   
    27   15   35 1   
    28   15   36 1   
    29   16   17 1   
    30   16   18 1   
    31   16   37 1   
    32   17   38 1   
    33   17   39 1   
    34   17   40 1   
    35   18   41 1   
    36   18   42 1   
    37   18   43 1   
    38   19   20 1   
    39   19   44 1   
    40   20   21 1   
    41   20   22 1   
    42   20   45 1   
    43   21   46 1   
    44   21   47 1   
    45   21   48 1   
    46   22   23 2   
    47   22   24 1   
    48   24   25 1   
    49   24   49 1   
    50   25   50 1   
@<TRIPOS>SUBSTRUCTURE
     1 0Z9         1 TEMP              0 ****  ****    0 ROOT
