@<TRIPOS>MOLECULE
0Z9
   50    47     1     0     0
SMALL
bcc


@<TRIPOS>ATOM
      1 O4          1.9570   -1.3450    1.2610 os        1 0Z9     -0.275000
      2 O5          1.9940    0.5820   -0.0740 o         1 0Z9     -0.393000
      3 C11         3.3260   -1.2040    1.5200 c3        1 0Z9      0.034000
      4 C12         3.6110   -1.5910    2.9850 c2        1 0Z9     -0.115000
      5 C13         4.2370   -2.2560    5.6160 c1        1 0Z9     -0.128000
      6 C14         4.1910   -0.9290    5.2380 c1        1 0Z9     -0.134000
      7 C15         3.8790   -0.5890    3.9260 c2        1 0Z9     -0.108000
      8 C16         3.6570   -2.9270    3.3640 c1        1 0Z9     -0.106000
      9 C17         3.9690   -3.2660    4.6770 c1        1 0Z9     -0.128000
     10 C10         1.4800   -0.5540    0.1620 c1        1 0Z9      0.385000
     11 N           0.3270   -0.9920   -0.5790 n2        1 0Z9     -0.314000
     12 CA         -0.4500   -0.0520   -1.3260 c3        1 0Z9      0.011000
     13 C          -1.8260    0.0450   -0.7370 c2        1 0Z9      0.272000
     14 O          -2.4790   -0.9650   -0.5560 o         1 0Z9     -0.375000
     15 CB         -0.5570   -0.5250   -2.7800 c3        1 0Z9     -0.160000
     16 CG          0.4570    0.2690   -3.6660 c3        1 0Z9     -0.102000
     17 CD1         1.4910   -0.7570   -4.3370 c3        1 0Z9     -0.210000
     18 CD2        -0.3120    1.0400   -4.7590 c3        1 0Z9     -0.210000
     19 N1         -2.3110    1.3020   -0.2480 n         1 0Z9     -0.361000
     20 CA1        -3.6260    1.3950    0.2650 c3        1 0Z9      0.012000
     21 CB1        -3.5710    1.4530    1.7280 c3        1 0Z9     -0.224000
     22 C1         -4.3070    2.6870   -0.2830 c2        1 0Z9      0.209000
     23 O1         -3.6980    3.7650   -0.2570 o         1 0Z9     -0.324000
     24 N2         -5.6670    2.6370   -0.7680 n         1 0Z9     -0.190000
     25 OH         -6.3870    3.7870   -0.9010 oh        1 0Z9     -0.239000
     26 H19         3.8640   -1.8190    0.8870 h1        1 0Z9      0.116500
     27 H20         3.5830   -0.3020    1.3800 h1        1 0Z9      0.116500
     28 H21         4.4550   -2.4920    6.5310 ha        1 0Z9      0.132000
     29 H22         4.3870   -0.1890    5.9290 ha        1 0Z9      0.133000
     30 H23         3.8470    0.3950    3.6470 ha        1 0Z9      0.136000
     31 H24         3.4700   -3.6300    2.7080 ha        1 0Z9      0.142000
     32 H25         4.0010   -4.1770    4.9390 ha        1 0Z9      0.132000
     33 H           0.0650   -1.9150   -0.5550 hn        1 0Z9      0.245000
     34 HA         -0.0100    0.8440   -1.2950 h1        1 0Z9      0.143000
     35 HB2        -1.4720   -0.3720   -3.1070 hc        1 0Z9      0.100000
     36 HB3        -0.3490   -1.4940   -2.8280 hc        1 0Z9      0.100000
     37 HG          0.9490    0.9090   -3.1040 hc        1 0Z9      0.097000
     38 HD11        0.9920   -1.5640   -4.6890 hc        1 0Z9      0.076000
     39 HD12        1.9760   -0.2960   -5.1030 hc        1 0Z9      0.076000
     40 HD13        2.1310   -1.0410   -3.6760 hc        1 0Z9      0.076000
     41 HD21       -1.0200    1.5620   -4.3430 hc        1 0Z9      0.076000
     42 HD22       -0.7030    0.4080   -5.3930 hc        1 0Z9      0.076000
     43 HD23        0.3230    1.6650   -5.2500 hc        1 0Z9      0.076000
     44 HN1        -1.7650    1.9970   -0.1910 hn        1 0Z9      0.242000
     45 HA1        -4.1340    0.6200   -0.0100 h1        1 0Z9      0.140000
     46 HB1        -2.9600    0.8170    2.0410 hc        1 0Z9      0.096333
     47 HB21       -4.4270    1.2700    2.0870 hc        1 0Z9      0.096333
     48 HB31       -3.2850    2.3410    2.0060 hc        1 0Z9      0.096333
     49 HN2        -6.0260    1.8770   -0.9720 hn        1 0Z9      0.220000
     50 HO         -7.2760    3.5750   -1.1100 ho        1 0Z9      0.233000
@<TRIPOS>BOND
     1    1    3 1   
     2    1   10 1   
     3    2   10 1   
     4    3    4 1   
     5    3   26 1   
     6    3   27 1   
     7    4    7 1   
     8    4    8 1   
     9    5    9 1   
    10    5   28 1   
    11    6    7 1   
    12    6   29 1   
    13    7   30 1   
    14    8   31 1   
    15    9   32 1   
    16   11   12 1   
    17   11   33 1   
    18   12   13 1   
    19   12   15 1   
    20   12   34 1   
    21   13   14 1   
    22   13   19 1   
    23   15   16 1   
    24   15   35 1   
    25   15   36 1   
    26   16   17 1   
    27   16   18 1   
    28   16   37 1   
    29   17   38 1   
    30   17   39 1   
    31   17   40 1   
    32   18   41 1   
    33   18   42 1   
    34   18   43 1   
    35   19   20 1   
    36   19   44 1   
    37   20   21 1   
    38   20   22 1   
    39   20   45 1   
    40   21   46 1   
    41   21   47 1   
    42   21   48 1   
    43   22   23 1   
    44   22   24 1   
    45   24   25 1   
    46   24   49 1   
    47   25   50 1   
@<TRIPOS>SUBSTRUCTURE
     1 0Z9         1 TEMP              0 ****  ****    0 ROOT
