@<TRIPOS>MOLECULE
0ZA
   49    52     1     0     0
SMALL
bcc


@<TRIPOS>ATOM
      1 CL1        -6.0980   -0.4200   -0.9950 cl        1 0ZA     -0.082400
      2 C6         -4.4580   -0.2660   -0.5810 ca        1 0ZA      0.039400
      3 C5         -3.5310   -1.1970   -1.0570 ca        1 0ZA     -0.138000
      4 C4         -2.1850   -1.0640   -0.7220 ca        1 0ZA     -0.081000
      5 C3         -1.7590   -0.0020    0.0800 ca        1 0ZA     -0.181900
      6 C2         -2.7010    0.9170    0.5810 ca        1 0ZA     -0.036300
      7 C1         -4.0490    0.7880    0.2410 ca        1 0ZA     -0.132000
      8 C10        -0.3350    0.2120    0.4720 ce        1 0ZA      0.662800
      9 N9          0.0340    0.9950    1.4530 n2        1 0ZA     -0.686900
     10 C8         -0.9770    1.6720    2.2590 c3        1 0ZA      0.154200
     11 C11        -0.3950    2.9920    2.7980 c3        1 0ZA     -0.088100
     12 C12        -1.3860    0.8180    3.4730 c3        1 0ZA     -0.088100
     13 C7         -2.2550    2.0280    1.4620 c3        1 0ZA     -0.067100
     14 N13         0.6220   -0.5230   -0.2760 nh        1 0ZA     -0.784200
     15 C14         2.0230   -0.3830    0.0540 c3        1 0ZA      0.194200
     16 C25         2.5080    1.0610   -0.0350 cc        1 0ZA      0.541200
     17 N24         2.4940    1.8190   -1.1210 nd        1 0ZA     -0.624100
     18 C29         3.0330    3.0840   -0.7000 c         1 0ZA      0.812000
     19 O28         3.2820    4.1530   -1.2300 o         1 0ZA     -0.521500
     20 O26         3.3620    2.9900    0.7070 os        1 0ZA     -0.245400
     21 N27         3.1170    1.7200    1.1120 na        1 0ZA     -0.523700
     22 C18         2.9370   -1.2310   -0.8540 c3        1 0ZA     -0.039100
     23 C19         2.7010   -2.6870   -0.6730 ca        1 0ZA     -0.082300
     24 C24         2.1300   -3.4450   -1.7020 ca        1 0ZA     -0.122000
     25 C23         1.9290   -4.8150   -1.5370 ca        1 0ZA     -0.126500
     26 C22         2.2970   -5.4380   -0.3450 ca        1 0ZA     -0.125000
     27 C21         2.8690   -4.6880    0.6820 ca        1 0ZA     -0.126500
     28 C20         3.0720   -3.3190    0.5200 ca        1 0ZA     -0.122000
     29 H1         -3.8590   -2.0350   -1.6920 ha        1 0ZA      0.153000
     30 H2         -1.4740   -1.8210   -1.0890 ha        1 0ZA      0.151000
     31 H3         -4.7840    1.5120    0.6260 ha        1 0ZA      0.153000
     32 H4         -0.0850    3.6650    1.9640 hc        1 0ZA      0.043700
     33 H5         -1.1770    3.5080    3.4040 hc        1 0ZA      0.043700
     34 H6          0.4900    2.7920    3.4470 hc        1 0ZA      0.043700
     35 H7         -0.4920    0.5500    4.0840 hc        1 0ZA      0.043700
     36 H8         -2.0910    1.4010    4.1120 hc        1 0ZA      0.043700
     37 H9         -1.8920   -0.1190    3.1400 hc        1 0ZA      0.043700
     38 H10        -2.0550    2.9330    0.8240 hc        1 0ZA      0.067700
     39 H11        -3.0670    2.3020    2.1860 hc        1 0ZA      0.067700
     40 H12         0.4350   -0.5010   -1.2600 hn        1 0ZA      0.417800
     41 H13         2.1510   -0.7400    1.1220 h1        1 0ZA      0.101700
     42 H14         2.5110    1.7380    1.9280 hn        1 0ZA      0.435800
     43 H15         2.7910   -0.9380   -1.9280 hc        1 0ZA      0.072700
     44 H16         4.0000   -0.9870   -0.5800 hc        1 0ZA      0.072700
     45 H17         1.8410   -2.9590   -2.6460 ha        1 0ZA      0.131000
     46 H18         1.4820   -5.4040   -2.3510 ha        1 0ZA      0.133500
     47 H19         2.1390   -6.5190   -0.2170 ha        1 0ZA      0.134000
     48 H20         3.1630   -5.1780    1.6230 ha        1 0ZA      0.133500
     49 H21         3.5280   -2.7320    1.3310 ha        1 0ZA      0.131000
@<TRIPOS>BOND
     1    1    2 1   
     2    2    3 ar  
     3    2    7 ar  
     4    3    4 ar  
     5    3   29 1   
     6    4    5 ar  
     7    4   30 1   
     8    5    6 ar  
     9    5    8 1   
    10    6    7 ar  
    11    6   13 1   
    12    7   31 1   
    13    8    9 2   
    14    8   14 1   
    15    9   10 1   
    16   10   11 1   
    17   10   12 1   
    18   10   13 1   
    19   11   32 1   
    20   11   33 1   
    21   11   34 1   
    22   12   35 1   
    23   12   36 1   
    24   12   37 1   
    25   13   38 1   
    26   13   39 1   
    27   14   15 1   
    28   14   40 1   
    29   15   16 1   
    30   15   22 1   
    31   15   41 1   
    32   16   17 2   
    33   16   21 1   
    34   17   18 1   
    35   18   19 2   
    36   18   20 1   
    37   20   21 1   
    38   21   42 1   
    39   22   23 1   
    40   22   43 1   
    41   22   44 1   
    42   23   24 ar  
    43   23   28 ar  
    44   24   25 ar  
    45   24   45 1   
    46   25   26 ar  
    47   25   46 1   
    48   26   27 ar  
    49   26   47 1   
    50   27   28 ar  
    51   27   48 1   
    52   28   49 1   
@<TRIPOS>SUBSTRUCTURE
     1 0ZA         1 TEMP              0 ****  ****    0 ROOT
