@<TRIPOS>MOLECULE
0ZA
   50    53     1     0     0
SMALL
bcc


@<TRIPOS>ATOM
      1 CL1        -0.0250    0.3020    0.1120 cl        1 0ZA     -0.022400
      2 C6          1.6620    0.2710    0.0700 ca        1 0ZA      0.061400
      3 C5          2.3920    0.4450    1.2550 ca        1 0ZA     -0.117000
      4 C4          3.7820    0.4170    1.2220 ca        1 0ZA     -0.101000
      5 C3          4.4540    0.2120    0.0120 ca        1 0ZA     -0.225900
      6 C2          3.7230    0.0490   -1.1820 ca        1 0ZA     -0.011300
      7 C1          2.3260    0.0760   -1.1450 ca        1 0ZA     -0.119000
      8 C10         5.9230    0.1720   -0.1410 ce        1 0ZA      0.568800
      9 N9          6.5830    0.2350   -1.2490 n2        1 0ZA     -0.560900
     10 C8          5.8620    0.3850   -2.5180 c3        1 0ZA      0.149200
     11 C11         6.6250   -0.3640   -3.6250 c3        1 0ZA     -0.093600
     12 C12         5.7960    1.8720   -2.9150 c3        1 0ZA     -0.093600
     13 C7          4.4250   -0.1860   -2.4710 c3        1 0ZA     -0.078100
     14 N13         6.6810    0.0030    1.1360 n4        1 0ZA     -0.730000
     15 C14         8.1820   -0.0410    1.0200 c3        1 0ZA      0.127200
     16 C25         8.6430   -1.2550    0.2520 cc        1 0ZA      0.522200
     17 N24         7.9860   -2.3960    0.1380 nd        1 0ZA     -0.612100
     18 C29         8.8580   -3.2570   -0.6270 c         1 0ZA      0.816000
     19 O28         8.8110   -4.3980   -1.0350 o         1 0ZA     -0.454500
     20 O26        10.0660   -2.5110   -0.9200 os        1 0ZA     -0.216400
     21 N27         9.9860   -1.3050   -0.3130 na        1 0ZA     -0.497700
     22 C18         8.8320   -0.0550    2.4180 c3        1 0ZA     -0.055100
     23 C19         8.3770    1.1040    3.2290 ca        1 0ZA     -0.161300
     24 C24         7.3180    0.9550    4.1350 ca        1 0ZA     -0.133000
     25 C23         6.9140    2.0310    4.9230 ca        1 0ZA     -0.113500
     26 C22         7.5630    3.2620    4.8120 ca        1 0ZA     -0.097000
     27 C21         8.6200    3.4140    3.9150 ca        1 0ZA     -0.113500
     28 C20         9.0290    2.3380    3.1260 ca        1 0ZA     -0.133000
     29 H1          1.8660    0.6050    2.2110 ha        1 0ZA      0.172000
     30 H2          4.3190    0.5710    2.1700 ha        1 0ZA      0.124000
     31 H3          1.7520   -0.0570   -2.0780 ha        1 0ZA      0.174000
     32 H4          6.0500   -0.2630   -4.5770 hc        1 0ZA      0.060367
     33 H5          7.6400    0.0760   -3.7710 hc        1 0ZA      0.060367
     34 H6          6.7290   -1.4490   -3.3840 hc        1 0ZA      0.060367
     35 H7          6.8170    2.3200   -2.9580 hc        1 0ZA      0.060367
     36 H8          5.1710    2.4490   -2.1930 hc        1 0ZA      0.060367
     37 H9          5.3350    1.9490   -3.9300 hc        1 0ZA      0.060367
     38 H10         3.8410    0.2660   -3.3180 hc        1 0ZA      0.091700
     39 H11         4.4620   -1.2980   -2.6520 hc        1 0ZA      0.091700
     40 H12         6.3420   -0.8670    1.5740 hn        1 0ZA      0.477300
     41 H13         8.5030    0.9000    0.4730 hx        1 0ZA      0.136700
     42 H14        10.1690   -0.5740   -0.9950 hn        1 0ZA      0.430800
     43 H15         9.9470   -0.0150    2.2650 hc        1 0ZA      0.104700
     44 H16         8.6040   -1.0230    2.9420 hc        1 0ZA      0.104700
     45 H17         6.8340   -0.0260    4.2630 ha        1 0ZA      0.137000
     46 H18         6.0940    1.9050    5.6480 ha        1 0ZA      0.156500
     47 H19         7.2480    4.1100    5.4420 ha        1 0ZA      0.159000
     48 H20         9.1440    4.3800    3.8370 ha        1 0ZA      0.156500
     49 H21         9.8790    2.4570    2.4360 ha        1 0ZA      0.137000
     50 H132        6.4460    0.7970    1.7560 hn        1 0ZA      0.477300
@<TRIPOS>BOND
     1    1    2 1   
     2    2    3 ar  
     3    2    7 ar  
     4    3    4 ar  
     5    3   29 1   
     6    4    5 ar  
     7    4   30 1   
     8    5    6 ar  
     9    5    8 1   
    10    6    7 ar  
    11    6   13 1   
    12    7   31 1   
    13    8    9 2   
    14    8   14 1   
    15    9   10 1   
    16   10   11 1   
    17   10   12 1   
    18   10   13 1   
    19   11   32 1   
    20   11   33 1   
    21   11   34 1   
    22   12   35 1   
    23   12   36 1   
    24   12   37 1   
    25   13   38 1   
    26   13   39 1   
    27   14   15 1   
    28   14   40 1   
    29   14   50 1   
    30   15   16 1   
    31   15   22 1   
    32   15   41 1   
    33   16   17 2   
    34   16   21 1   
    35   17   18 1   
    36   18   19 2   
    37   18   20 1   
    38   20   21 1   
    39   21   42 1   
    40   22   23 1   
    41   22   43 1   
    42   22   44 1   
    43   23   24 ar  
    44   23   28 ar  
    45   24   25 ar  
    46   24   45 1   
    47   25   26 ar  
    48   25   46 1   
    49   26   27 ar  
    50   26   47 1   
    51   27   28 ar  
    52   27   48 1   
    53   28   49 1   
@<TRIPOS>SUBSTRUCTURE
     1 0ZA         1 TEMP              0 ****  ****    0 ROOT
