@<TRIPOS>MOLECULE
0ZA
   49    44     1     0     0
SMALL
bcc


@<TRIPOS>ATOM
      1 CL1        -6.4840    2.8360   -0.6790 cl        1 0ZA     -0.007000
      2 C6         -4.8630    2.1260   -0.5940 c2        1 0ZA     -0.043000
      3 C5         -4.1920    2.0790    0.6380 c2        1 0ZA     -0.135000
      4 C4         -3.0020    1.3190    0.7710 c1        1 0ZA     -0.086000
      5 C3         -2.4860    0.6040   -0.3370 c1        1 0ZA     -0.083000
      6 C2         -3.1360    0.6430   -1.5540 c1        1 0ZA     -0.031000
      7 C1         -4.3500    1.4160   -1.6980 c1        1 0ZA     -0.130000
      8 C10        -1.2320   -0.2710   -0.1670 c2        1 0ZA      0.121000
      9 N9         -0.7130   -1.0150   -1.2990 n1        1 0ZA     -0.227000
     10 C8         -1.5810   -1.3160   -2.4210 c2        1 0ZA      0.028000
     11 C11        -0.7120   -1.5860   -3.6730 c3        1 0ZA     -0.204000
     12 C12        -2.2850   -2.7020   -2.2400 c3        1 0ZA     -0.204000
     13 C7         -2.6570   -0.2420   -2.7030 c3        1 0ZA     -0.154000
     14 N13        -0.5150   -0.2720    1.0960 n3        1 0ZA     -0.258000
     15 C14         0.9160   -0.3010    1.1050 c3        1 0ZA      0.059000
     16 C25         1.3920   -1.7280    1.2170 c1        1 0ZA      0.026000
     17 N24         1.1640   -2.3880    2.2600 n1        1 0ZA     -0.202000
     18 C29         2.0560   -3.3780    2.4900 c1        1 0ZA      0.309000
     19 O28         1.8540   -4.3970    3.1750 o         1 0ZA     -0.247000
     20 O26         3.0310   -3.2660    1.3310 o         1 0ZA     -0.153700
     21 N27         2.5050   -2.1410    0.5240 n2        1 0ZA     -0.160300
     22 C18         1.4210    0.4990    2.2770 c3        1 0ZA     -0.132000
     23 C19         2.7560    1.2050    1.8880 c2        1 0ZA     -0.104000
     24 C24         3.8450    1.1540    2.7660 c2        1 0ZA     -0.140000
     25 C23         4.9870    1.9290    2.5140 c1        1 0ZA     -0.126000
     26 C22         5.0410    2.7780    1.3520 c1        1 0ZA     -0.122000
     27 C21         3.9660    2.8320    0.4810 c1        1 0ZA     -0.122000
     28 C20         2.8070    2.0470    0.7350 c1        1 0ZA     -0.121000
     29 H1         -4.5110    2.6070    1.3820 ha        1 0ZA      0.151000
     30 H2         -2.5030    1.2880    1.6910 ha        1 0ZA      0.137000
     31 H3         -4.9200    1.3330   -2.5770 ha        1 0ZA      0.152000
     32 H4         -1.3340   -1.7260   -4.5150 hc        1 0ZA      0.083167
     33 H5         -0.1640   -2.3970   -3.5270 hc        1 0ZA      0.083167
     34 H6         -0.1030   -0.7940   -3.8330 hc        1 0ZA      0.083167
     35 H7         -2.8460   -2.6730   -1.4660 hc        1 0ZA      0.083167
     36 H8         -1.6130   -3.3980   -2.1260 hc        1 0ZA      0.083167
     37 H9         -2.8150   -2.8920   -3.0050 hc        1 0ZA      0.083167
     38 H10        -2.3050    0.3530   -3.4080 hc        1 0ZA      0.104500
     39 H11        -3.4470   -0.7070   -3.0680 hc        1 0ZA      0.104500
     40 H12        -0.9430   -0.3620    1.8280 hn        1 0ZA      0.201000
     41 H13         1.2620    0.0960    0.2550 h1        1 0ZA      0.159000
     42 H14         2.9880   -1.6340   -0.0920 hn        1 0ZA      0.218000
     43 H15         1.5820   -0.1340    3.0880 hc        1 0ZA      0.112000
     44 H16         0.7070    1.2270    2.5370 hc        1 0ZA      0.112000
     45 H17         3.8090    0.5820    3.5550 ha        1 0ZA      0.137000
     46 H18         5.7330    1.8910    3.1200 ha        1 0ZA      0.140000
     47 H19         5.8950    3.3560    1.1620 ha        1 0ZA      0.139500
     48 H20         4.0050    3.4290   -0.3310 ha        1 0ZA      0.139500
     49 H21         1.9870    2.0890    0.0750 ha        1 0ZA      0.140000
@<TRIPOS>BOND
     1    1    2 1   
     2    2    3 1   
     3    2    7 1   
     4    3    4 1   
     5    3   29 1   
     6    4   30 1   
     7    5    6 1   
     8    5    8 1   
     9    6   13 1   
    10    7   31 1   
    11    8    9 1   
    12    8   14 1   
    13   10   11 1   
    14   10   12 1   
    15   10   13 1   
    16   11   32 1   
    17   11   33 1   
    18   11   34 1   
    19   12   35 1   
    20   12   36 1   
    21   12   37 1   
    22   13   38 1   
    23   13   39 1   
    24   14   15 1   
    25   14   40 1   
    26   15   16 1   
    27   15   22 1   
    28   15   41 1   
    29   16   17 1   
    30   18   19 1   
    31   20   21 2   
    32   21   42 1   
    33   22   23 1   
    34   22   43 1   
    35   22   44 1   
    36   23   24 1   
    37   23   28 1   
    38   24   25 1   
    39   24   45 1   
    40   25   46 1   
    41   26   27 1   
    42   26   47 1   
    43   27   48 1   
    44   28   49 1   
@<TRIPOS>SUBSTRUCTURE
     1 0ZA         1 TEMP              0 ****  ****    0 ROOT
