@<TRIPOS>MOLECULE
0ZA
   50    53     1     0     0
SMALL
bcc


@<TRIPOS>ATOM
      1 Cl1        -0.0290    0.0600    0.0960 cl        1 0ZA     -0.024400
      2 C6          1.6580    0.1040    0.0580 ca        1 0ZA      0.060400
      3 C5          2.3770    0.2790    1.2490 ca        1 0ZA     -0.117000
      4 C4          3.7670    0.3130    1.2200 ca        1 0ZA     -0.104000
      5 C3          4.4490    0.1690    0.0070 ca        1 0ZA     -0.221900
      6 C2          3.7280    0.0070   -1.1940 ca        1 0ZA     -0.011300
      7 C1          2.3320   -0.0290   -1.1600 ca        1 0ZA     -0.118000
      8 C10         5.9190    0.1990   -0.1440 ce        1 0ZA      0.559800
      9 N9          6.5770    0.3240   -1.2460 n2        1 0ZA     -0.540900
     10 C8          5.8550    0.4720   -2.5150 c3        1 0ZA      0.150200
     11 C11         6.6560   -0.2190   -3.6330 c3        1 0ZA     -0.093100
     12 C12         5.7280    1.9630   -2.8780 c3        1 0ZA     -0.093100
     13 C7          4.4430   -0.1610   -2.4870 c3        1 0ZA     -0.079100
     14 N13         6.6810    0.0320    1.1330 ny        1 0ZA     -0.726000
     15 C14         8.1790   -0.0600    1.0140 c3        1 0ZA      0.120200
     16 C25         8.6070   -1.3040    0.2770 cc        1 0ZA      0.520200
     17 N24         7.8690   -2.3830    0.0780 nd        1 0ZA     -0.614100
     18 C29         8.6980   -3.2690   -0.7060 c         1 0ZA      0.817000
     19 O28         8.5680   -4.3660   -1.2060 o         1 0ZA     -0.455500
     20 O26         9.9640   -2.5980   -0.9340 os        1 0ZA     -0.216400
     21 N27         9.8880   -1.3510   -0.4170 na        1 0ZA     -0.492700
     22 C18         8.8310   -0.0460    2.4110 c3        1 0ZA     -0.055100
     23 C19         8.3920    1.1380    3.1960 ca        1 0ZA     -0.166300
     24 C24         7.3840    1.0060    4.1610 ca        1 0ZA     -0.130000
     25 C23         6.9980    2.1060    4.9240 ca        1 0ZA     -0.113500
     26 C22         7.6140    3.3440    4.7290 ca        1 0ZA     -0.094000
     27 C21         8.6200    3.4780    3.7720 ca        1 0ZA     -0.113500
     28 C20         9.0110    2.3790    3.0080 ca        1 0ZA     -0.130000
     29 H1          1.8430    0.3910    2.2070 ha        1 0ZA      0.171000
     30 H2          4.2960    0.4670    2.1720 ha        1 0ZA      0.122000
     31 H3          1.7650   -0.1610   -2.0980 ha        1 0ZA      0.174000
     32 H4          6.0870   -0.1110   -4.5880 hc        1 0ZA      0.061033
     33 H5          7.6570    0.2580   -3.7520 hc        1 0ZA      0.061033
     34 H6          6.7950   -1.3060   -3.4200 hc        1 0ZA      0.061033
     35 H7          5.0770    2.4970   -2.1460 hc        1 0ZA      0.061033
     36 H8          6.7310    2.4530   -2.9070 hc        1 0ZA      0.061033
     37 H9          5.2680    2.0430   -3.8930 hc        1 0ZA      0.061033
     38 H10         3.8410    0.2890   -3.3220 hc        1 0ZA      0.091200
     39 H11         4.5280   -1.2650   -2.6980 hc        1 0ZA      0.091200
     40 H12         6.4690    0.8430    1.7370 hn        1 0ZA      0.474300
     41 H13         8.5270    0.8530    0.4320 hx        1 0ZA      0.153700
     42 H14        10.6910   -1.1850    0.1830 hn        1 0ZA      0.428800
     43 H15         8.5940   -0.9960    2.9600 hc        1 0ZA      0.093200
     44 H16         9.9450   -0.0130    2.2550 hc        1 0ZA      0.093200
     45 H17         6.9250    0.0230    4.3500 ha        1 0ZA      0.137500
     46 H18         6.2170    1.9940    5.6930 ha        1 0ZA      0.157500
     47 H19         7.3140    4.2110    5.3400 ha        1 0ZA      0.160000
     48 H20         9.1170    4.4510    3.6260 ha        1 0ZA      0.157500
     49 H21         9.8200    2.4860    2.2680 ha        1 0ZA      0.137500
     50 H132        6.3170   -0.8200    1.5850 hn        1 0ZA      0.474300
@<TRIPOS>BOND
     1    1    2 1   
     2    2    3 ar  
     3    2    7 ar  
     4    3    4 ar  
     5    3   29 1   
     6    4    5 ar  
     7    4   30 1   
     8    5    6 ar  
     9    5    8 1   
    10    6    7 ar  
    11    6   13 1   
    12    7   31 1   
    13    8    9 2   
    14    8   14 1   
    15    9   10 1   
    16   10   11 1   
    17   10   12 1   
    18   10   13 1   
    19   11   32 1   
    20   11   33 1   
    21   11   34 1   
    22   12   35 1   
    23   12   36 1   
    24   12   37 1   
    25   13   38 1   
    26   13   39 1   
    27   14   15 1   
    28   14   40 1   
    29   14   50 1   
    30   15   16 1   
    31   15   22 1   
    32   15   41 1   
    33   16   17 2   
    34   16   21 1   
    35   17   18 1   
    36   18   19 2   
    37   18   20 1   
    38   20   21 1   
    39   21   42 1   
    40   22   23 1   
    41   22   43 1   
    42   22   44 1   
    43   23   24 ar  
    44   23   28 ar  
    45   24   25 ar  
    46   24   45 1   
    47   25   26 ar  
    48   25   46 1   
    49   26   27 ar  
    50   26   47 1   
    51   27   28 ar  
    52   27   48 1   
    53   28   49 1   
@<TRIPOS>SUBSTRUCTURE
     1 0ZA         1 TEMP              0 ****  ****    0 ROOT
