@<TRIPOS>MOLECULE
0ZA
   50    53     1     0     0
SMALL
bcc


@<TRIPOS>ATOM
      1 CL1        -0.0300    0.0860    0.0910 cl        1 0ZA     -0.024400
      2 C6          1.6580    0.1230    0.0540 ca        1 0ZA      0.060400
      3 C5          2.3770    0.2950    1.2460 ca        1 0ZA     -0.117000
      4 C4          3.7670    0.3230    1.2170 ca        1 0ZA     -0.104000
      5 C3          4.4490    0.1760    0.0050 ca        1 0ZA     -0.221900
      6 C2          3.7280    0.0170   -1.1960 ca        1 0ZA     -0.011300
      7 C1          2.3320   -0.0130   -1.1640 ca        1 0ZA     -0.118000
      8 C10         5.9190    0.2000   -0.1450 ce        1 0ZA      0.559800
      9 N9          6.5780    0.3220   -1.2470 n2        1 0ZA     -0.540900
     10 C8          5.8570    0.4730   -2.5150 c3        1 0ZA      0.150200
     11 C11         6.6560   -0.2220   -3.6330 c3        1 0ZA     -0.093100
     12 C12         5.7370    1.9650   -2.8790 c3        1 0ZA     -0.093100
     13 C7          4.4430   -0.1540   -2.4890 c3        1 0ZA     -0.079100
     14 N13         6.6790    0.0300    1.1330 n4        1 0ZA     -0.726000
     15 C14         8.1770   -0.0650    1.0150 c3        1 0ZA      0.120200
     16 C25         8.6030   -1.3100    0.2770 cc        1 0ZA      0.520200
     17 N24         7.8630   -2.3880    0.0780 nd        1 0ZA     -0.614100
     18 C29         8.6900   -3.2750   -0.7060 c         1 0ZA      0.817000
     19 O28         8.5580   -4.3710   -1.2070 o         1 0ZA     -0.455500
     20 O26         9.9570   -2.6060   -0.9330 os        1 0ZA     -0.216400
     21 N27         9.8840   -1.3600   -0.4160 na        1 0ZA     -0.492700
     22 C18         8.8280   -0.0540    2.4120 c3        1 0ZA     -0.055100
     23 C19         8.3920    1.1300    3.1980 ca        1 0ZA     -0.166300
     24 C24         7.3830    1.0000    4.1620 ca        1 0ZA     -0.130000
     25 C23         6.9980    2.1000    4.9250 ca        1 0ZA     -0.113500
     26 C22         7.6170    3.3370    4.7320 ca        1 0ZA     -0.094000
     27 C21         8.6250    3.4700    3.7760 ca        1 0ZA     -0.113500
     28 C20         9.0140    2.3700    3.0110 ca        1 0ZA     -0.130000
     29 H1          1.8420    0.4100    2.2030 ha        1 0ZA      0.171000
     30 H2          4.2960    0.4750    2.1700 ha        1 0ZA      0.122000
     31 H3          1.7650   -0.1430   -2.1010 ha        1 0ZA      0.174000
     32 H4          6.7910   -1.3080   -3.4200 hc        1 0ZA      0.061200
     33 H5          7.6600    0.2520   -3.7520 hc        1 0ZA      0.061200
     34 H6          6.0890   -0.1110   -4.5890 hc        1 0ZA      0.061200
     35 H7          6.7420    2.4500   -2.9080 hc        1 0ZA      0.061200
     36 H8          5.2780    2.0470   -3.8950 hc        1 0ZA      0.061200
     37 H9          5.0880    2.5010   -2.1470 hc        1 0ZA      0.061200
     38 H10         4.5240   -1.2580   -2.7000 hc        1 0ZA      0.091200
     39 H11         3.8440    0.2980   -3.3250 hc        1 0ZA      0.091200
     40 H12         6.4690    0.8420    1.7380 hn        1 0ZA      0.474300
     41 H13         8.5280    0.8470    0.4340 hx        1 0ZA      0.153700
     42 H14        10.6880   -1.1960    0.1860 hn        1 0ZA      0.428800
     43 H15         9.9420   -0.0240    2.2570 hc        1 0ZA      0.093200
     44 H16         8.5880   -1.0040    2.9610 hc        1 0ZA      0.093200
     45 H17         6.9210    0.0180    4.3500 ha        1 0ZA      0.137500
     46 H18         6.2160    1.9900    5.6940 ha        1 0ZA      0.157500
     47 H19         7.3180    4.2040    5.3430 ha        1 0ZA      0.160000
     48 H20         9.1230    4.4420    3.6310 ha        1 0ZA      0.157500
     49 H21         9.8230    2.4760    2.2720 ha        1 0ZA      0.137500
     50 H132        6.3130   -0.8210    1.5840 hn        1 0ZA      0.474300
@<TRIPOS>BOND
     1    1    2 1   
     2    2    3 ar  
     3    2    7 ar  
     4    3    4 ar  
     5    3   29 1   
     6    4    5 ar  
     7    4   30 1   
     8    5    6 ar  
     9    5    8 1   
    10    6    7 ar  
    11    6   13 1   
    12    7   31 1   
    13    8    9 2   
    14    8   14 1   
    15    9   10 1   
    16   10   11 1   
    17   10   12 1   
    18   10   13 1   
    19   11   32 1   
    20   11   33 1   
    21   11   34 1   
    22   12   35 1   
    23   12   36 1   
    24   12   37 1   
    25   13   38 1   
    26   13   39 1   
    27   14   15 1   
    28   14   40 1   
    29   14   50 1   
    30   15   16 1   
    31   15   22 1   
    32   15   41 1   
    33   16   17 2   
    34   16   21 1   
    35   17   18 1   
    36   18   19 2   
    37   18   20 1   
    38   20   21 1   
    39   21   42 1   
    40   22   23 1   
    41   22   43 1   
    42   22   44 1   
    43   23   24 ar  
    44   23   28 ar  
    45   24   25 ar  
    46   24   45 1   
    47   25   26 ar  
    48   25   46 1   
    49   26   27 ar  
    50   26   47 1   
    51   27   28 ar  
    52   27   48 1   
    53   28   49 1   
@<TRIPOS>SUBSTRUCTURE
     1 0ZA         1 TEMP              0 ****  ****    0 ROOT
