@<TRIPOS>MOLECULE
0ZB
   51    51     1     0     0
SMALL
bcc


@<TRIPOS>ATOM
      1 N           1.8270    2.9540    2.1520 n         1 0ZB     -0.364400
      2 OH          1.6150    2.9940    3.4720 oh        1 0ZB     -0.444100
      3 C1          2.5250    1.7920    1.6930 c         1 0ZB      0.602100
      4 O1          3.2690    1.1740    2.4720 o         1 0ZB     -0.575100
      5 CA          2.4070    1.4880    0.2070 c3        1 0ZB     -0.198700
      6 CB          3.4880    0.5350   -0.2690 c3        1 0ZB     -0.097400
      7 CG          4.8620    1.1940   -0.3030 c3        1 0ZB     -0.061700
      8 CD1         5.9330    0.1220   -0.3720 c3        1 0ZB     -0.091100
      9 CD2         4.9980    2.1350   -1.4810 c3        1 0ZB     -0.091100
     10 C           0.9680    1.0310   -0.0650 c         1 0ZB      0.656100
     11 O           0.0430    1.8670    0.1140 o         1 0ZB     -0.688100
     12 N1          0.7170   -0.2640   -0.4280 n         1 0ZB     -0.499900
     13 CA1        -0.5080   -0.6190   -1.1220 c3        1 0ZB      0.048700
     14 C2         -1.6030   -1.0960   -0.1350 c         1 0ZB      0.648100
     15 O2         -2.1370   -2.2190   -0.2250 o         1 0ZB     -0.629100
     16 CB1        -0.2770   -1.6990   -2.1830 c3        1 0ZB     -0.208400
     17 CG1         0.8850   -1.3420   -3.1290 c         1 0ZB      0.907600
     18 OD1         2.0570   -1.2830   -2.6370 o         1 0ZB     -0.842300
     19 OD2         0.6250   -1.1370   -4.3430 o         1 0ZB     -0.842300
     20 N2         -1.9730   -0.2080    0.8580 n         1 0ZB     -0.569900
     21 C3         -3.0260   -0.4890    1.7880 c3        1 0ZB      0.136300
     22 C11        -4.3940   -0.0210    1.3710 ca        1 0ZB     -0.108300
     23 C21        -5.0210   -0.6100    0.2670 ca        1 0ZB     -0.117000
     24 C31        -6.3000   -0.2030   -0.1100 ca        1 0ZB     -0.138000
     25 C4         -6.9600    0.7910    0.6130 ca        1 0ZB     -0.137000
     26 C5         -6.3370    1.3800    1.7130 ca        1 0ZB     -0.138000
     27 C6         -5.0560    0.9780    2.0910 ca        1 0ZB     -0.117000
     28 HN          0.9260    3.0740    1.6880 hn        1 0ZB      0.329500
     29 HOH         2.4990    3.0610    3.8820 ho        1 0ZB      0.424000
     30 HA          2.5150    2.4580   -0.3660 hc        1 0ZB      0.103700
     31 HB1         3.5270   -0.3490    0.4220 hc        1 0ZB      0.093700
     32 HB2         3.2430    0.1580   -1.3050 hc        1 0ZB      0.093700
     33 HG          5.0040    1.7780    0.6510 hc        1 0ZB      0.041700
     34 HD11        5.7800   -0.5200   -1.2740 hc        1 0ZB      0.033200
     35 HD12        6.9450    0.5890   -0.4320 hc        1 0ZB      0.033200
     36 HD13        5.8930   -0.5260    0.5360 hc        1 0ZB      0.033200
     37 HD21        4.8080    1.5920   -2.4390 hc        1 0ZB      0.033200
     38 HD22        4.2700    2.9780   -1.4040 hc        1 0ZB      0.033200
     39 HD23        6.0290    2.5660   -1.5140 hc        1 0ZB      0.033200
     40 H           1.5060   -0.8350   -0.7090 hn        1 0ZB      0.368500
     41 HA1        -0.9250    0.3030   -1.6350 h1        1 0ZB      0.076700
     42 HB21       -0.0520   -2.6780   -1.6910 hc        1 0ZB      0.058200
     43 HB3        -1.2220   -1.8120   -2.7710 hc        1 0ZB      0.058200
     44 HN2        -1.6410    0.7300    0.8080 hn        1 0ZB      0.336500
     45 H1         -3.0760   -1.6080    1.9430 h1        1 0ZB      0.058700
     46 H2A        -2.7550   -0.0070    2.7720 h1        1 0ZB      0.058700
     47 H2         -4.4880   -1.3950   -0.2980 ha        1 0ZB      0.145000
     48 H3         -6.7860   -0.6650   -0.9810 ha        1 0ZB      0.124000
     49 H4         -7.9670    1.1120    0.3140 ha        1 0ZB      0.120000
     50 H5         -6.8540    2.1670    2.2820 ha        1 0ZB      0.124000
     51 H6         -4.5660    1.4500    2.9550 ha        1 0ZB      0.145000
@<TRIPOS>BOND
     1    1    2 1   
     2    1    3 1   
     3    1   28 1   
     4    2   29 1   
     5    3    4 2   
     6    3    5 1   
     7    5    6 1   
     8    5   10 1   
     9    5   30 1   
    10    6    7 1   
    11    6   31 1   
    12    6   32 1   
    13    7    8 1   
    14    7    9 1   
    15    7   33 1   
    16    8   34 1   
    17    8   35 1   
    18    8   36 1   
    19    9   37 1   
    20    9   38 1   
    21    9   39 1   
    22   10   11 2   
    23   10   12 1   
    24   12   13 1   
    25   12   40 1   
    26   13   14 1   
    27   13   16 1   
    28   13   41 1   
    29   14   15 2   
    30   14   20 1   
    31   16   17 1   
    32   16   42 1   
    33   16   43 1   
    34   17   18 1   
    35   17   19 1   
    36   20   21 1   
    37   20   44 1   
    38   21   22 1   
    39   21   45 1   
    40   21   46 1   
    41   22   23 ar  
    42   22   27 ar  
    43   23   24 ar  
    44   23   47 1   
    45   24   25 ar  
    46   24   48 1   
    47   25   26 ar  
    48   25   49 1   
    49   26   27 ar  
    50   26   50 1   
    51   27   51 1   
@<TRIPOS>SUBSTRUCTURE
     1 0ZB         1 TEMP              0 ****  ****    0 ROOT
