@<TRIPOS>MOLECULE
0ZB
   51    49     1     0     0
SMALL
bcc


@<TRIPOS>ATOM
      1 N           4.2860    0.5220   -3.3750 n         1 0ZB     -0.199000
      2 OH          5.2430    1.0800   -4.2330 oh        1 0ZB     -0.249000
      3 C1          2.9980    1.1380   -3.2400 c2        1 0ZB      0.246000
      4 O1          2.7740    2.1910   -3.7850 o         1 0ZB     -0.312000
      5 CA          1.8850    0.4230   -2.4870 c3        1 0ZB     -0.152000
      6 CB          0.9340   -0.2350   -3.4860 c3        1 0ZB     -0.149000
      7 CG          0.8210   -1.7590   -3.1690 c3        1 0ZB     -0.110000
      8 CD1         0.9200   -2.5510   -4.4600 c3        1 0ZB     -0.207500
      9 CD2        -0.5120   -2.0410   -2.4990 c3        1 0ZB     -0.207500
     10 C           1.1190    1.4280   -1.6460 c2        1 0ZB      0.306000
     11 O           0.4480    2.2650   -2.1780 o         1 0ZB     -0.356000
     12 N1          1.2940    1.4470   -0.1830 n         1 0ZB     -0.328000
     13 CA1         0.2530    1.9470    0.6530 c3        1 0ZB      0.007000
     14 C2          0.3620    1.3060    2.0450 c2        1 0ZB      0.282000
     15 O2          1.3680    1.4790    2.7140 o         1 0ZB     -0.442000
     16 CB1         0.3810    3.4480    0.7750 c3        1 0ZB     -0.233000
     17 CG1        -0.9960    4.0910    0.6210 c2        1 0ZB      0.321000
     18 OD1        -1.4450    4.3240   -0.5080 o         1 0ZB     -0.574500
     19 OD2        -1.6510    4.4680    1.6640 o         1 0ZB     -0.574500
     20 N2         -0.6110    0.3430    2.4620 n         1 0ZB     -0.351000
     21 C3         -1.0720    0.3260    3.8680 c3        1 0ZB      0.009000
     22 C11        -2.0730   -0.8160    4.0650 c2        1 0ZB     -0.097000
     23 C21        -1.8920   -1.7200    5.1020 c2        1 0ZB     -0.141000
     24 C31        -2.8860   -2.6610    5.3890 c1        1 0ZB     -0.150000
     25 C4         -4.0560   -2.6900    4.6340 c1        1 0ZB     -0.135500
     26 C5         -4.2340   -1.7880    3.6020 c1        1 0ZB     -0.135500
     27 C6         -3.2400   -0.8460    3.3140 c1        1 0ZB     -0.099000
     28 HN          4.4920   -0.2250   -2.8790 hn        1 0ZB      0.210000
     29 HOH         6.0410    0.7020   -4.0780 ho        1 0ZB      0.235000
     30 HA          2.2820   -0.2780   -1.8900 hc        1 0ZB      0.120000
     31 HB1         0.0170    0.1960   -3.4150 hc        1 0ZB      0.117000
     32 HB2         1.2880   -0.1110   -4.4120 hc        1 0ZB      0.117000
     33 HG          1.5580   -2.0250   -2.5620 hc        1 0ZB      0.081000
     34 HD11        1.7270   -2.2820   -4.9440 hc        1 0ZB      0.072500
     35 HD12        0.1190   -2.3700   -5.0230 hc        1 0ZB      0.072500
     36 HD13        0.9660   -3.5330   -4.2490 hc        1 0ZB      0.072500
     37 HD21       -0.6620   -3.0080   -2.4630 hc        1 0ZB      0.072500
     38 HD22       -0.5030   -1.6780   -1.5870 hc        1 0ZB      0.072500
     39 HD23       -1.2560   -1.6010   -3.0320 hc        1 0ZB      0.072500
     40 H           2.1020    1.2170    0.1840 hn        1 0ZB      0.223000
     41 HA1        -0.6400    1.7200    0.2480 h1        1 0ZB      0.168000
     42 HB21        0.9700    3.7790    0.0830 hc        1 0ZB      0.089000
     43 HB3         0.7450    3.6700    1.6400 hc        1 0ZB      0.089000
     44 HN2        -0.8660   -0.3580    1.8710 hn        1 0ZB      0.280000
     45 H1         -0.2870    0.1890    4.4750 h1        1 0ZB      0.091000
     46 H2A        -1.5180    1.2070    4.0870 h1        1 0ZB      0.091000
     47 H2         -1.0620   -1.7000    5.6330 ha        1 0ZB      0.116000
     48 H3         -2.7730   -3.2980    6.1840 ha        1 0ZB      0.111000
     49 H4         -4.7210   -3.3180    4.8250 ha        1 0ZB      0.126000
     50 H5         -5.0650   -1.8080    3.0660 ha        1 0ZB      0.126000
     51 H6         -3.3680   -0.2070    2.5810 ha        1 0ZB      0.207000
@<TRIPOS>BOND
     1    1    2 1   
     2    1    3 1   
     3    1   28 1   
     4    2   29 1   
     5    3    4 1   
     6    3    5 1   
     7    5    6 1   
     8    5   10 1   
     9    5   30 1   
    10    6    7 1   
    11    6   31 1   
    12    6   32 1   
    13    7    8 1   
    14    7    9 1   
    15    7   33 1   
    16    8   34 1   
    17    8   35 1   
    18    8   36 1   
    19    9   37 1   
    20    9   38 1   
    21    9   39 1   
    22   10   11 1   
    23   10   12 1   
    24   12   13 1   
    25   12   40 1   
    26   13   14 1   
    27   13   16 1   
    28   13   41 1   
    29   14   15 1   
    30   14   20 1   
    31   16   17 1   
    32   16   42 1   
    33   16   43 1   
    34   17   18 1   
    35   17   19 1   
    36   20   21 1   
    37   20   44 1   
    38   21   22 1   
    39   21   45 1   
    40   21   46 1   
    41   22   23 1   
    42   22   27 1   
    43   23   24 1   
    44   23   47 1   
    45   24   48 1   
    46   25   26 1   
    47   25   49 1   
    48   26   50 1   
    49   27   51 1   
@<TRIPOS>SUBSTRUCTURE
     1 0ZB         1 TEMP              0 ****  ****    0 ROOT
