@<TRIPOS>MOLECULE
0ZC
   55    49     1     0     0
SMALL
bcc


@<TRIPOS>ATOM
      1 N           0.5370    1.0300    1.2730 n         1 0ZC     -0.343000
      2 CA          0.8670    1.4840   -0.0190 c3        1 0ZC     -0.003000
      3 CB          1.9220    2.5900    0.0840 c3        1 0ZC     -0.171000
      4 CG          1.6850    3.6390   -1.0320 c3        1 0ZC     -0.136000
      5 CD1         3.0260    4.0390   -1.6480 c3        1 0ZC     -0.196500
      6 CD2         1.0140    4.8720   -0.4380 c3        1 0ZC     -0.196500
      7 C           1.4230    0.3220   -0.8420 c2        1 0ZC      0.306000
      8 O           2.5820    0.3440   -1.2140 o         1 0ZC     -0.389000
      9 C2          0.9170    1.8060    2.4290 c2        1 0ZC      0.374000
     10 O3          2.0500    1.7320    2.8660 o         1 0ZC     -0.381000
     11 C4         -0.1140    2.6710    3.1350 c2        1 0ZC     -0.076000
     12 O8         -1.4730    2.5820    2.9880 os        1 0ZC     -0.087000
     13 C5          0.1470    3.5960    4.1310 c1        1 0ZC     -0.139000
     14 C6         -1.0470    4.0690    4.5890 c1        1 0ZC     -0.214000
     15 C7         -2.0550    3.4410    3.8810 c1        1 0ZC     -0.077000
     16 N1          0.5030   -0.7390   -1.3470 n         1 0ZC     -0.261000
     17 CA1         0.9720   -1.7400   -2.2730 c3        1 0ZC     -0.078000
     18 CB1         0.6890   -3.1320   -1.8090 c3        1 0ZC     -0.090000
     19 CG1        -0.6500   -3.3630   -1.0380 c2        1 0ZC     -0.099000
     20 CD21       -1.3270   -4.4940   -0.5940 c1        1 0ZC     -0.055000
     21 CE2        -2.5060   -4.0750    0.0260 c1        1 0ZC     -0.011000
     22 CE3        -1.0100   -5.8630   -0.6470 c1        1 0ZC     -0.083000
     23 CD11       -1.4290   -2.2170   -0.6840 c1        1 0ZC     -0.044000
     24 NE1        -2.5570   -2.6560   -0.0370 n1        1 0ZC     -0.201000
     25 CZ2        -3.3750   -5.0230    0.5950 c1        1 0ZC     -0.150000
     26 CZ3        -1.8750   -6.8030   -0.0820 c1        1 0ZC     -0.149500
     27 CH2        -3.0580   -6.3840    0.5400 c1        1 0ZC     -0.149500
     28 C9         -0.8050   -0.7830   -0.9420 c2        1 0ZC      0.015000
     29 C1          0.4010   -1.4880   -3.7400 c2        1 0ZC      0.331000
     30 O2          1.0450   -0.7720   -4.5520 o         1 0ZC     -0.565000
     31 O1         -0.6810   -2.0240   -4.0950 o         1 0ZC     -0.565000
     32 H           0.0900    0.2410    1.3790 hn        1 0ZC      0.247000
     33 HA          0.0680    1.8360   -0.4530 h1        1 0ZC      0.125000
     34 HB2         1.8550    3.0240    0.9600 hc        1 0ZC      0.088500
     35 HB3         2.8150    2.1990   -0.0190 hc        1 0ZC      0.088500
     36 HG          1.1110    3.2570   -1.7210 hc        1 0ZC      0.173000
     37 HD11        3.5660    4.5110   -0.9800 hc        1 0ZC      0.065167
     38 HD12        3.5010    3.2370   -1.9430 hc        1 0ZC      0.065167
     39 HD13        2.8700    4.6290   -2.4200 hc        1 0ZC      0.065167
     40 HD21        0.3080    4.5940    0.1780 hc        1 0ZC      0.065167
     41 HD22        0.6250    5.4120   -1.1600 hc        1 0ZC      0.065167
     42 HD23        1.6810    5.4060    0.0480 hc        1 0ZC      0.065167
     43 H5          1.0280    3.8330    4.4760 DU        1 0ZC      0.186000
     44 H6         -1.1700    4.7120    5.3160 DU        1 0ZC      0.186000
     45 H7         -3.0090    3.6310    3.8460 DU        1 0ZC      0.186000
     46 HA1         1.9310   -1.6280   -2.4290 h1        1 0ZC      0.122000
     47 HB1         1.4240   -3.4090   -1.2260 hc        1 0ZC      0.101000
     48 HB21        0.6870   -3.7180   -2.5970 hc        1 0ZC      0.101000
     49 HE3        -0.1780   -6.1560   -1.0700 ha        1 0ZC      0.135000
     50 HNE        -3.2250   -2.1260    0.2990 DU        1 0ZC      0.186000
     51 HZ2        -4.2310   -4.7350    0.9730 ha        1 0ZC      0.120000
     52 HZ3        -1.6760   -7.7610   -0.1600 ha        1 0ZC      0.115000
     53 HH2        -3.6640   -7.0450    0.9370 ha        1 0ZC      0.115000
     54 H91        -1.3490   -0.3350   -1.6290 h4        1 0ZC      0.109500
     55 H92        -0.8800   -0.2700   -0.1130 h4        1 0ZC      0.109500
@<TRIPOS>BOND
     1    1    2 1   
     2    1    9 1   
     3    1   32 1   
     4    2    3 1   
     5    2    7 1   
     6    2   33 1   
     7    3    4 1   
     8    3   34 1   
     9    3   35 1   
    10    4    5 1   
    11    4    6 1   
    12    4   36 1   
    13    5   37 1   
    14    5   38 1   
    15    5   39 1   
    16    6   40 1   
    17    6   41 1   
    18    6   42 1   
    19    7    8 1   
    20    7   16 1   
    21    9   10 1   
    22    9   11 1   
    23   11   12 1   
    24   11   13 1   
    25   12   15 1   
    26   13   14 1   
    27   14   15 1   
    28   16   17 1   
    29   16   28 1   
    30   17   18 1   
    31   17   29 1   
    32   17   46 1   
    33   18   19 1   
    34   18   47 1   
    35   18   48 1   
    36   19   20 1   
    37   19   23 1   
    38   20   22 1   
    39   21   25 1   
    40   22   49 1   
    41   23   24 1   
    42   25   51 1   
    43   26   27 1   
    44   26   52 1   
    45   27   53 1   
    46   28   54 1   
    47   28   55 1   
    48   29   30 1   
    49   29   31 1   
@<TRIPOS>SUBSTRUCTURE
     1 0ZC         1 TEMP              0 ****  ****    0 ROOT
