@<TRIPOS>MOLECULE
0ZC
   55    58     1     0     0
SMALL
bcc


@<TRIPOS>ATOM
      1 N           2.2670    0.2900   -0.2290 n         1 0ZC     -0.503900
      2 CA          1.4310    1.2360    0.4870 c3        1 0ZC      0.042700
      3 CB          1.8680    2.7100    0.4420 c3        1 0ZC     -0.080400
      4 CG          1.9940    3.3250   -0.9470 c3        1 0ZC     -0.069700
      5 CD1         0.9510    4.4060   -1.1570 c3        1 0ZC     -0.087100
      6 CD2         3.3830    3.8920   -1.1600 c3        1 0ZC     -0.087100
      7 C          -0.0170    1.1680   -0.0710 c         1 0ZC      0.662100
      8 O          -0.2530    1.4530   -1.2600 o         1 0ZC     -0.606100
      9 C2          3.6350    0.2470   -0.0760 c         1 0ZC      0.593600
     10 O3          4.3290    1.1650    0.4190 o         1 0ZC     -0.634100
     11 C4          4.3430   -0.9390   -0.6170 cc        1 0ZC      0.213200
     12 O8          3.6360   -1.8900   -1.3620 os        1 0ZC     -0.329800
     13 C5          5.6690   -1.3200   -0.5020 cd        1 0ZC     -0.210300
     14 C6          5.8020   -2.5730   -1.2060 cd        1 0ZC     -0.290300
     15 C7          4.5500   -2.8770   -1.7070 cc        1 0ZC      0.251600
     16 N1         -1.0610    0.9720    0.8610 n         1 0ZC     -0.430800
     17 CA1        -1.1700   -0.2710    1.6200 c3        1 0ZC     -0.038300
     18 CB1        -2.0660   -1.3560    0.9820 c3        1 0ZC     -0.040200
     19 CG1        -3.2670   -0.7820    0.3660 cc        1 0ZC     -0.102400
     20 CD21       -4.4740   -1.4090   -0.1280 ca        1 0ZC     -0.071800
     21 CE2        -5.2910   -0.3390   -0.6700 ca        1 0ZC     -0.055200
     22 CE3        -4.9470   -2.7180   -0.1710 ca        1 0ZC     -0.082000
     23 CD11       -3.3860    0.5850    0.1240 cd        1 0ZC     -0.104300
     24 NE1        -4.6410    0.8870   -0.4430 na        1 0ZC     -0.176400
     25 CZ2        -6.5400   -0.6090   -1.2440 ca        1 0ZC     -0.151000
     26 CZ3        -6.1880   -2.9680   -0.7440 ca        1 0ZC     -0.169000
     27 CH2        -6.9690   -1.9300   -1.2740 ca        1 0ZC     -0.129000
     28 C9         -2.3390    1.5750    0.5110 c3        1 0ZC      0.132200
     29 C1          0.1940   -0.9710    1.9530 c         1 0ZC      0.910600
     30 O2          0.7110   -1.7110    1.0690 o         1 0ZC     -0.821800
     31 O1          0.6680   -0.7710    3.0990 o         1 0ZC     -0.821800
     32 H           1.8100   -0.6010   -0.3630 hn        1 0ZC      0.360500
     33 HA          1.4250    0.9470    1.5890 h1        1 0ZC      0.109700
     34 HB2         1.1140    3.2800    1.0460 hc        1 0ZC      0.060200
     35 HB3         2.8520    2.7840    0.9800 hc        1 0ZC      0.060200
     36 HG          1.8130    2.5230   -1.7200 hc        1 0ZC      0.080700
     37 HD11        1.0680    4.8630   -2.1690 hc        1 0ZC      0.027367
     38 HD12       -0.0720    3.9630   -1.0830 hc        1 0ZC      0.027367
     39 HD13        1.0520    5.2130   -0.3920 hc        1 0ZC      0.027367
     40 HD21        4.1520    3.1020   -0.9710 hc        1 0ZC      0.027367
     41 HD22        3.4930    4.2610   -2.2080 hc        1 0ZC      0.027367
     42 HD23        3.5720    4.7430   -0.4640 hc        1 0ZC      0.027367
     43 H5          6.4550   -0.7820    0.0220 ha        1 0ZC      0.168000
     44 H6          6.7140   -3.1520   -1.3060 ha        1 0ZC      0.150000
     45 H7          4.1270   -3.6930   -2.2850 h4        1 0ZC      0.048100
     46 HA1        -1.6340    0.0340    2.6050 h1        1 0ZC      0.056700
     47 HB1        -1.4670   -1.9140    0.2090 hc        1 0ZC      0.072200
     48 HB21       -2.3380   -2.0890    1.7860 hc        1 0ZC      0.072200
     49 HE3        -4.3390   -3.5340    0.2450 ha        1 0ZC      0.137000
     50 HNE        -4.7870    1.6800   -1.0120 hn        1 0ZC      0.277700
     51 HZ2        -7.1600    0.1960   -1.6570 ha        1 0ZC      0.121000
     52 HZ3        -6.5690   -3.9990   -0.7870 ha        1 0ZC      0.117000
     53 HH2        -7.9430   -2.1690   -1.7240 ha        1 0ZC      0.115000
     54 H91        -2.6990    2.1210    1.4340 h1        1 0ZC      0.057200
     55 H92        -2.1960    2.3300   -0.3140 h1        1 0ZC      0.057200
@<TRIPOS>BOND
     1    1    2 1   
     2    1    9 1   
     3    1   32 1   
     4    2    3 1   
     5    2    7 1   
     6    2   33 1   
     7    3    4 1   
     8    3   34 1   
     9    3   35 1   
    10    4    5 1   
    11    4    6 1   
    12    4   36 1   
    13    5   37 1   
    14    5   38 1   
    15    5   39 1   
    16    6   40 1   
    17    6   41 1   
    18    6   42 1   
    19    7    8 2   
    20    7   16 1   
    21    9   10 2   
    22    9   11 1   
    23   11   12 1   
    24   11   13 2   
    25   12   15 1   
    26   13   14 1   
    27   13   43 1   
    28   14   15 2   
    29   14   44 1   
    30   15   45 1   
    31   16   17 1   
    32   16   28 1   
    33   17   18 1   
    34   17   29 1   
    35   17   46 1   
    36   18   19 1   
    37   18   47 1   
    38   18   48 1   
    39   19   20 1   
    40   19   23 2   
    41   20   21 ar  
    42   20   22 ar  
    43   21   24 1   
    44   21   25 ar  
    45   22   26 ar  
    46   22   49 1   
    47   23   24 1   
    48   23   28 1   
    49   24   50 1   
    50   25   27 ar  
    51   25   51 1   
    52   26   27 ar  
    53   26   52 1   
    54   27   53 1   
    55   28   54 1   
    56   28   55 1   
    57   29   30 1   
    58   29   31 1   
@<TRIPOS>SUBSTRUCTURE
     1 0ZC         1 TEMP              0 ****  ****    0 ROOT
