@<TRIPOS>MOLECULE
0ZE
   78    74     1     0     0
SMALL
bcc


@<TRIPOS>ATOM
      1 C1          1.0530   -0.0680    0.7210 c1        1 0ZE      0.324000
      2 O1          0.4580   -1.0460    0.9850 o         1 0ZE     -0.437000
      3 C2          2.3040   -0.1520    0.2290 c2        1 0ZE      0.004000
      4 C3          3.1070    1.5730    0.2370 c3        1 0ZE     -0.176000
      5 C4          3.7100    1.8280   -1.2320 c3        1 0ZE     -0.176000
      6 C5          3.6760    0.5440   -1.8540 c3        1 0ZE      0.011000
      7 C6          3.5510    0.6020   -2.4280 c3        1 0ZE     -0.174000
      8 C7          3.3490   -0.8540   -3.1600 c3        1 0ZE     -0.163000
      9 C8          2.3400   -2.1120   -2.0430 c3        1 0ZE      0.051000
     10 C9          1.8560   -1.8400   -1.8070 c2        1 0ZE      0.271000
     11 O2          0.9150   -2.5010   -1.4270 o         1 0ZE     -0.446000
     12 N1          2.2590   -0.4240   -1.0180 n         1 0ZE     -0.302000
     13 N2          1.9910   -3.3650   -2.7640 n3        1 0ZE     -0.327000
     14 C10         3.4800   -2.8000   -0.6170 c3        1 0ZE     -0.106000
     15 C11         4.5590   -3.7380   -1.2260 c2        1 0ZE     -0.084000
     16 C12         5.9040   -3.5880   -0.8580 c2        1 0ZE     -0.130000
     17 C13         6.8810   -4.3500   -1.4760 c1        1 0ZE     -0.128000
     18 C14         6.5280   -5.2690   -2.4660 c1        1 0ZE     -0.105833
     19 C15         5.1920   -5.4210   -2.8350 c1        1 0ZE     -0.105833
     20 C16         4.2070   -4.6550   -2.2150 c1        1 0ZE     -0.104000
     21 N           0.4750    1.2420    1.0260 n3        1 0ZE     -0.362000
     22 CA         -0.9780    1.4080    1.0630 c3        1 0ZE      0.047000
     23 C          -1.3890    2.3030    0.0010 c3        1 0ZE      0.083000
     24 O          -1.3970    3.6720    0.5020 oh        1 0ZE     -0.324000
     25 CB         -1.3920    2.0050    2.4330 c3        1 0ZE     -0.191000
     26 CG         -2.2060    1.0000    3.1910 c3        1 0ZE     -0.172000
     27 CD         -3.0900    1.7270    4.2250 c3        1 0ZE     -0.053000
     28 NE         -3.9370    0.7950    4.8550 n3        1 0ZE     -0.270000
     29 CZ         -4.9690    1.2700    5.8210 c2        1 0ZE      0.374000
     30 NH1        -4.5770    1.6770    7.1680 n3        1 0ZE     -0.343000
     31 NH2        -6.2410    1.3210    5.4590 n2        1 0ZE     -0.374000
     32 C17        -2.7740    1.9320   -0.4670 c2        1 0ZE     -0.306000
     33 N11        -3.0950    0.8470   -1.3190 n2        1 0ZE     -0.092000
     34 C21        -4.4800    1.1590   -2.0320 c1        1 0ZE     -0.069000
     35 C31        -5.2530    0.4150   -2.9420 c1        1 0ZE     -0.105833
     36 C41        -6.4840    0.9250   -3.4040 c1        1 0ZE     -0.105833
     37 C51        -6.9320    2.1560   -2.9640 c1        1 0ZE     -0.105833
     38 C61        -6.1500    2.9140   -2.0400 c1        1 0ZE     -0.105833
     39 C71        -4.9370    2.4140   -1.5830 c1        1 0ZE     -0.317000
     40 S1         -3.8970    2.9650   -0.5810 s         1 0ZE      0.459000
     41 H2          2.7110   -0.8570    0.8480 h4        1 0ZE      0.140000
     42 H31         2.4430    2.2530    0.4440 hc        1 0ZE      0.111000
     43 H32         3.8120    1.5970    0.8850 hc        1 0ZE      0.111000
     44 H41         4.6780    2.0720   -1.1110 hc        1 0ZE      0.105500
     45 H42         3.0760    2.3900   -1.7050 hc        1 0ZE      0.105500
     46 H5          4.5010    0.0950   -1.7360 h1        1 0ZE      0.113000
     47 H61         4.3150    1.1040   -2.8880 hc        1 0ZE      0.100500
     48 H62         2.6780    1.1520   -2.5270 hc        1 0ZE      0.100500
     49 H71         4.2590   -1.2400   -3.2440 hc        1 0ZE      0.118000
     50 H72         2.8000   -0.6880   -3.9120 hc        1 0ZE      0.118000
     51 HN21        1.5200   -3.1670   -3.5020 hn        1 0ZE      0.162000
     52 HN22        1.4830   -3.9110   -2.2080 hn        1 0ZE      0.162000
     53 H101        3.8930   -2.0940   -0.1830 hc        1 0ZE      0.096500
     54 H102        2.9340   -3.3010    0.0230 hc        1 0ZE      0.096500
     55 H12         6.1630   -2.9160   -0.1340 ha        1 0ZE      0.126000
     56 H13         7.8440   -4.2420   -1.2120 ha        1 0ZE      0.137000
     57 H14         7.2100   -5.7990   -2.8970 ha        1 0ZE      0.146167
     58 H15         4.9400   -6.0820   -3.5470 ha        1 0ZE      0.146167
     59 H16         3.3080   -4.7580   -2.4620 ha        1 0ZE      0.135000
     60 H           1.0450    1.9590    1.3230 hn        1 0ZE      0.241000
     61 HA         -1.4310    0.4930    0.9340 h1        1 0ZE      0.107000
     62 HB2        -0.5830    2.2280    2.9510 hc        1 0ZE      0.120000
     63 HB3        -1.9110    2.7970    2.2920 hc        1 0ZE      0.120000
     64 HG2        -1.5950    0.3620    3.6630 hc        1 0ZE      0.115500
     65 HG3        -2.7830    0.4950    2.5550 hc        1 0ZE      0.115500
     66 HD2        -2.5200    2.1590    4.8990 h1        1 0ZE      0.100000
     67 HD3        -3.6470    2.4270    3.7580 h1        1 0ZE      0.100000
     68 HE         -3.7340   -0.1010    4.8190 hn        1 0ZE      0.271000
     69 HH11       -3.8310    2.1420    7.2980 hn        1 0ZE      0.286000
     70 HH12       -5.1410    1.5290    7.8730 hn        1 0ZE      0.286000
     71 HH21       -6.4790    1.0710    4.6350 DU        1 0ZE      0.268000
     72 HH22       -6.9140    1.6320    6.0900 hn        1 0ZE      0.263000
     73 H3         -4.9500   -0.4260   -3.2410 ha        1 0ZE      0.146167
     74 H4         -7.0410    0.3880   -4.0610 ha        1 0ZE      0.146167
     75 H51        -7.7600    2.4970   -3.2770 ha        1 0ZE      0.146167
     76 H6         -6.4750    3.7960   -1.7240 ha        1 0ZE      0.146167
     77 H37        -0.7440    2.2290   -0.7710 h1        1 0ZE      0.109000
     78 H38        -1.6910    4.2010   -0.1060 ho        1 0ZE      0.224000
@<TRIPOS>BOND
     1    1    2 1   
     2    1   21 1   
     3    3    4 1   
     4    3   12 1   
     5    3   41 1   
     6    4    5 1   
     7    4   42 1   
     8    4   43 1   
     9    5    6 1   
    10    5   44 1   
    11    5   45 1   
    12    6    7 1   
    13    6   12 1   
    14    6   46 1   
    15    7    8 1   
    16    7   47 1   
    17    7   48 1   
    18    8    9 1   
    19    8   49 1   
    20    8   50 1   
    21    9   10 1   
    22    9   13 1   
    23    9   14 1   
    24   10   11 1   
    25   10   12 1   
    26   13   51 1   
    27   13   52 1   
    28   14   15 1   
    29   14   53 1   
    30   14   54 1   
    31   15   16 1   
    32   15   20 1   
    33   16   17 1   
    34   16   55 1   
    35   17   56 1   
    36   18   19 1   
    37   18   57 1   
    38   19   58 1   
    39   20   59 1   
    40   21   22 1   
    41   21   60 1   
    42   22   23 1   
    43   22   25 1   
    44   22   61 1   
    45   23   24 1   
    46   23   32 1   
    47   23   77 1   
    48   24   78 1   
    49   25   26 1   
    50   25   62 1   
    51   25   63 1   
    52   26   27 1   
    53   26   64 1   
    54   26   65 1   
    55   27   28 1   
    56   27   66 1   
    57   27   67 1   
    58   28   29 1   
    59   28   68 1   
    60   29   30 1   
    61   29   31 1   
    62   30   69 1   
    63   30   70 1   
    64   31   72 1   
    65   32   33 1   
    66   32   40 1   
    67   33   34 1   
    68   34   39 1   
    69   35   36 1   
    70   35   73 1   
    71   36   74 1   
    72   37   38 1   
    73   37   75 1   
    74   38   76 1   
@<TRIPOS>SUBSTRUCTURE
     1 0ZE         1 TEMP              0 ****  ****    0 ROOT
