@<TRIPOS>MOLECULE
0ZE
   78    82     1     0     0
SMALL
bcc


@<TRIPOS>ATOM
      1 C1         -0.1120    2.5810   -0.4920 c         1 0ZE      0.690100
      2 O1          0.8250    3.0120   -1.2110 o         1 0ZE     -0.712100
      3 C2         -1.5260    3.1400   -0.7250 c3        1 0ZE      0.044700
      4 C3         -1.7660    4.3490    0.2180 c3        1 0ZE     -0.086400
      5 C4         -3.0860    4.0820    0.9330 c3        1 0ZE     -0.095400
      6 C5         -3.7140    2.8740    0.2110 c3        1 0ZE      0.098700
      7 C6         -4.4330    1.9050    1.1430 c3        1 0ZE     -0.090400
      8 C7         -4.9370    0.7340    0.3310 c3        1 0ZE     -0.087400
      9 C8         -3.8010   -0.0360   -0.3770 c3        1 0ZE      0.146200
     10 C9         -2.6040    0.8730   -0.7870 c         1 0ZE      0.712500
     11 O2         -1.6030    0.3650   -1.3400 o         1 0ZE     -0.683500
     12 N1         -2.6350    2.2240   -0.5320 n         1 0ZE     -0.465800
     13 N2         -4.3040   -0.6510   -1.6020 n3        1 0ZE     -0.894800
     14 C10        -3.1820   -1.0460    0.6350 c3        1 0ZE     -0.075100
     15 C11        -4.0690   -2.2050    0.9180 ca        1 0ZE     -0.095300
     16 C12        -4.0960   -3.3020    0.0480 ca        1 0ZE     -0.130500
     17 C13        -4.9140   -4.3970    0.3200 ca        1 0ZE     -0.122000
     18 C14        -5.7080   -4.4110    1.4670 ca        1 0ZE     -0.119000
     19 C15        -5.6780   -3.3270    2.3440 ca        1 0ZE     -0.122000
     20 C16        -4.8620   -2.2300    2.0730 ca        1 0ZE     -0.130500
     21 N           0.1320    1.7230    0.5550 n         1 0ZE     -0.527900
     22 CA          1.3380    0.9140    0.6160 c3        1 0ZE      0.074700
     23 C           1.0010   -0.5980    0.4020 c3        1 0ZE      0.102800
     24 O           0.6110   -1.2120    1.6100 oh        1 0ZE     -0.579800
     25 CB          2.0930    1.1100    1.9380 c3        1 0ZE     -0.102400
     26 CG          2.7240    2.4730    2.1090 c3        1 0ZE     -0.089400
     27 CD          3.8930    2.7310    1.1530 c3        1 0ZE      0.008300
     28 NE          3.4760    3.3380   -0.0960 nh        1 0ZE     -0.383100
     29 CZ          4.1530    3.1410   -1.2880 cz        1 0ZE      0.512300
     30 NH1         5.4890    2.8050   -1.2860 nh        1 0ZE     -0.505200
     31 NH2         3.5040    3.3630   -2.4790 nh        1 0ZE     -0.505200
     32 C17         2.1330   -1.3170   -0.2730 cc        1 0ZE      0.283200
     33 N11         3.4030   -1.2780    0.1100 nd        1 0ZE     -0.553100
     34 C21         4.1680   -2.0950   -0.7300 ca        1 0ZE      0.070400
     35 C31         5.5570   -2.3260   -0.6240 ca        1 0ZE     -0.086000
     36 C41         6.1650   -3.1690   -1.5360 ca        1 0ZE     -0.122000
     37 C51         5.4260   -3.7940   -2.5580 ca        1 0ZE     -0.109000
     38 C61         4.0620   -3.5860   -2.6780 ca        1 0ZE     -0.085000
     39 C71         3.4160   -2.7410   -1.7700 ca        1 0ZE     -0.106100
     40 S1          1.7940   -2.3100   -1.6430 ss        1 0ZE      0.068900
     41 H2         -1.5320    3.4790   -1.8050 h1        1 0ZE      0.101700
     42 H31        -0.9290    4.4610    0.9490 hc        1 0ZE      0.063700
     43 H32        -1.8210    5.2840   -0.3910 hc        1 0ZE      0.063700
     44 H41        -2.9170    3.8510    2.0140 hc        1 0ZE      0.066200
     45 H42        -3.7680    4.9640    0.8700 hc        1 0ZE      0.066200
     46 H5         -4.4630    3.2540   -0.5490 h1        1 0ZE      0.073700
     47 H61        -3.7540    1.5610    1.9650 hc        1 0ZE      0.059700
     48 H62        -5.2970    2.4390    1.6180 hc        1 0ZE      0.059700
     49 H71        -5.4870    0.0180    0.9980 hc        1 0ZE      0.073200
     50 H72        -5.6720    1.1150   -0.4290 hc        1 0ZE      0.073200
     51 HN21       -3.5630   -1.1380   -2.0700 hn        1 0ZE      0.370300
     52 HN22       -5.0410   -1.2920   -1.3780 hn        1 0ZE      0.370300
     53 H101       -2.2060   -1.4220    0.2210 hc        1 0ZE      0.061700
     54 H102       -2.9550   -0.4950    1.5850 hc        1 0ZE      0.061700
     55 H12        -3.4580   -3.3070   -0.8490 ha        1 0ZE      0.130000
     56 H13        -4.9290   -5.2550   -0.3700 ha        1 0ZE      0.139000
     57 H14        -6.3530   -5.2770    1.6810 ha        1 0ZE      0.142000
     58 H15        -6.2970   -3.3380    3.2530 ha        1 0ZE      0.139000
     59 H16        -4.8350   -1.3830    2.7750 ha        1 0ZE      0.130000
     60 H          -0.6510    1.3320    1.0330 hn        1 0ZE      0.324500
     61 HA          2.0050    1.2160   -0.2430 h1        1 0ZE      0.067700
     62 HB2         1.3860    0.9360    2.7960 hc        1 0ZE      0.075700
     63 HB3         2.8930    0.3250    2.0080 hc        1 0ZE      0.075700
     64 HG2         1.9460    3.2770    2.0270 hc        1 0ZE      0.072200
     65 HG3         3.1440    2.5350    3.1510 hc        1 0ZE      0.072200
     66 HD2         4.6180    3.4450    1.6430 h1        1 0ZE      0.070200
     67 HD3         4.4240    1.7520    0.9690 h1        1 0ZE      0.070200
     68 HE          2.4930    3.5580   -0.1630 hn        1 0ZE      0.335700
     69 HH11        5.9770    2.6840   -0.4280 hn        1 0ZE      0.326700
     70 HH12        5.9920    2.7040   -2.1360 hn        1 0ZE      0.326700
     71 HH21        2.5100    3.4860   -2.4970 hn        1 0ZE      0.326700
     72 HH22        3.9970    3.3510   -3.3410 hn        1 0ZE      0.326700
     73 H3          6.1330   -1.8530    0.1840 ha        1 0ZE      0.146000
     74 H4          7.2460   -3.3670   -1.4610 ha        1 0ZE      0.146000
     75 H51         5.9430   -4.4630   -3.2640 ha        1 0ZE      0.149000
     76 H6          3.4870   -4.0850   -3.4730 ha        1 0ZE      0.151000
     77 H37         0.0800   -0.6960   -0.2590 h1        1 0ZE      0.125700
     78 H38         1.4000   -1.3660    2.1470 ho        1 0ZE      0.419000
@<TRIPOS>BOND
     1    1    2 2   
     2    1    3 1   
     3    1   21 1   
     4    3    4 1   
     5    3   12 1   
     6    3   41 1   
     7    4    5 1   
     8    4   42 1   
     9    4   43 1   
    10    5    6 1   
    11    5   44 1   
    12    5   45 1   
    13    6    7 1   
    14    6   12 1   
    15    6   46 1   
    16    7    8 1   
    17    7   47 1   
    18    7   48 1   
    19    8    9 1   
    20    8   49 1   
    21    8   50 1   
    22    9   10 1   
    23    9   13 1   
    24    9   14 1   
    25   10   11 2   
    26   10   12 1   
    27   13   51 1   
    28   13   52 1   
    29   14   15 1   
    30   14   53 1   
    31   14   54 1   
    32   15   16 ar  
    33   15   20 ar  
    34   16   17 ar  
    35   16   55 1   
    36   17   18 ar  
    37   17   56 1   
    38   18   19 ar  
    39   18   57 1   
    40   19   20 ar  
    41   19   58 1   
    42   20   59 1   
    43   21   22 1   
    44   21   60 1   
    45   22   23 1   
    46   22   25 1   
    47   22   61 1   
    48   23   24 1   
    49   23   32 1   
    50   23   77 1   
    51   24   78 1   
    52   25   26 1   
    53   25   62 1   
    54   25   63 1   
    55   26   27 1   
    56   26   64 1   
    57   26   65 1   
    58   27   28 1   
    59   27   66 1   
    60   27   67 1   
    61   28   29 2   
    62   28   68 1   
    63   29   30 1   
    64   29   31 1   
    65   30   69 1   
    66   30   70 1   
    67   31   71 1   
    68   31   72 1   
    69   32   33 2   
    70   32   40 1   
    71   33   34 1   
    72   34   35 ar  
    73   34   39 ar  
    74   35   36 ar  
    75   35   73 1   
    76   36   37 ar  
    77   36   74 1   
    78   37   38 ar  
    79   37   75 1   
    80   38   39 ar  
    81   38   76 1   
    82   39   40 1   
@<TRIPOS>SUBSTRUCTURE
     1 0ZE         1 TEMP              0 ****  ****    0 ROOT
