@<TRIPOS>MOLECULE
0ZG
   58    60     1     0     0
SMALL
bcc


@<TRIPOS>ATOM
      1 S           0.3240    1.1990    0.6980 sy        1 0ZG      1.537200
      2 O1S         0.5010    0.4100    1.8520 o         1 0ZG     -0.672300
      3 O2S        -0.8820    1.9350    0.6460 o         1 0ZG     -0.672300
      4 C1          1.6060    2.2690    0.5200 ca        1 0ZG     -0.402500
      5 C2          1.4210    3.5250   -0.0740 ca        1 0ZG     -0.005000
      6 C3          2.4750    4.4220   -0.1980 ca        1 0ZG     -0.160500
      7 C4          3.7500    4.0820    0.2760 ca        1 0ZG     -0.000300
      8 C5          3.9430    2.8310    0.8770 ca        1 0ZG     -0.160500
      9 C6          2.8820    1.9400    0.9960 ca        1 0ZG     -0.005000
     10 C           4.8730    5.0380    0.1580 c3        1 0ZG     -0.070800
     11 N1          1.5890   -3.2580   -0.9100 n         1 0ZG     -0.447800
     12 C21         2.8770   -3.8970   -1.1230 c3        1 0ZG      0.076500
     13 C31         3.6330   -4.1920    0.1750 c3        1 0ZG     -0.104900
     14 C41         2.7640   -4.9320    1.1700 c3        1 0ZG     -0.078400
     15 C51         1.4400   -4.2270    1.3820 c3        1 0ZG     -0.104900
     16 C61         0.7530   -3.9610    0.0400 c3        1 0ZG      0.076500
     17 N           0.4730    0.2850   -0.6310 n3        1 0ZG     -0.912100
     18 CA          0.2100   -1.1280   -0.6820 c3        1 0ZG      0.184500
     19 C7          1.4520   -1.9050   -1.1970 c         1 0ZG      0.635100
     20 O           2.2860   -1.3330   -1.9300 o         1 0ZG     -0.609100
     21 CB         -0.9810   -1.5010   -1.5940 c3        1 0ZG     -0.047100
     22 CG         -2.2810   -1.4250   -0.8750 ca        1 0ZG     -0.106300
     23 CD1        -2.8790   -0.1870   -0.6140 ca        1 0ZG     -0.110000
     24 CD2        -2.9330   -2.5990   -0.4800 ca        1 0ZG     -0.122000
     25 CE1        -4.1120   -0.1290    0.0420 ca        1 0ZG     -0.120900
     26 CE2        -4.1680   -2.5370    0.1630 ca        1 0ZG     -0.136000
     27 CZ         -4.7650   -1.3030    0.4240 ca        1 0ZG     -0.080000
     28 CF         -4.7330    1.2060    0.3290 ce        1 0ZG      0.650800
     29 NG1        -5.9440    1.4180   -0.1000 n2        1 0ZG     -0.844100
     30 NG2        -3.9390    2.0550    1.1210 nh        1 0ZG     -0.949800
     31 H2          0.4150    3.8060   -0.4350 ha        1 0ZG      0.153000
     32 H3          2.3110    5.4030   -0.6680 ha        1 0ZG      0.143500
     33 H5          4.9380    2.5540    1.2560 ha        1 0ZG      0.143500
     34 H6          3.0390    0.9620    1.4840 ha        1 0ZG      0.153000
     35 H1          4.9230    5.6760    1.0770 hc        1 0ZG      0.055367
     36 H2A         5.8480    4.5000    0.0530 hc        1 0ZG      0.055367
     37 H3A         4.7390    5.7080   -0.7270 hc        1 0ZG      0.055367
     38 H21         2.6810   -4.8680   -1.6610 h1        1 0ZG      0.060950
     39 H22         3.5130   -3.2460   -1.7870 h1        1 0ZG      0.060950
     40 H31         4.5350   -4.8080   -0.0760 hc        1 0ZG      0.053200
     41 H32         3.9930   -3.2320    0.6290 hc        1 0ZG      0.053200
     42 H41         2.5740   -5.9730    0.7950 hc        1 0ZG      0.043700
     43 H42         3.3030   -5.0210    2.1490 hc        1 0ZG      0.043700
     44 H51         0.7620   -4.8620    2.0080 hc        1 0ZG      0.053200
     45 H52         1.6020   -3.2610    1.9280 hc        1 0ZG      0.053200
     46 H61        -0.2160   -3.4150    0.2070 h1        1 0ZG      0.060950
     47 H62         0.4960   -4.9560   -0.4310 h1        1 0ZG      0.060950
     48 H           0.8560    0.6310   -1.4810 hn        1 0ZG      0.462800
     49 HA         -0.0140   -1.4600    0.3800 h1        1 0ZG      0.093700
     50 HB2        -1.0030   -0.8260   -2.4910 hc        1 0ZG      0.068200
     51 HB3        -0.8270   -2.5460   -1.9770 hc        1 0ZG      0.068200
     52 HD1        -2.3740    0.7430   -0.9210 ha        1 0ZG      0.149000
     53 HD2        -2.4720   -3.5770   -0.6840 ha        1 0ZG      0.127000
     54 HE2        -4.6780   -3.4640    0.4630 ha        1 0ZG      0.134000
     55 HZ         -5.7450   -1.2520    0.9220 ha        1 0ZG      0.152000
     56 HG1        -6.3300    2.3160    0.1020 hn        1 0ZG      0.378400
     57 HG21       -2.9660    1.8360    1.1570 hn        1 0ZG      0.412300
     58 HG22       -4.1300    3.0280    1.0560 hn        1 0ZG      0.412300
@<TRIPOS>BOND
     1    1    2 2   
     2    1    3 2   
     3    1    4 1   
     4    1   17 1   
     5    4    5 ar  
     6    4    9 ar  
     7    5    6 ar  
     8    5   31 1   
     9    6    7 ar  
    10    6   32 1   
    11    7    8 ar  
    12    7   10 1   
    13    8    9 ar  
    14    8   33 1   
    15    9   34 1   
    16   10   35 1   
    17   10   36 1   
    18   10   37 1   
    19   11   12 1   
    20   11   16 1   
    21   11   19 1   
    22   12   13 1   
    23   12   38 1   
    24   12   39 1   
    25   13   14 1   
    26   13   40 1   
    27   13   41 1   
    28   14   15 1   
    29   14   42 1   
    30   14   43 1   
    31   15   16 1   
    32   15   44 1   
    33   15   45 1   
    34   16   46 1   
    35   16   47 1   
    36   17   18 1   
    37   17   48 1   
    38   18   19 1   
    39   18   21 1   
    40   18   49 1   
    41   19   20 2   
    42   21   22 1   
    43   21   50 1   
    44   21   51 1   
    45   22   23 ar  
    46   22   24 ar  
    47   23   25 ar  
    48   23   52 1   
    49   24   26 ar  
    50   24   53 1   
    51   25   27 ar  
    52   25   28 1   
    53   26   27 ar  
    54   26   54 1   
    55   27   55 1   
    56   28   29 2   
    57   28   30 1   
    58   29   56 1   
    59   30   57 1   
    60   30   58 1   
@<TRIPOS>SUBSTRUCTURE
     1 0ZG         1 TEMP              0 ****  ****    0 ROOT
