@<TRIPOS>MOLECULE
0ZG
   58    53     1     0     0
SMALL
bcc


@<TRIPOS>ATOM
      1 S           0.2540    1.5880    0.9030 ss        1 0ZG      2.863000
      2 O1S         1.2190    2.2540    0.0750 o         1 0ZG     -0.937500
      3 O2S         1.0540    1.2520    2.0490 o         1 0ZG     -0.937500
      4 C1         -1.1220    2.7120    1.3580 c1        1 0ZG     -0.840000
      5 C2         -1.0750    4.0550    0.9910 c2        1 0ZG     -0.004000
      6 C3         -2.1040    4.9230    1.3750 c1        1 0ZG     -0.160000
      7 C4         -3.1780    4.4430    2.1250 c1        1 0ZG      0.002000
      8 C5         -3.2250    3.0980    2.4920 c1        1 0ZG     -0.160000
      9 C6         -2.1950    2.2310    2.1080 c1        1 0ZG     -0.011000
     10 C          -4.3770    5.3770    2.4460 c3        1 0ZG     -0.194000
     11 N1          0.6530   -0.6340   -3.3130 n         1 0ZG     -0.310000
     12 C21         0.1020   -0.6530   -4.6560 c3        1 0ZG     -0.036500
     13 C31         0.9060    0.1950   -5.6200 c3        1 0ZG     -0.183500
     14 C41         2.3560   -0.1330   -5.5830 c3        1 0ZG     -0.158000
     15 C51         2.8970   -0.1080   -4.2060 c3        1 0ZG     -0.183500
     16 C61         2.0750   -0.9550   -3.2510 c3        1 0ZG     -0.036500
     17 N          -0.3400    0.2200    0.1580 n2        1 0ZG     -0.873000
     18 CA          0.4660   -0.4810   -0.7950 c3        1 0ZG      0.040000
     19 C7         -0.1300   -0.3310   -2.1530 c2        1 0ZG      0.274000
     20 O          -1.3090   -0.0730   -2.2700 o         1 0ZG     -0.365000
     21 CB          0.5220   -1.9730   -0.4230 c3        1 0ZG     -0.134000
     22 CG          0.8920   -2.1200    1.0710 c2        1 0ZG     -0.088000
     23 CD1         0.0460   -2.8270    1.9310 c2        1 0ZG     -0.081000
     24 CD2         2.1160   -1.6560    1.5280 c1        1 0ZG     -0.117000
     25 CE1         0.4330   -3.0660    3.2490 c1        1 0ZG     -0.108000
     26 CE2         2.5050   -1.8940    2.8490 c1        1 0ZG     -0.116500
     27 CZ          1.6600   -2.6010    3.7080 c1        1 0ZG     -0.116500
     28 CF         -0.4570   -3.9320    4.1700 c2        1 0ZG      0.112000
     29 NG1        -1.3240   -3.3590    4.9720 n1        1 0ZG     -0.299000
     30 NG2        -0.3360   -5.3560    4.1490 n3        1 0ZG     -0.330000
     31 H2         -0.3190    4.3930    0.4630 ha        1 0ZG      0.148000
     32 H3         -2.0710    5.8650    1.1180 ha        1 0ZG      0.140000
     33 H5         -3.9760    2.7610    3.0180 ha        1 0ZG      0.142000
     34 H6         -2.2270    1.2830    2.3680 ha        1 0ZG      0.155000
     35 H1         -4.0480    6.2890    2.6080 hc        1 0ZG      0.092667
     36 H2A        -5.0050    5.3850    1.6770 hc        1 0ZG      0.092667
     37 H3A        -4.8430    5.0500    3.2460 hc        1 0ZG      0.092667
     38 H21         0.0890   -1.5780   -4.9820 h1        1 0ZG      0.098750
     39 H22        -0.8210   -0.3120   -4.6270 h1        1 0ZG      0.098750
     40 H31         0.5690    0.0460   -6.5300 hc        1 0ZG      0.091750
     41 H32         0.7870    1.1390   -5.3880 hc        1 0ZG      0.091750
     42 H41         2.8450    0.5200   -6.1300 hc        1 0ZG      0.083000
     43 H42         2.4890   -1.0270   -5.9600 hc        1 0ZG      0.083000
     44 H51         2.9030    0.8150   -3.8840 hc        1 0ZG      0.091750
     45 H52         3.8160   -0.4470   -4.2200 hc        1 0ZG      0.091750
     46 H61         2.1960   -1.8990   -3.4800 h1        1 0ZG      0.098750
     47 H62         2.3940   -0.8070   -2.3420 h1        1 0ZG      0.098750
     48 H          -1.2030   -0.0320    0.2950 hn        1 0ZG      0.254000
     49 HA          1.3680   -0.1110   -0.7920 h1        1 0ZG      0.133000
     50 HB2        -0.3540   -2.3820   -0.5850 hc        1 0ZG      0.106500
     51 HB3         1.2000   -2.4230   -0.9750 hc        1 0ZG      0.106500
     52 HD1        -0.8180   -3.1550    1.6070 ha        1 0ZG      0.150000
     53 HD2         2.7060   -1.1620    0.9270 ha        1 0ZG      0.131000
     54 HE2         3.3680   -1.5670    3.1720 ha        1 0ZG      0.139000
     55 HZ          1.9320   -2.7690    4.6360 ha        1 0ZG      0.139000
     56 HG1        -1.4020   -2.4530    4.9860 DU        1 0ZG      0.158000
     57 HG21        0.3100   -5.7510    3.6430 hn        1 0ZG      0.190500
     58 HG22       -0.8680   -5.8680    4.6940 hn        1 0ZG      0.190500
@<TRIPOS>BOND
     1    1    2 1   
     2    1    3 1   
     3    4    5 1   
     4    4    9 1   
     5    5    6 1   
     6    5   31 1   
     7    6   32 1   
     8    7    8 1   
     9    7   10 1   
    10    8   33 1   
    11    9   34 1   
    12   10   35 1   
    13   10   36 1   
    14   10   37 1   
    15   11   12 1   
    16   11   16 1   
    17   11   19 1   
    18   12   13 1   
    19   12   38 1   
    20   12   39 1   
    21   13   14 1   
    22   13   40 1   
    23   13   41 1   
    24   14   15 1   
    25   14   42 1   
    26   14   43 1   
    27   15   16 1   
    28   15   44 1   
    29   15   45 1   
    30   16   46 1   
    31   16   47 1   
    32   17   18 1   
    33   17   48 1   
    34   18   19 1   
    35   18   21 1   
    36   18   49 1   
    37   19   20 1   
    38   21   22 1   
    39   21   50 1   
    40   21   51 1   
    41   22   23 1   
    42   22   24 1   
    43   23   25 1   
    44   23   52 1   
    45   24   53 1   
    46   25   28 1   
    47   26   27 1   
    48   26   54 1   
    49   27   55 1   
    50   28   29 1   
    51   28   30 1   
    52   30   57 1   
    53   30   58 1   
@<TRIPOS>SUBSTRUCTURE
     1 0ZG         1 TEMP              0 ****  ****    0 ROOT
