@<TRIPOS>MOLECULE
0ZI
   74    76     1     0     0
SMALL
bcc


@<TRIPOS>ATOM
      1 C1          1.1540   -1.3930   -0.9830 ca        1 0ZI     -0.432500
      2 C2          1.9440   -1.1330   -2.0960 ca        1 0ZI      0.032000
      3 C3          3.3280   -1.3570   -2.0840 ca        1 0ZI     -0.186000
      4 C4          3.9330   -1.8560   -0.9510 ca        1 0ZI      0.001000
      5 C4A         3.1730   -2.1690    0.2060 ca        1 0ZI     -0.075000
      6 C5          3.7960   -2.6950    1.4010 ca        1 0ZI      0.175600
      7 C6          3.0110   -2.8980    2.5330 ca        1 0ZI     -0.197000
      8 C7          1.6280   -2.6460    2.5060 ca        1 0ZI     -0.049000
      9 C8          1.0140   -2.1910    1.3650 ca        1 0ZI     -0.212000
     10 C8A         1.7710   -1.9220    0.1940 ca        1 0ZI      0.088000
     11 N           5.1980   -2.9240    1.4030 nh        1 0ZI     -0.651000
     12 CM1         5.8520   -2.8280    2.6880 c3        1 0ZI      0.164600
     13 CM2         5.6420   -4.0560    0.6160 c3        1 0ZI      0.164600
     14 S          -0.4660   -1.0460   -1.1080 sy        1 0ZI      1.551200
     15 O1S        -0.8080   -0.6660   -2.4230 o         1 0ZI     -0.703800
     16 O2S        -1.2730   -2.1270   -0.6300 o         1 0ZI     -0.703800
     17 N1         -0.6760    0.1920   -0.0900 n3        1 0ZI     -0.929100
     18 CA         -1.4870    1.3460   -0.3880 c3        1 0ZI      0.176500
     19 C          -1.1810    2.5140    0.5870 c         1 0ZI      0.644100
     20 O          -0.7610    2.2450    1.7340 o         1 0ZI     -0.614100
     21 CB         -3.0050    1.0730   -0.3380 c3        1 0ZI     -0.106400
     22 CG         -3.5280    0.7390    1.0440 c3        1 0ZI     -0.103400
     23 CD         -4.4410   -0.4880    1.0540 c3        1 0ZI      0.019300
     24 NE         -3.7150   -1.7220    0.8450 nh        1 0ZI     -0.391100
     25 CZ         -4.3080   -2.8850    0.3950 cz        1 0ZI      0.514300
     26 NH1        -5.6790   -3.0450    0.4620 nh        1 0ZI     -0.505700
     27 NH2        -3.5190   -3.9120   -0.0650 nh        1 0ZI     -0.505700
     28 N11        -1.4830    3.8140    0.2280 n         1 0ZI     -0.438800
     29 C21        -1.0310    4.9020    1.0850 c3        1 0ZI      0.074500
     30 C31         0.1260    5.7090    0.4950 c3        1 0ZI     -0.101400
     31 C41        -0.1860    6.1830   -0.9170 c3        1 0ZI     -0.065700
     32 C51        -0.6100    5.0060   -1.7840 c3        1 0ZI     -0.101400
     33 C61        -1.7600    4.2380   -1.1300 c3        1 0ZI      0.074500
     34 C1'         1.0180    6.9000   -1.5070 c3        1 0ZI     -0.077400
     35 C2'         0.6740    7.6840   -2.7470 c3        1 0ZI     -0.095100
     36 H2          1.4780   -0.7330   -3.0190 ha        1 0ZI      0.167000
     37 H3          3.9220   -1.1230   -2.9810 ha        1 0ZI      0.157000
     38 H4          5.0290   -1.9950   -0.9450 ha        1 0ZI      0.164000
     39 H6          3.4540   -3.2710    3.4700 ha        1 0ZI      0.150000
     40 H7          1.0380   -2.8360    3.4170 ha        1 0ZI      0.141000
     41 H8         -0.0780   -2.0610    1.3580 ha        1 0ZI      0.127000
     42 HM11        5.6770   -3.7270    3.3420 h1        1 0ZI      0.045700
     43 HM12        6.9560   -2.7340    2.5020 h1        1 0ZI      0.045700
     44 HM13        5.4940   -1.9120    3.2250 h1        1 0ZI      0.045700
     45 HM21        5.0240   -4.1520   -0.3140 h1        1 0ZI      0.045700
     46 HM22        6.7120   -3.8770    0.3300 h1        1 0ZI      0.045700
     47 HM23        5.5800   -5.0230    1.1870 h1        1 0ZI      0.045700
     48 H          -0.2150    0.2510    0.7950 hn        1 0ZI      0.477800
     49 HA         -1.2330    1.6570   -1.4490 h1        1 0ZI      0.087700
     50 HB2        -3.5190    1.9970   -0.7180 hc        1 0ZI      0.063700
     51 HB3        -3.2390    0.2520   -1.0670 hc        1 0ZI      0.063700
     52 HG2        -2.6800    0.6070    1.7710 hc        1 0ZI      0.087200
     53 HG3        -4.1430    1.5970    1.4310 hc        1 0ZI      0.087200
     54 HD2        -4.9550   -0.5520    2.0580 h1        1 0ZI      0.062700
     55 HD3        -5.2300   -0.3540    0.2570 h1        1 0ZI      0.062700
     56 HE         -2.7150   -1.6430    0.7400 hn        1 0ZI      0.342700
     57 HH11       -6.2440   -2.3540    0.8990 hn        1 0ZI      0.327200
     58 HH12       -6.1000   -3.9090    0.2140 hn        1 0ZI      0.327200
     59 HH21       -3.9220   -4.7750   -0.3460 hn        1 0ZI      0.327200
     60 HH22       -2.5470   -3.7480   -0.2640 hn        1 0ZI      0.327200
     61 H21        -1.9170    5.5840    1.2370 h1        1 0ZI      0.063200
     62 H22        -0.7240    4.4900    2.0880 h1        1 0ZI      0.063200
     63 H31         0.3090    6.5920    1.1600 hc        1 0ZI      0.057200
     64 H32         1.0600    5.0900    0.4870 hc        1 0ZI      0.057200
     65 H41        -1.0460    6.9100   -0.8650 hc        1 0ZI      0.054700
     66 H51        -0.9580    5.3750   -2.7830 hc        1 0ZI      0.057200
     67 H52         0.2630    4.3250   -1.9550 hc        1 0ZI      0.057200
     68 H61        -2.0420    3.3660   -1.7800 h1        1 0ZI      0.063200
     69 H62        -2.6600    4.9190   -1.0750 h1        1 0ZI      0.063200
     70 H1'1        1.4350    7.6000   -0.7330 hc        1 0ZI      0.044700
     71 H1'2        1.8200    6.1510   -1.7410 hc        1 0ZI      0.044700
     72 H2'1        0.3160    7.0080   -3.5610 hc        1 0ZI      0.037367
     73 H2'2       -0.1270    8.4320   -2.5340 hc        1 0ZI      0.037367
     74 H2'3        1.5760    8.2300   -3.1170 hc        1 0ZI      0.037367
@<TRIPOS>BOND
     1    1    2 ar  
     2    1   10 ar  
     3    1   14 1   
     4    2    3 ar  
     5    2   36 1   
     6    3    4 ar  
     7    3   37 1   
     8    4    5 ar  
     9    4   38 1   
    10    5    6 ar  
    11    5   10 ar  
    12    6    7 ar  
    13    6   11 1   
    14    7    8 ar  
    15    7   39 1   
    16    8    9 ar  
    17    8   40 1   
    18    9   10 ar  
    19    9   41 1   
    20   11   12 1   
    21   11   13 1   
    22   12   42 1   
    23   12   43 1   
    24   12   44 1   
    25   13   45 1   
    26   13   46 1   
    27   13   47 1   
    28   14   15 2   
    29   14   16 2   
    30   14   17 1   
    31   17   18 1   
    32   17   48 1   
    33   18   19 1   
    34   18   21 1   
    35   18   49 1   
    36   19   20 2   
    37   19   28 1   
    38   21   22 1   
    39   21   50 1   
    40   21   51 1   
    41   22   23 1   
    42   22   52 1   
    43   22   53 1   
    44   23   24 1   
    45   23   54 1   
    46   23   55 1   
    47   24   25 2   
    48   24   56 1   
    49   25   26 1   
    50   25   27 1   
    51   26   57 1   
    52   26   58 1   
    53   27   59 1   
    54   27   60 1   
    55   28   29 1   
    56   28   33 1   
    57   29   30 1   
    58   29   61 1   
    59   29   62 1   
    60   30   31 1   
    61   30   63 1   
    62   30   64 1   
    63   31   32 1   
    64   31   34 1   
    65   31   65 1   
    66   32   33 1   
    67   32   66 1   
    68   32   67 1   
    69   33   68 1   
    70   33   69 1   
    71   34   35 1   
    72   34   70 1   
    73   34   71 1   
    74   35   72 1   
    75   35   73 1   
    76   35   74 1   
@<TRIPOS>SUBSTRUCTURE
     1 0ZI         1 TEMP              0 ****  ****    0 ROOT
