@<TRIPOS>MOLECULE
0ZI
   74    69     1     0     0
SMALL
bcc


@<TRIPOS>ATOM
      1 C1         -1.9430    0.6270    2.2390 c1        1 0ZI     -0.872000
      2 C2         -1.4070   -0.6200    2.5500 c1        1 0ZI      0.033000
      3 C3         -2.0900   -1.4790    3.4150 c1        1 0ZI     -0.108500
      4 C4         -3.3100   -1.0880    3.9680 c1        1 0ZI     -0.108500
      5 C4A        -3.8550    0.1770    3.6530 c1        1 0ZI     -0.074000
      6 C5         -5.0550    0.6030    4.2710 c1        1 0ZI      0.094000
      7 C6         -5.5550    1.8800    4.0160 c1        1 0ZI     -0.108500
      8 C7         -4.8720    2.7390    3.1510 c1        1 0ZI     -0.108500
      9 C8         -3.6890    2.3210    2.5420 c1        1 0ZI     -0.211000
     10 C8A        -3.1810    1.0260    2.7990 c1        1 0ZI      0.086000
     11 N          -6.0310   -0.2410    4.9070 n3        1 0ZI     -0.253000
     12 CM1        -7.0960   -0.8190    4.1320 c3        1 0ZI     -0.111000
     13 CM2        -5.9240   -0.5320    6.3110 c3        1 0ZI     -0.111000
     14 S          -1.0390    0.3930    0.7010 s4        1 0ZI      2.105800
     15 O1S        -1.6190    1.1640   -0.3700 o         1 0ZI     -0.591400
     16 O2S        -1.2000   -0.9470    0.1990 o         1 0ZI     -0.591400
     17 N1          0.5730    0.7690    0.9150 n2        1 0ZI     -0.892000
     18 CA          1.5040    0.5430   -0.1400 c3        1 0ZI      0.025000
     19 C           2.4470   -0.5880    0.2470 c2        1 0ZI      0.279000
     20 O           2.9380   -0.6150    1.3640 o         1 0ZI     -0.365000
     21 CB          2.3060    1.8090   -0.3880 c3        1 0ZI     -0.174000
     22 CG          2.3030    2.1330   -1.8920 c3        1 0ZI     -0.187000
     23 CD          1.7380    3.5480   -2.1110 c3        1 0ZI     -0.056000
     24 NE          2.4260    4.1750   -3.2090 n3        1 0ZI     -0.305000
     25 CZ          1.6810    4.9040   -4.2010 c2        1 0ZI      0.374000
     26 NH1         0.6930    5.8560   -3.7980 n3        1 0ZI     -0.341000
     27 NH2         1.9100    4.6930   -5.4830 n2        1 0ZI     -0.384000
     28 N11         2.6730   -1.7030   -0.6790 n         1 0ZI     -0.292000
     29 C21         3.4790   -2.8830   -0.3290 c3        1 0ZI     -0.045500
     30 C31         4.5560   -3.1780   -1.3690 c3        1 0ZI     -0.177000
     31 C41         4.0000   -3.2400   -2.7590 c3        1 0ZI     -0.105000
     32 C51         3.1820   -2.0280   -3.0930 c3        1 0ZI     -0.177000
     33 C61         2.1160   -1.7420   -2.0370 c3        1 0ZI     -0.045500
     34 C1'         3.1010   -4.5090   -2.8900 c3        1 0ZI     -0.157000
     35 C2'         3.7730   -5.5190   -3.8410 c3        1 0ZI     -0.213000
     36 H2         -0.5520   -0.8950    2.1630 ha        1 0ZI      0.167000
     37 H3         -1.7120   -2.3580    3.6330 ha        1 0ZI      0.152500
     38 H4         -3.7890   -1.6900    4.5740 ha        1 0ZI      0.152500
     39 H6         -6.3880    2.1760    4.4450 ha        1 0ZI      0.152500
     40 H7         -5.2250    3.6390    2.9720 ha        1 0ZI      0.152500
     41 H8         -3.2100    2.9240    1.9350 ha        1 0ZI      0.130000
     42 HM11       -6.7980   -1.6770    3.7530 h1        1 0ZI      0.085000
     43 HM12       -7.8770   -0.9700    4.7090 h1        1 0ZI      0.085000
     44 HM13       -7.3410   -0.2070    3.4030 h1        1 0ZI      0.085000
     45 HM21       -6.0170   -1.5000    6.4540 h1        1 0ZI      0.085000
     46 HM22       -6.6350   -0.0580    6.7990 h1        1 0ZI      0.085000
     47 HM23       -5.0470   -0.2350    6.6410 h1        1 0ZI      0.085000
     48 H           0.8610    1.1210    1.7130 hn        1 0ZI      0.262000
     49 HA          1.0190    0.2990   -0.9580 h1        1 0ZI      0.124000
     50 HB2         3.2320    1.6760   -0.0840 hc        1 0ZI      0.120000
     51 HB3         1.9020    2.5560    0.1090 hc        1 0ZI      0.120000
     52 HG2         3.2230    2.0910   -2.2380 hc        1 0ZI      0.094500
     53 HG3         1.7450    1.4810   -2.3650 hc        1 0ZI      0.094500
     54 HD2         1.8670    4.0830   -1.2950 h1        1 0ZI      0.135000
     55 HD3         0.7800    3.4890   -2.3160 h1        1 0ZI      0.135000
     56 HE          3.3440    4.1900   -3.2250 hn        1 0ZI      0.256000
     57 HH11        0.4060    6.4980   -4.3880 hn        1 0ZI      0.293500
     58 HH12        0.3430    5.8240   -2.9500 hn        1 0ZI      0.293500
     59 HH21        2.5420    4.0840   -5.7420 DU        1 0ZI      0.269000
     60 HH22        1.4340    5.1580   -6.1160 hn        1 0ZI      0.270000
     61 H21         2.8850   -3.6630   -0.2550 h1        1 0ZI      0.106750
     62 H22         3.9100   -2.7270    0.5410 h1        1 0ZI      0.106750
     63 H31         4.9780   -4.0420   -1.1550 hc        1 0ZI      0.093000
     64 H32         5.2390   -2.4700   -1.3300 hc        1 0ZI      0.093000
     65 H41         4.7450   -3.3080   -3.3990 hc        1 0ZI      0.097000
     66 H51         3.7800   -1.2490   -3.1610 hc        1 0ZI      0.093000
     67 H52         2.7410   -2.1690   -3.9620 hc        1 0ZI      0.093000
     68 H61         1.6980   -0.8770   -2.2340 h1        1 0ZI      0.106750
     69 H62         1.4280   -2.4460   -2.0790 h1        1 0ZI      0.106750
     70 H1'1        2.2230   -4.2540   -3.2510 hc        1 0ZI      0.079500
     71 H1'2        2.9850   -4.9200   -2.0050 hc        1 0ZI      0.079500
     72 H2'1        4.7500   -5.4580   -3.7470 hc        1 0ZI      0.077333
     73 H2'2        3.4790   -6.4300   -3.6130 hc        1 0ZI      0.077333
     74 H2'3        3.5190   -5.3150   -4.7690 hc        1 0ZI      0.077333
@<TRIPOS>BOND
     1    1    2 1   
     2    1   14 1   
     3    2   36 1   
     4    3    4 1   
     5    3   37 1   
     6    4   38 1   
     7    5    6 1   
     8    5   10 1   
     9    6   11 1   
    10    7    8 1   
    11    7   39 1   
    12    8   40 1   
    13    9   10 1   
    14    9   41 1   
    15   11   12 1   
    16   11   13 1   
    17   12   42 1   
    18   12   43 1   
    19   12   44 1   
    20   13   45 1   
    21   13   46 1   
    22   13   47 1   
    23   14   15 1   
    24   14   16 1   
    25   17   18 1   
    26   17   48 1   
    27   18   19 1   
    28   18   21 1   
    29   18   49 1   
    30   19   20 1   
    31   19   28 1   
    32   21   22 1   
    33   21   50 1   
    34   21   51 1   
    35   22   23 1   
    36   22   52 1   
    37   22   53 1   
    38   23   24 1   
    39   23   54 1   
    40   23   55 1   
    41   24   25 1   
    42   24   56 1   
    43   25   26 1   
    44   25   27 1   
    45   26   57 1   
    46   26   58 1   
    47   27   60 1   
    48   28   29 1   
    49   28   33 1   
    50   29   30 1   
    51   29   61 1   
    52   29   62 1   
    53   30   31 1   
    54   30   63 1   
    55   30   64 1   
    56   31   32 1   
    57   31   34 1   
    58   31   65 1   
    59   32   33 1   
    60   32   66 1   
    61   32   67 1   
    62   33   68 1   
    63   33   69 1   
    64   34   35 1   
    65   34   70 1   
    66   34   71 1   
    67   35   72 1   
    68   35   73 1   
    69   35   74 1   
@<TRIPOS>SUBSTRUCTURE
     1 0ZI         1 TEMP              0 ****  ****    0 ROOT
