@<TRIPOS>MOLECULE
0ZJ
   71    68     1     0     0
SMALL
bcc


@<TRIPOS>ATOM
      1 C1         -3.1230   -3.6510    0.9880 c1        1 0ZJ      0.301000
      2 O2         -3.5960   -3.6620   -0.1570 o         1 0ZJ     -0.357000
      3 C2         -4.0600   -3.5190    2.2040 c2        1 0ZJ     -0.250000
      4 S2         -5.6470   -2.8610    1.6700 sh        1 0ZJ     -0.133000
      5 N          -1.7280   -3.9060    1.1860 n3        1 0ZJ     -0.353000
      6 CA         -0.8610   -3.9280    0.0890 c3        1 0ZJ      0.026000
      7 C           0.0040   -2.6810    0.0990 c2        1 0ZJ      0.293000
      8 O           0.5080   -2.2890    1.1500 o         1 0ZJ     -0.408000
      9 CB          0.0480   -5.1720    0.1660 c3        1 0ZJ     -0.133000
     10 CG         -0.8080   -6.4670    0.0960 c2        1 0ZJ     -0.093000
     11 CD1        -1.5190   -6.7750   -1.0650 c2        1 0ZJ     -0.122000
     12 CD2        -0.8040   -7.3680    1.1750 c1        1 0ZJ     -0.132000
     13 CE1        -2.2300   -7.9860   -1.1540 c1        1 0ZJ     -0.120000
     14 CE2        -1.5120   -8.5710    1.0860 c1        1 0ZJ     -0.123500
     15 CZ         -2.2250   -8.8800   -0.0810 c1        1 0ZJ     -0.123500
     16 N1          0.3000   -1.9730   -1.1800 n         1 0ZJ     -0.313000
     17 CA1         1.2360   -0.7020   -1.3710 c3        1 0ZJ      0.020000
     18 C3          0.5690    0.5300   -0.7730 c2        1 0ZJ      0.299000
     19 O1         -0.2430    0.4100    0.0780 o         1 0ZJ     -0.381000
     20 CB1         1.3660   -0.6610   -2.7040 c3        1 0ZJ     -0.162000
     21 CG1         0.0550   -1.3280   -3.3230 c3        1 0ZJ     -0.165000
     22 CD         -0.2420   -2.3280   -2.5730 c3        1 0ZJ     -0.033000
     23 N2          0.9620    1.8330   -1.2040 n         1 0ZJ     -0.357000
     24 CA2         0.7000    2.9560   -0.3850 c3        1 0ZJ      0.036000
     25 C4         -0.5160    3.6820   -0.8940 c3        1 0ZJ      0.011000
     26 CB2         1.9370    3.9250   -0.4040 c3        1 0ZJ     -0.176000
     27 CG2         2.1000    4.6040    1.0150 c3        1 0ZJ     -0.186000
     28 CD3         2.9180    5.8900    0.8710 c3        1 0ZJ     -0.040000
     29 NE          2.6000    6.7890    1.9610 n3        1 0ZJ     -0.312000
     30 CZ1         3.0890    8.1240    1.9710 c2        1 0ZJ      0.382000
     31 NH1         4.2670    8.3970    2.5250 n2        1 0ZJ     -0.378000
     32 NH2         2.3240    9.1610    1.3940 n3        1 0ZJ     -0.377000
     33 O3         -0.1270    4.7080   -1.7380 oh        1 0ZJ     -0.331000
     34 CM         -1.3080    4.2770    0.3170 c3        1 0ZJ     -0.166000
     35 CL         -2.4880    5.4420   -0.2700 cl        1 0ZJ     -0.094000
     36 H21        -4.1840   -4.3440    2.5860 h4        1 0ZJ      0.149000
     37 H22        -3.6500   -2.8970    2.8770 h4        1 0ZJ      0.149000
     38 HS2        -6.2690   -2.4990    2.6230 hs        1 0ZJ      0.124000
     39 H          -1.4010   -3.9990    2.0210 hn        1 0ZJ      0.239000
     40 HA         -1.3620   -3.9540   -0.7020 h1        1 0ZJ      0.139000
     41 HB2         0.6820   -5.1580   -0.5900 hc        1 0ZJ      0.115500
     42 HB3         0.5430   -5.1580    1.0030 hc        1 0ZJ      0.115500
     43 HD1        -1.5230   -6.1690   -1.7950 ha        1 0ZJ      0.133000
     44 HD2        -0.2960   -7.1490    2.0040 ha        1 0ZJ      0.128000
     45 HE1        -2.7420   -8.2090   -1.9910 ha        1 0ZJ      0.142000
     46 HE2        -1.5090   -9.2340    1.8790 ha        1 0ZJ      0.139500
     47 HZ         -2.7390   -9.7550   -0.1460 ha        1 0ZJ      0.139500
     48 HA1         2.0930   -0.6910   -0.9290 h1        1 0ZJ      0.113000
     49 HB21        1.4450    0.2960   -3.0150 hc        1 0ZJ      0.113500
     50 HB31        2.1960   -1.1930   -2.9890 hc        1 0ZJ      0.113500
     51 HG2         0.2410   -1.6490   -4.2900 hc        1 0ZJ      0.104000
     52 HG3        -0.6550   -0.7030   -3.3210 hc        1 0ZJ      0.104000
     53 HD21        0.1960   -3.1440   -2.9110 h1        1 0ZJ      0.103000
     54 HD3        -1.2490   -2.4590   -2.5360 h1        1 0ZJ      0.103000
     55 H1          1.4670    1.9380   -2.0170 hn        1 0ZJ      0.253000
     56 HA2         0.5240    2.6300    0.6120 h1        1 0ZJ      0.125000
     57 H35        -1.0900    3.0550   -1.3870 h1        1 0ZJ      0.110000
     58 HB22        1.8010    4.6090   -1.0730 hc        1 0ZJ      0.100000
     59 HB32        2.7260    3.4310   -0.6110 hc        1 0ZJ      0.100000
     60 HG21        1.2500    4.8090    1.3650 hc        1 0ZJ      0.125000
     61 HG31        2.5520    4.0020    1.6070 hc        1 0ZJ      0.125000
     62 HD22        2.7110    6.2990    0.0600 h1        1 0ZJ      0.098500
     63 HD31        3.8550    5.6790    0.8920 h1        1 0ZJ      0.098500
     64 HE          2.1610    6.4650    2.6990 hn        1 0ZJ      0.296000
     65 HH1         4.7760    7.7150    2.9070 DU        1 0ZJ      0.289000
     66 HH21        1.4570    9.0200    1.1920 hn        1 0ZJ      0.272000
     67 HH22        2.6760    9.9960    1.3050 hn        1 0ZJ      0.272000
     68 H36        -0.7570    4.8440   -2.3450 ho        1 0ZJ      0.221000
     69 H34         4.6060    9.2980    2.5370 hn        1 0ZJ      0.267000
     70 HM1        -1.7770    3.5440    0.7990 h1        1 0ZJ      0.115000
     71 HM2        -0.6990    4.7130    0.9140 h1        1 0ZJ      0.115000
@<TRIPOS>BOND
     1    1    2 1   
     2    1    5 1   
     3    3    4 1   
     4    3   36 1   
     5    3   37 1   
     6    4   38 1   
     7    5    6 1   
     8    5   39 1   
     9    6    7 1   
    10    6    9 1   
    11    6   40 1   
    12    7    8 1   
    13    7   16 1   
    14    9   10 1   
    15    9   41 1   
    16    9   42 1   
    17   10   11 1   
    18   10   12 1   
    19   11   13 1   
    20   11   43 1   
    21   12   44 1   
    22   13   45 1   
    23   14   15 1   
    24   14   46 1   
    25   15   47 1   
    26   16   17 1   
    27   16   22 1   
    28   17   18 1   
    29   17   20 1   
    30   17   48 1   
    31   18   19 1   
    32   18   23 1   
    33   20   21 1   
    34   20   49 1   
    35   20   50 1   
    36   21   22 1   
    37   21   51 1   
    38   21   52 1   
    39   22   53 1   
    40   22   54 1   
    41   23   24 1   
    42   23   55 1   
    43   24   25 1   
    44   24   26 1   
    45   24   56 1   
    46   25   33 1   
    47   25   34 1   
    48   25   57 1   
    49   26   27 1   
    50   26   58 1   
    51   26   59 1   
    52   27   28 1   
    53   27   60 1   
    54   27   61 1   
    55   28   29 1   
    56   28   62 1   
    57   28   63 1   
    58   29   30 1   
    59   29   64 1   
    60   30   31 1   
    61   30   32 1   
    62   31   69 1   
    63   32   66 1   
    64   32   67 1   
    65   33   68 1   
    66   34   35 1   
    67   34   70 1   
    68   34   71 1   
@<TRIPOS>SUBSTRUCTURE
     1 0ZJ         1 TEMP              0 ****  ****    0 ROOT
