@<TRIPOS>MOLECULE
0ZJ
   71    72     1     0     0
SMALL
bcc


@<TRIPOS>ATOM
      1 C1          1.4400    1.5970    1.4120 c         1 0ZJ      0.695100
      2 O2          0.7010    2.3530    0.7330 o         1 0ZJ     -0.700100
      3 C2          1.5770    1.8350    2.9030 c3        1 0ZJ     -0.100300
      4 S2          1.9970    0.4280    3.8690 sh        1 0ZJ     -0.322900
      5 N           2.1660    0.5690    0.8670 n         1 0ZJ     -0.541900
      6 CA          2.1460    0.1460   -0.5080 c3        1 0ZJ      0.062700
      7 C           0.8290   -0.6210   -0.8180 c         1 0ZJ      0.658100
      8 O          -0.1960    0.0090   -1.1630 o         1 0ZJ     -0.656100
      9 CB          2.2820    1.2560   -1.5640 c3        1 0ZJ     -0.034100
     10 CG          3.5820    1.9700   -1.4660 ca        1 0ZJ     -0.102300
     11 CD1         4.7070    1.4840   -2.1420 ca        1 0ZJ     -0.128500
     12 CD2         3.6860    3.1470   -0.7170 ca        1 0ZJ     -0.128500
     13 CE1         5.9200    2.1670   -2.0650 ca        1 0ZJ     -0.122000
     14 CE2         4.8990    3.8290   -0.6410 ca        1 0ZJ     -0.122000
     15 CZ          6.0180    3.3400   -1.3150 ca        1 0ZJ     -0.115000
     16 N1          0.8210   -1.9900   -0.7250 n         1 0ZJ     -0.448800
     17 CA1        -0.3840   -2.7880   -0.9090 c3        1 0ZJ      0.040700
     18 C3         -1.5330   -2.3770    0.0410 c         1 0ZJ      0.646100
     19 O1         -1.3160   -2.0120    1.2120 o         1 0ZJ     -0.602100
     20 CB1        -0.0040   -4.2600   -0.6320 c3        1 0ZJ     -0.081400
     21 CG1         1.4420   -4.2510   -0.1500 c3        1 0ZJ     -0.087400
     22 CD          1.9290   -2.7960   -0.2400 c3        1 0ZJ      0.091000
     23 N2         -2.8190   -2.4950   -0.4590 n         1 0ZJ     -0.549900
     24 CA2        -3.9410   -1.8650    0.2050 c3        1 0ZJ      0.059700
     25 C4         -5.2500   -2.6980    0.0480 c3        1 0ZJ      0.130100
     26 CB2        -4.2190   -0.4380   -0.3080 c3        1 0ZJ     -0.104400
     27 CG2        -3.1380    0.5190    0.1420 c3        1 0ZJ     -0.100400
     28 CD3        -3.1810    1.8170   -0.6680 c3        1 0ZJ      0.028300
     29 NE         -1.8930    2.4800   -0.6800 nh        1 0ZJ     -0.377100
     30 CZ1        -1.6940    3.7270   -1.2150 cz        1 0ZJ      0.512300
     31 NH1        -2.7480    4.4610   -1.7270 nh        1 0ZJ     -0.514700
     32 NH2        -0.4210    4.2600   -1.2460 nh        1 0ZJ     -0.514700
     33 O3         -6.3020   -2.0020    0.6890 oh        1 0ZJ     -0.581800
     34 CM         -5.0640   -4.1050    0.5980 c3        1 0ZJ     -0.009000
     35 CL         -6.4880   -5.0930    0.3730 cl        1 0ZJ     -0.154400
     36 H21         2.4180    2.5650    3.0580 h1        1 0ZJ      0.116200
     37 H22         0.6360    2.3220    3.2610 h1        1 0ZJ      0.116200
     38 HS2         0.8150   -0.1660    3.9400 hs        1 0ZJ      0.219800
     39 H           2.6920   -0.0020    1.5000 hn        1 0ZJ      0.348500
     40 HA          3.0340   -0.5460   -0.6430 h1        1 0ZJ      0.084700
     41 HB2         2.1860    0.7670   -2.5710 hc        1 0ZJ      0.067700
     42 HB3         1.4260    1.9740   -1.4570 hc        1 0ZJ      0.067700
     43 HD1         4.6340    0.5640   -2.7410 ha        1 0ZJ      0.127500
     44 HD2         2.8020    3.5270   -0.1800 ha        1 0ZJ      0.127500
     45 HE1         6.8020    1.7810   -2.6000 ha        1 0ZJ      0.141000
     46 HE2         4.9750    4.7530   -0.0490 ha        1 0ZJ      0.141000
     47 HZ          6.9760    3.8780   -1.2570 ha        1 0ZJ      0.145000
     48 HA1        -0.7150   -2.6550   -1.9810 h1        1 0ZJ      0.077700
     49 HB21       -0.6800   -4.7050    0.1400 hc        1 0ZJ      0.071200
     50 HB31       -0.1090   -4.8570   -1.5720 hc        1 0ZJ      0.071200
     51 HG2         1.5120   -4.6140    0.9060 hc        1 0ZJ      0.070200
     52 HG3         2.0810   -4.9130   -0.7850 hc        1 0ZJ      0.070200
     53 HD21        2.7910   -2.7150   -0.9600 h1        1 0ZJ      0.052200
     54 HD3         2.2690   -2.4280    0.7670 h1        1 0ZJ      0.052200
     55 H1         -2.9290   -2.6510   -1.4350 hn        1 0ZJ      0.307500
     56 HA2        -3.6980   -1.8040    1.3090 h1        1 0ZJ      0.090700
     57 H35        -5.5590   -2.7280   -1.0360 h1        1 0ZJ      0.090700
     58 HB22       -4.3000   -0.4500   -1.4270 hc        1 0ZJ      0.065700
     59 HB32       -5.2150   -0.1090    0.0950 hc        1 0ZJ      0.065700
     60 HG21       -3.2690    0.7550    1.2310 hc        1 0ZJ      0.076700
     61 HG31       -2.1280    0.0310    0.0340 hc        1 0ZJ      0.076700
     62 HD22       -3.4880    1.5930   -1.7310 h1        1 0ZJ      0.056200
     63 HD31       -3.9530    2.5020   -0.2110 h1        1 0ZJ      0.056200
     64 HE         -1.0870    1.9290   -0.4080 hn        1 0ZJ      0.365700
     65 HH1        -3.6560    4.0650   -1.7920 hn        1 0ZJ      0.321950
     66 HH21        0.3310    3.7830   -0.7890 hn        1 0ZJ      0.321950
     67 HH22       -0.2790    5.2020   -1.5270 hn        1 0ZJ      0.321950
     68 H36        -6.2490   -2.1850    1.6360 ho        1 0ZJ      0.410000
     69 H34        -2.6020    5.3740   -2.0890 hn        1 0ZJ      0.321950
     70 HM1        -4.2320   -4.6310    0.0730 h1        1 0ZJ      0.077200
     71 HM2        -4.8550   -4.0750    1.6950 h1        1 0ZJ      0.077200
@<TRIPOS>BOND
     1    1    2 2   
     2    1    3 1   
     3    1    5 1   
     4    3    4 1   
     5    3   36 1   
     6    3   37 1   
     7    4   38 1   
     8    5    6 1   
     9    5   39 1   
    10    6    7 1   
    11    6    9 1   
    12    6   40 1   
    13    7    8 2   
    14    7   16 1   
    15    9   10 1   
    16    9   41 1   
    17    9   42 1   
    18   10   11 ar  
    19   10   12 ar  
    20   11   13 ar  
    21   11   43 1   
    22   12   14 ar  
    23   12   44 1   
    24   13   15 ar  
    25   13   45 1   
    26   14   15 ar  
    27   14   46 1   
    28   15   47 1   
    29   16   17 1   
    30   16   22 1   
    31   17   18 1   
    32   17   20 1   
    33   17   48 1   
    34   18   19 2   
    35   18   23 1   
    36   20   21 1   
    37   20   49 1   
    38   20   50 1   
    39   21   22 1   
    40   21   51 1   
    41   21   52 1   
    42   22   53 1   
    43   22   54 1   
    44   23   24 1   
    45   23   55 1   
    46   24   25 1   
    47   24   26 1   
    48   24   56 1   
    49   25   33 1   
    50   25   34 1   
    51   25   57 1   
    52   26   27 1   
    53   26   58 1   
    54   26   59 1   
    55   27   28 1   
    56   27   60 1   
    57   27   61 1   
    58   28   29 1   
    59   28   62 1   
    60   28   63 1   
    61   29   30 2   
    62   29   64 1   
    63   30   31 1   
    64   30   32 1   
    65   31   65 1   
    66   31   69 1   
    67   32   66 1   
    68   32   67 1   
    69   33   68 1   
    70   34   35 1   
    71   34   70 1   
    72   34   71 1   
@<TRIPOS>SUBSTRUCTURE
     1 0ZJ         1 TEMP              0 ****  ****    0 ROOT
