@<TRIPOS>MOLECULE
0ZL
   93    93     1     0     0
SMALL
bcc


@<TRIPOS>ATOM
      1 C3         -8.0130    1.5250   -2.9030 c3        1 0ZL     -0.103100
      2 C4         -7.4530    1.0620   -1.5800 c3        1 0ZL      0.150400
      3 O2         -6.1840    0.4490   -1.8850 os        1 0ZL     -0.438900
      4 C1         -5.5130   -0.0680   -0.7990 c         1 0ZL      0.729100
      5 O1         -5.9870    0.0920    0.3390 o         1 0ZL     -0.589000
      6 N          -4.3810   -0.7860   -1.1570 n         1 0ZL     -0.510900
      7 CA         -3.3980   -1.0890   -0.1400 c3        1 0ZL      0.040700
      8 C          -2.2650   -0.0280   -0.1430 c         1 0ZL      0.628100
      9 O          -1.7210    0.3180   -1.2140 o         1 0ZL     -0.633100
     10 CB         -2.7460   -2.4650   -0.3710 c3        1 0ZL     -0.085400
     11 CG         -2.1360   -3.0280    0.9050 c3        1 0ZL     -0.069700
     12 CD1        -3.1990   -3.5770    1.8340 c3        1 0ZL     -0.095100
     13 CD2        -1.1420   -4.1190    0.5570 c3        1 0ZL     -0.095100
     14 N1         -1.8950    0.5230    1.0590 n         1 0ZL     -0.552900
     15 CA1        -0.8410    1.5050    1.1610 c3        1 0ZL      0.035700
     16 C2          0.5450    0.8000    1.1330 c         1 0ZL      0.630100
     17 O3          1.1290    0.4880    2.1880 o         1 0ZL     -0.596100
     18 CB1        -0.9490    2.3560    2.4340 c3        1 0ZL     -0.083400
     19 CG1        -0.0600    3.5890    2.3540 c3        1 0ZL     -0.066700
     20 CD11       -0.6770    4.6670    1.4870 c3        1 0ZL     -0.092100
     21 CD21        0.1950    4.1260    3.7490 c3        1 0ZL     -0.092100
     22 C11         2.2730   -0.2290   -0.2960 c3        1 0ZL      0.058700
     23 N2          1.0810    0.5740   -0.1190 n         1 0ZL     -0.553900
     24 C21         3.2530    0.3990   -1.3260 c3        1 0ZL      0.103100
     25 O21         2.6380    0.6360   -2.5770 oh        1 0ZL     -0.589800
     26 C31         3.9170    1.6720   -0.7680 c3        1 0ZL      0.106100
     27 O31         4.6090    1.3760    0.4330 oh        1 0ZL     -0.582800
     28 C41         4.8440    2.2870   -1.8130 c3        1 0ZL     -0.110400
     29 C5          5.3940    3.6340   -1.3690 c3        1 0ZL     -0.070700
     30 C6          6.6630    3.9580   -2.1300 c3        1 0ZL     -0.089600
     31 C7          4.3750    4.7370   -1.5620 c3        1 0ZL     -0.089600
     32 C7'         1.9650   -1.6730   -0.7380 c3        1 0ZL     -0.100400
     33 C1'         2.9640   -2.6640   -0.1620 c3        1 0ZL     -0.060700
     34 C2'         2.9660   -3.9440   -0.9890 c3        1 0ZL     -0.077900
     35 C6'         2.6400   -2.9860    1.2910 c3        1 0ZL     -0.077900
     36 C3'         3.9390   -4.9590   -0.4260 c3        1 0ZL     -0.075400
     37 C5'         3.6200   -3.9910    1.8580 c3        1 0ZL     -0.075400
     38 C4'         3.6480   -5.2600    1.0300 c3        1 0ZL     -0.077400
     39 H31        -7.3230    2.2570   -3.3870 hc        1 0ZL      0.050367
     40 H32        -8.1520    0.6610   -3.5950 hc        1 0ZL      0.050367
     41 H33        -9.0000    2.0150   -2.7250 hc        1 0ZL      0.050367
     42 H41        -7.2780    1.9150   -0.8730 h1        1 0ZL      0.054700
     43 H42        -8.1110    0.3010   -1.0850 h1        1 0ZL      0.054700
     44 H          -4.0310   -0.6490   -2.0820 hn        1 0ZL      0.332500
     45 HA         -3.9320   -1.0960    0.8590 h1        1 0ZL      0.101700
     46 HBC1       -3.5140   -3.1870   -0.7550 hc        1 0ZL      0.067200
     47 HBC2       -1.9530   -2.3640   -1.1590 hc        1 0ZL      0.067200
     48 HG         -1.5810   -2.2070    1.4400 hc        1 0ZL      0.046700
     49 HD11       -3.7600   -4.4080    1.3410 hc        1 0ZL      0.039367
     50 HD12       -2.7260   -3.9740    2.7640 hc        1 0ZL      0.039367
     51 HD13       -3.9290   -2.7830    2.1220 hc        1 0ZL      0.039367
     52 HD21       -0.3220   -3.7160   -0.0880 hc        1 0ZL      0.039367
     53 HD22       -0.6840   -4.5320    1.4890 hc        1 0ZL      0.039367
     54 HD23       -1.6480   -4.9500    0.0110 hc        1 0ZL      0.039367
     55 H1         -2.2870    0.1810    1.9050 hn        1 0ZL      0.326500
     56 HA1        -0.9230    2.1890    0.2610 h1        1 0ZL      0.087700
     57 HB2        -2.0130    2.6750    2.5910 hc        1 0ZL      0.063200
     58 HB3        -0.6380    1.7320    3.3150 hc        1 0ZL      0.063200
     59 HG1         0.9290    3.2840    1.9080 hc        1 0ZL      0.060700
     60 HD14       -0.0010    5.5540    1.4400 hc        1 0ZL      0.036033
     61 HD15       -0.8440    4.2970    0.4470 hc        1 0ZL      0.036033
     62 HD16       -1.6590    4.9950    1.9070 hc        1 0ZL      0.036033
     63 HD24        0.7220    3.3620    4.3700 hc        1 0ZL      0.036033
     64 HD25        0.8310    5.0420    3.6970 hc        1 0ZL      0.036033
     65 HD26       -0.7680    4.3910    4.2500 hc        1 0ZL      0.036033
     66 H11         2.8210   -0.2470    0.6970 h1        1 0ZL      0.107700
     67 HN2         0.4610    0.6150   -0.9010 hn        1 0ZL      0.325500
     68 H2          4.0480   -0.3690   -1.5530 h1        1 0ZL      0.075700
     69 HO2         2.0460    1.3910   -2.4770 ho        1 0ZL      0.404000
     70 H3          3.1310    2.4140   -0.4530 h1        1 0ZL      0.085700
     71 HO3         5.3570    0.8110    0.2040 ho        1 0ZL      0.395000
     72 H411        5.6940    1.5800   -2.0020 hc        1 0ZL      0.052700
     73 H421        4.2810    2.3990   -2.7760 hc        1 0ZL      0.052700
     74 H5          5.6420    3.5630   -0.2700 hc        1 0ZL      0.062700
     75 H61         6.4650    3.9830   -3.2290 hc        1 0ZL      0.033533
     76 H62         7.0570    4.9550   -1.8180 hc        1 0ZL      0.033533
     77 H63         7.4480    3.1890   -1.9300 hc        1 0ZL      0.033533
     78 H71         3.4430    4.5150   -0.9890 hc        1 0ZL      0.033533
     79 H72         4.7870    5.7100   -1.2020 hc        1 0ZL      0.033533
     80 H73         4.1100    4.8440   -2.6420 hc        1 0ZL      0.033533
     81 H7'1        0.9330   -1.9730   -0.4160 hc        1 0ZL      0.053200
     82 H7'2        1.9850   -1.7180   -1.8600 hc        1 0ZL      0.053200
     83 H1'         3.9960   -2.2150   -0.2070 hc        1 0ZL      0.044700
     84 H2'1        1.9310   -4.3770   -1.0000 hc        1 0ZL      0.044450
     85 H2'2        3.2450   -3.7070   -2.0490 hc        1 0ZL      0.044450
     86 H6'1        2.6620   -2.0460    1.9020 hc        1 0ZL      0.044450
     87 H6'2        1.5990   -3.4030    1.3540 hc        1 0ZL      0.044450
     88 H3'1        3.8790   -5.9050   -1.0240 hc        1 0ZL      0.038950
     89 H3'2        4.9860   -4.5660   -0.5230 hc        1 0ZL      0.038950
     90 H5'1        4.6470   -3.5390    1.8850 hc        1 0ZL      0.038950
     91 H5'2        3.3340   -4.2370    2.9130 hc        1 0ZL      0.038950
     92 H4'1        2.6580   -5.7810    1.1130 hc        1 0ZL      0.037700
     93 H4'2        4.4290   -5.9560    1.4330 hc        1 0ZL      0.037700
@<TRIPOS>BOND
     1    1    2 1   
     2    1   39 1   
     3    1   40 1   
     4    1   41 1   
     5    2    3 1   
     6    2   42 1   
     7    2   43 1   
     8    3    4 1   
     9    4    5 2   
    10    4    6 1   
    11    6    7 1   
    12    6   44 1   
    13    7    8 1   
    14    7   10 1   
    15    7   45 1   
    16    8    9 2   
    17    8   14 1   
    18   10   11 1   
    19   10   46 1   
    20   10   47 1   
    21   11   12 1   
    22   11   13 1   
    23   11   48 1   
    24   12   49 1   
    25   12   50 1   
    26   12   51 1   
    27   13   52 1   
    28   13   53 1   
    29   13   54 1   
    30   14   15 1   
    31   14   55 1   
    32   15   16 1   
    33   15   18 1   
    34   15   56 1   
    35   16   17 2   
    36   16   23 1   
    37   18   19 1   
    38   18   57 1   
    39   18   58 1   
    40   19   20 1   
    41   19   21 1   
    42   19   59 1   
    43   20   60 1   
    44   20   61 1   
    45   20   62 1   
    46   21   63 1   
    47   21   64 1   
    48   21   65 1   
    49   22   23 1   
    50   22   24 1   
    51   22   32 1   
    52   22   66 1   
    53   23   67 1   
    54   24   25 1   
    55   24   26 1   
    56   24   68 1   
    57   25   69 1   
    58   26   27 1   
    59   26   28 1   
    60   26   70 1   
    61   27   71 1   
    62   28   29 1   
    63   28   72 1   
    64   28   73 1   
    65   29   30 1   
    66   29   31 1   
    67   29   74 1   
    68   30   75 1   
    69   30   76 1   
    70   30   77 1   
    71   31   78 1   
    72   31   79 1   
    73   31   80 1   
    74   32   33 1   
    75   32   81 1   
    76   32   82 1   
    77   33   34 1   
    78   33   35 1   
    79   33   83 1   
    80   34   36 1   
    81   34   84 1   
    82   34   85 1   
    83   35   37 1   
    84   35   86 1   
    85   35   87 1   
    86   36   38 1   
    87   36   88 1   
    88   36   89 1   
    89   37   38 1   
    90   37   90 1   
    91   37   91 1   
    92   38   92 1   
    93   38   93 1   
@<TRIPOS>SUBSTRUCTURE
     1 0ZL         1 TEMP              0 ****  ****    0 ROOT
