@<TRIPOS>MOLECULE
0ZL
   93    93     1     0     0
SMALL
bcc


@<TRIPOS>ATOM
      1 C3         -6.2590    0.7470   -7.6880 c3        1 0ZL     -0.104100
      2 C4         -5.0410    1.2450   -6.9420 c3        1 0ZL      0.151400
      3 O2         -5.3620    1.4150   -5.5810 os        1 0ZL     -0.439900
      4 C1         -4.2400    1.5200   -4.7400 c         1 0ZL      0.746100
      5 O1         -3.1800    1.9090   -5.1880 o         1 0ZL     -0.610000
      6 N          -4.3530    1.1980   -3.3620 n         1 0ZL     -0.550900
      7 CA         -3.4400    1.7540   -2.4260 c3        1 0ZL      0.057700
      8 C          -3.0200    0.6890   -1.4390 c         1 0ZL      0.638100
      9 O          -3.8320    0.2270   -0.6620 o         1 0ZL     -0.629100
     10 CB         -4.1070    2.8920   -1.6870 c3        1 0ZL     -0.081400
     11 CG         -3.9540    4.1700   -2.4840 c3        1 0ZL     -0.070700
     12 CD1        -2.5120    4.3250   -2.9180 c3        1 0ZL     -0.093100
     13 CD2        -4.3520    5.3490   -1.6260 c3        1 0ZL     -0.093100
     14 N1         -1.6780    0.2330   -1.4170 n         1 0ZL     -0.557900
     15 CA1        -1.3020   -0.8230   -0.5440 c3        1 0ZL      0.040700
     16 C2          0.1530   -0.6680   -0.1650 c         1 0ZL      0.641100
     17 O3          1.0110   -0.6930   -1.0250 o         1 0ZL     -0.636100
     18 CB1        -1.5020   -2.1490   -1.2420 c3        1 0ZL     -0.080400
     19 CG1        -2.1630   -3.1220   -0.2930 c3        1 0ZL     -0.065700
     20 CD11       -3.6590   -3.1060   -0.5150 c3        1 0ZL     -0.092100
     21 CD21       -1.6300   -4.5150   -0.5470 c3        1 0ZL     -0.092100
     22 C11         1.8870   -0.4280    1.5560 c3        1 0ZL      0.057700
     23 N2          0.5180   -0.5250    1.1960 n         1 0ZL     -0.546900
     24 C21         2.0340   -0.6500    3.0450 c3        1 0ZL      0.088100
     25 O21         0.8130   -0.3620    3.6840 oh        1 0ZL     -0.595800
     26 C31         2.4110   -2.0890    3.3050 c3        1 0ZL      0.155100
     27 O31         3.5800   -2.4060    2.5850 oh        1 0ZL     -0.611800
     28 C41         2.6620   -2.2850    4.7830 c3        1 0ZL     -0.075400
     29 C5          2.9040   -3.7530    5.0630 c3        1 0ZL     -0.068700
     30 C6          4.2960   -3.9370    5.6270 c3        1 0ZL     -0.088600
     31 C7          1.8840   -4.2500    6.0650 c3        1 0ZL     -0.088600
     32 C7'         2.4070    0.9470    1.1980 c3        1 0ZL     -0.084400
     33 C1'         3.9290    0.9620    1.3170 c3        1 0ZL     -0.065700
     34 C2'         4.3480    2.2020    2.0840 c3        1 0ZL     -0.073400
     35 C6'         4.5310    0.9120   -0.0770 c3        1 0ZL     -0.073400
     36 C3'         5.8480    2.3970    2.0950 c3        1 0ZL     -0.076900
     37 C5'         6.0310    1.1070   -0.0660 c3        1 0ZL     -0.076900
     38 C4'         6.4490    2.3460    0.7020 c3        1 0ZL     -0.077400
     39 H31        -6.2100   -0.2270   -7.7810 hc        1 0ZL      0.051033
     40 H32        -6.2890    1.1590   -8.5770 hc        1 0ZL      0.051033
     41 H33        -7.0690    0.9870   -7.1900 hc        1 0ZL      0.051033
     42 H41        -4.3160    0.5920   -7.0270 h1        1 0ZL      0.056200
     43 H42        -4.7550    2.1030   -7.3190 h1        1 0ZL      0.056200
     44 H          -5.0280    0.6580   -3.0750 hn        1 0ZL      0.341500
     45 HA         -2.6530    2.0890   -2.8980 h1        1 0ZL      0.091700
     46 HBC1       -3.6860    3.0020   -0.8100 hc        1 0ZL      0.069700
     47 HBC2       -5.0570    2.6920   -1.5690 hc        1 0ZL      0.069700
     48 HG         -4.5290    4.1320   -3.2720 hc        1 0ZL      0.049700
     49 HD11       -2.3770    3.8650   -3.7740 hc        1 0ZL      0.037533
     50 HD12       -1.9220    3.9330   -2.2400 hc        1 0ZL      0.037533
     51 HD13       -2.3030    5.2780   -3.0220 hc        1 0ZL      0.037533
     52 HD21       -4.0950    5.1780   -0.6960 hc        1 0ZL      0.037533
     53 HD22       -5.3220    5.4780   -1.6790 hc        1 0ZL      0.037533
     54 HD23       -3.8980    6.1550   -1.9480 hc        1 0ZL      0.037533
     55 H1         -1.0560    0.6190   -1.9600 hn        1 0ZL      0.348500
     56 HA1        -1.8540   -0.7910    0.2620 h1        1 0ZL      0.088700
     57 HB2        -0.6350   -2.5050   -1.5220 hc        1 0ZL      0.063700
     58 HB3        -2.0710   -2.0220   -2.0270 hc        1 0ZL      0.063700
     59 HG1        -1.9680   -2.8620    0.6280 hc        1 0ZL      0.057700
     60 HD14       -4.0450   -2.3140   -0.0860 hc        1 0ZL      0.036200
     61 HD15       -4.0550   -3.9140   -0.1270 hc        1 0ZL      0.036200
     62 HD16       -3.8460   -3.0800   -1.4770 hc        1 0ZL      0.036200
     63 HD24       -2.0040   -5.1340    0.1150 hc        1 0ZL      0.036200
     64 HD25       -0.6520   -4.5100   -0.4730 hc        1 0ZL      0.036200
     65 HD26       -1.8880   -4.8050   -1.4470 hc        1 0ZL      0.036200
     66 H11         2.4010   -1.1060    1.0730 h1        1 0ZL      0.094700
     67 HN2        -0.1260   -0.5040    1.8410 hn        1 0ZL      0.335500
     68 H2          2.7310   -0.0610    3.3950 h1        1 0ZL      0.052700
     69 HO2         0.9550    0.2070    4.3530 ho        1 0ZL      0.400000
     70 H3          1.6830   -2.6740    3.0180 h1        1 0ZL      0.049700
     71 HO3         3.4060   -3.0650    2.0140 ho        1 0ZL      0.428000
     72 H411        3.4480   -1.7690    5.0520 hc        1 0ZL      0.056200
     73 H421        1.8820   -1.9810    5.2890 hc        1 0ZL      0.056200
     74 H5          2.8190   -4.2610    4.2340 hc        1 0ZL      0.061700
     75 H61         4.9580   -3.6330    4.9710 hc        1 0ZL      0.031533
     76 H62         4.3880   -3.4120    6.4490 hc        1 0ZL      0.031533
     77 H63         4.4460   -4.8850    5.8270 hc        1 0ZL      0.031533
     78 H71         2.0760   -5.1850    6.2910 hc        1 0ZL      0.031533
     79 H72         0.9860   -4.1860    5.6770 hc        1 0ZL      0.031533
     80 H73         1.9290   -3.7020    6.8770 hc        1 0ZL      0.031533
     81 H7'1        2.0250    1.6090    1.8080 hc        1 0ZL      0.045200
     82 H7'2        2.1490    1.1630    0.2790 hc        1 0ZL      0.045200
     83 H1'         4.2160    0.1720    1.8130 hc        1 0ZL      0.057700
     84 H2'1        4.0330    2.1240    3.0070 hc        1 0ZL      0.040700
     85 H2'2        3.9300    2.9850    1.6720 hc        1 0ZL      0.040700
     86 H6'1        4.1250    1.6160   -0.6220 hc        1 0ZL      0.040700
     87 H6'2        4.3280    0.0440   -0.4780 hc        1 0ZL      0.040700
     88 H3'1        6.2540    1.6940    2.6400 hc        1 0ZL      0.041200
     89 H3'2        6.0510    3.2650    2.4960 hc        1 0ZL      0.041200
     90 H5'1        6.3460    1.1850   -0.9880 hc        1 0ZL      0.041200
     91 H5'2        6.4480    0.3240    0.3460 hc        1 0ZL      0.041200
     92 H4'1        7.4240    2.3570    0.7780 hc        1 0ZL      0.038700
     93 H4'2        6.1610    3.1380    0.2050 hc        1 0ZL      0.038700
@<TRIPOS>BOND
     1    1    2 1   
     2    1   39 1   
     3    1   40 1   
     4    1   41 1   
     5    2    3 1   
     6    2   42 1   
     7    2   43 1   
     8    3    4 1   
     9    4    5 2   
    10    4    6 1   
    11    6    7 1   
    12    6   44 1   
    13    7    8 1   
    14    7   10 1   
    15    7   45 1   
    16    8    9 2   
    17    8   14 1   
    18   10   11 1   
    19   10   46 1   
    20   10   47 1   
    21   11   12 1   
    22   11   13 1   
    23   11   48 1   
    24   12   49 1   
    25   12   50 1   
    26   12   51 1   
    27   13   52 1   
    28   13   53 1   
    29   13   54 1   
    30   14   15 1   
    31   14   55 1   
    32   15   16 1   
    33   15   18 1   
    34   15   56 1   
    35   16   17 2   
    36   16   23 1   
    37   18   19 1   
    38   18   57 1   
    39   18   58 1   
    40   19   20 1   
    41   19   21 1   
    42   19   59 1   
    43   20   60 1   
    44   20   61 1   
    45   20   62 1   
    46   21   63 1   
    47   21   64 1   
    48   21   65 1   
    49   22   23 1   
    50   22   24 1   
    51   22   32 1   
    52   22   66 1   
    53   23   67 1   
    54   24   25 1   
    55   24   26 1   
    56   24   68 1   
    57   25   69 1   
    58   26   27 1   
    59   26   28 1   
    60   26   70 1   
    61   27   71 1   
    62   28   29 1   
    63   28   72 1   
    64   28   73 1   
    65   29   30 1   
    66   29   31 1   
    67   29   74 1   
    68   30   75 1   
    69   30   76 1   
    70   30   77 1   
    71   31   78 1   
    72   31   79 1   
    73   31   80 1   
    74   32   33 1   
    75   32   81 1   
    76   32   82 1   
    77   33   34 1   
    78   33   35 1   
    79   33   83 1   
    80   34   36 1   
    81   34   84 1   
    82   34   85 1   
    83   35   37 1   
    84   35   86 1   
    85   35   87 1   
    86   36   38 1   
    87   36   88 1   
    88   36   89 1   
    89   37   38 1   
    90   37   90 1   
    91   37   91 1   
    92   38   92 1   
    93   38   93 1   
@<TRIPOS>SUBSTRUCTURE
     1 0ZL         1 TEMP              0 ****  ****    0 ROOT
