@<TRIPOS>MOLECULE
0ZN
   66    61     1     0     0
SMALL
bcc


@<TRIPOS>ATOM
      1 CA          0.5580    2.2220    2.0250 c3        1 0ZN     -0.093000
      2 CB1        -0.6760    2.0990    2.9260 c3        1 0ZN     -0.139000
      3 CG         -0.2970    1.3650    4.2250 c3        1 0ZN     -0.125000
      4 CD         -1.5690    0.6420    4.8080 c2        1 0ZN     -0.043000
      5 CE1        -1.7160   -0.7320    4.6600 c2        1 0ZN     -0.113000
      6 CE2        -2.4880    1.3640    5.5710 c1        1 0ZN     -0.147000
      7 CZ1        -2.7880   -1.3910    5.2760 c1        1 0ZN     -0.144000
      8 CZ2        -3.5490    0.7120    6.1810 c1        1 0ZN     -0.158500
      9 CH         -3.7010   -0.6720    6.0340 c1        1 0ZN     -0.158500
     10 CB2         1.7300    1.4830    2.6600 c2        1 0ZN      0.343000
     11 OG1         2.4380    2.0550    3.5250 o         1 0ZN     -0.584000
     12 OG2         1.9780    0.2800    2.3310 o         1 0ZN     -0.584000
     13 N           0.2740    1.6600    0.7530 n3        1 0ZN     -0.282000
     14 CA1         1.1730    2.2010   -0.2220 c3        1 0ZN     -0.036000
     15 C           1.2550    1.2670   -1.3960 c2        1 0ZN      0.267000
     16 O           1.7090    1.6540   -2.4440 o         1 0ZN     -0.424000
     17 CB          2.5550    2.3670    0.3980 c3        1 0ZN     -0.148000
     18 CG1         3.4870    3.1340   -0.6000 c3        1 0ZN     -0.106000
     19 CD1         3.7250    4.6160   -0.0710 c3        1 0ZN     -0.210500
     20 CD2         4.8190    2.4160   -0.7050 c3        1 0ZN     -0.210500
     21 N1          0.8530   -0.1200   -1.2460 n         1 0ZN     -0.341000
     22 CA2         0.6260   -0.9320   -2.4060 c3        1 0ZN     -0.046000
     23 C1          0.2250   -0.0790   -3.5270 c2        1 0ZN      0.333000
     24 O1         -0.6490    0.8140   -3.3580 o         1 0ZN     -0.577000
     25 CB3        -0.4870   -1.9430   -2.1100 c3        1 0ZN     -0.107000
     26 CG2        -1.0690   -2.4930   -3.4660 c2        1 0ZN     -0.121000
     27 CD11       -1.5660   -1.6920   -4.4760 c1        1 0ZN     -0.068000
     28 CD21       -1.4460   -3.7980   -3.7320 c1        1 0ZN     -0.064000
     29 NE1        -2.2470   -2.4970   -5.3630 n2        1 0ZN     -0.229000
     30 CE21       -2.1720   -3.8000   -4.9020 c1        1 0ZN     -0.017000
     31 CE3        -1.3090   -4.9820   -2.9870 c1        1 0ZN     -0.077000
     32 CZ21       -2.7770   -4.9870   -5.3510 c1        1 0ZN     -0.163000
     33 CZ3        -1.9090   -6.1600   -3.4320 c1        1 0ZN     -0.158500
     34 CH2        -2.6400   -6.1640   -4.6100 c1        1 0ZN     -0.158500
     35 OXT         0.7380   -0.2510   -4.6600 o         1 0ZN     -0.577000
     36 HA2         0.7860    3.1580    1.9190 h1        1 0ZN      0.044000
     37 HB11       -1.0150    3.0050    3.1470 hc        1 0ZN      0.082000
     38 HB12       -1.3780    1.5900    2.4540 hc        1 0ZN      0.082000
     39 HG1         0.4070    0.6920    4.0320 hc        1 0ZN      0.090500
     40 HG2         0.0380    2.0100    4.8780 hc        1 0ZN      0.090500
     41 HE1        -1.0720   -1.2380    4.1240 ha        1 0ZN      0.210000
     42 HE2        -2.3850    2.3280    5.6740 ha        1 0ZN      0.118000
     43 HZ1        -2.8940   -2.3610    5.1730 ha        1 0ZN      0.117000
     44 HZ2        -4.1980    1.2260    6.7200 ha        1 0ZN      0.104500
     45 HH         -4.5110   -1.1180    6.3820 ha        1 0ZN      0.104500
     46 H          -0.5960    1.8620    0.5140 hn        1 0ZN      0.142000
     47 HA          0.8460    3.0620   -0.5180 h1        1 0ZN      0.141000
     48 HB2         2.4780    2.8780    1.2310 hc        1 0ZN      0.097500
     49 HB3         2.9370    1.4820    0.5910 hc        1 0ZN      0.097500
     50 HG          3.0660    3.1660   -1.4760 hc        1 0ZN      0.082000
     51 HD11        4.2620    5.1250   -0.7390 hc        1 0ZN      0.069667
     52 HD12        2.8530    5.0630    0.0600 hc        1 0ZN      0.069667
     53 HD13        4.2090    4.5840    0.7820 hc        1 0ZN      0.069667
     54 HD21        5.1930    2.2890    0.1900 hc        1 0ZN      0.069667
     55 HD22        4.6880    1.5460   -1.1310 hc        1 0ZN      0.069667
     56 HD23        5.4390    2.9560   -1.2460 hc        1 0ZN      0.069667
     57 H1          0.7390   -0.4740   -0.4140 hn        1 0ZN      0.243000
     58 HA1         1.4620   -1.4170   -2.6420 h1        1 0ZN      0.100000
     59 HB21       -0.1230   -2.6860   -1.5860 hc        1 0ZN      0.090000
     60 HB31       -1.2030   -1.5030   -1.6000 hc        1 0ZN      0.090000
     61 HD1        -1.4220   -0.7360   -4.5690 DU        1 0ZN      0.234500
     62 HE11       -2.7180   -2.2090   -6.1050 DU        1 0ZN      0.234500
     63 HE3        -0.7520   -4.9910   -2.1810 ha        1 0ZN      0.138000
     64 HZ21       -3.3560   -4.9720   -6.1380 ha        1 0ZN      0.108000
     65 HZ3        -1.8120   -6.9870   -2.9130 ha        1 0ZN      0.104500
     66 HH2        -3.0580   -6.9870   -4.9220 ha        1 0ZN      0.104500
@<TRIPOS>BOND
     1    1    2 1   
     2    1   10 1   
     3    1   13 1   
     4    1   36 1   
     5    2    3 1   
     6    2   37 1   
     7    2   38 1   
     8    3    4 1   
     9    3   39 1   
    10    3   40 1   
    11    4    5 1   
    12    4    6 1   
    13    5    7 1   
    14    5   41 1   
    15    6   42 1   
    16    7   43 1   
    17    8    9 1   
    18    8   44 1   
    19    9   45 1   
    20   10   11 1   
    21   10   12 1   
    22   13   14 1   
    23   13   46 1   
    24   14   15 1   
    25   14   17 1   
    26   14   47 1   
    27   15   16 1   
    28   15   21 1   
    29   17   18 1   
    30   17   48 1   
    31   17   49 1   
    32   18   19 1   
    33   18   20 1   
    34   18   50 1   
    35   19   51 1   
    36   19   52 1   
    37   19   53 1   
    38   20   54 1   
    39   20   55 1   
    40   20   56 1   
    41   21   22 1   
    42   21   57 1   
    43   22   23 1   
    44   22   25 1   
    45   22   58 1   
    46   23   24 1   
    47   23   35 1   
    48   25   26 1   
    49   25   59 1   
    50   25   60 1   
    51   26   27 1   
    52   26   28 1   
    53   27   29 1   
    54   28   31 1   
    55   29   30 1   
    56   30   32 1   
    57   31   63 1   
    58   32   64 1   
    59   33   34 1   
    60   33   65 1   
    61   34   66 1   
@<TRIPOS>SUBSTRUCTURE
     1 0ZN         1 TEMP              0 ****  ****    0 ROOT
