@<TRIPOS>MOLECULE
0ZN
   66    68     1     0     0
SMALL
bcc


@<TRIPOS>ATOM
      1 CA         -1.8790    2.7330   -0.3880 c3        1 0ZN      0.063500
      2 CB1        -2.8800    1.6850    0.1170 c3        1 0ZN     -0.084400
      3 CG         -2.3620    0.2660    0.0060 c3        1 0ZN     -0.072100
      4 CD         -3.3510   -0.7310    0.5000 ca        1 0ZN     -0.034300
      5 CE1        -4.5370   -0.9680   -0.2090 ca        1 0ZN     -0.141000
      6 CE2        -3.1070   -1.4550    1.6750 ca        1 0ZN     -0.141000
      7 CZ1        -5.4540   -1.9130    0.2440 ca        1 0ZN     -0.138500
      8 CZ2        -4.0270   -2.4010    2.1250 ca        1 0ZN     -0.138500
      9 CH         -5.2010   -2.6340    1.4110 ca        1 0ZN     -0.161000
     10 CB2        -2.7010    4.0680   -0.5470 c         1 0ZN      0.928600
     11 OG1        -3.3790    4.4820    0.4320 o         1 0ZN     -0.846300
     12 OG2        -2.6750    4.6110   -1.6860 o         1 0ZN     -0.846300
     13 N          -0.7200    2.9410    0.4620 n3        1 0ZN     -0.813200
     14 CA1         0.5800    2.5790   -0.0610 c3        1 0ZN      0.134500
     15 C           1.0560    1.1470    0.3180 c         1 0ZN      0.606100
     16 O           0.6910    0.6270    1.4020 o         1 0ZN     -0.683100
     17 CB          1.6560    3.5480    0.4820 c3        1 0ZN     -0.073400
     18 CG1         2.9010    3.6600   -0.3840 c3        1 0ZN     -0.094700
     19 CD1         2.5870    4.2120   -1.7590 c3        1 0ZN     -0.078100
     20 CD2         3.9030    4.5630    0.3140 c3        1 0ZN     -0.078100
     21 N1          1.8330    0.4640   -0.5950 n         1 0ZN     -0.507900
     22 CA2         2.7120   -0.6240   -0.2040 c3        1 0ZN     -0.054300
     23 C1          4.2320   -0.2650   -0.3940 c         1 0ZN      0.902600
     24 O1          4.5380    0.7560   -1.0740 o         1 0ZN     -0.837800
     25 CB3         2.4730   -1.9130   -1.0050 c3        1 0ZN     -0.009200
     26 CG2         1.2330   -2.6310   -0.6860 cc        1 0ZN     -0.112400
     27 CD11        0.2790   -2.3160    0.2760 cd        1 0ZN     -0.103100
     28 CD21        0.7790   -3.8450   -1.3430 ca        1 0ZN     -0.084800
     29 NE1        -0.7380   -3.2890    0.3040 na        1 0ZN     -0.195400
     30 CE21       -0.4820   -4.2040   -0.7220 ca        1 0ZN     -0.056200
     31 CE3         1.2910   -4.6470   -2.3610 ca        1 0ZN     -0.083000
     32 CZ21       -1.1930   -5.3360   -1.1430 ca        1 0ZN     -0.153000
     33 CZ3         0.5740   -5.7670   -2.7650 ca        1 0ZN     -0.181000
     34 CH2        -0.6500   -6.1030   -2.1660 ca        1 0ZN     -0.139000
     35 OXT         5.0650   -1.0430    0.1450 o         1 0ZN     -0.837800
     36 HA2        -1.5470    2.4340   -1.4250 h1        1 0ZN      0.035700
     37 HB11       -3.1570    1.9190    1.1780 hc        1 0ZN      0.049700
     38 HB12       -3.8140    1.7900   -0.4950 hc        1 0ZN      0.049700
     39 HG1        -2.1270    0.0410   -1.0700 hc        1 0ZN      0.063700
     40 HG2        -1.3990    0.1720    0.5830 hc        1 0ZN      0.063700
     41 HE1        -4.7380   -0.3920   -1.1250 ha        1 0ZN      0.143500
     42 HE2        -2.1850   -1.2620    2.2460 ha        1 0ZN      0.143500
     43 HZ1        -6.3820   -2.0890   -0.3190 ha        1 0ZN      0.115000
     44 HZ2        -3.8250   -2.9610    3.0500 ha        1 0ZN      0.115000
     45 HH         -5.9250   -3.3790    1.7670 ha        1 0ZN      0.109000
     46 H          -0.8570    2.5690    1.3810 hn        1 0ZN      0.373800
     47 HA          0.5490    2.6760   -1.1860 h1        1 0ZN      0.071700
     48 HB2         1.2010    4.5710    0.5790 hc        1 0ZN      0.049700
     49 HB3         1.9540    3.2130    1.5100 hc        1 0ZN      0.049700
     50 HG          3.3890    2.6460   -0.5050 hc        1 0ZN      0.108700
     51 HD11        2.0610    3.4460   -2.3790 hc        1 0ZN      0.023200
     52 HD12        1.9360    5.1160   -1.6860 hc        1 0ZN      0.023200
     53 HD13        3.5310    4.4910   -2.2870 hc        1 0ZN      0.023200
     54 HD21        4.1470    4.1600    1.3260 hc        1 0ZN      0.023200
     55 HD22        4.8460    4.6220   -0.2800 hc        1 0ZN      0.023200
     56 HD23        3.4910    5.5950    0.4320 hc        1 0ZN      0.023200
     57 H1          2.2280    1.0200   -1.3300 hn        1 0ZN      0.310500
     58 HA1         2.5540   -0.8460    0.8900 h1        1 0ZN      0.070700
     59 HB21        2.4930   -1.6850   -2.1060 hc        1 0ZN      0.057700
     60 HB31        3.3510   -2.5860   -0.7860 hc        1 0ZN      0.057700
     61 HD1         0.2570   -1.4610    0.9660 h4        1 0ZN      0.212000
     62 HE11       -1.6410   -3.1150    0.6690 hn        1 0ZN      0.291700
     63 HE3         2.2500   -4.3860   -2.8310 ha        1 0ZN      0.133000
     64 HZ21       -2.1510   -5.6050   -0.6800 ha        1 0ZN      0.118000
     65 HZ3         0.9670   -6.4030   -3.5700 ha        1 0ZN      0.107000
     66 HH2        -1.1920   -6.9920   -2.5170 ha        1 0ZN      0.104000
@<TRIPOS>BOND
     1    1    2 1   
     2    1   10 1   
     3    1   13 1   
     4    1   36 1   
     5    2    3 1   
     6    2   37 1   
     7    2   38 1   
     8    3    4 1   
     9    3   39 1   
    10    3   40 1   
    11    4    5 ar  
    12    4    6 ar  
    13    5    7 ar  
    14    5   41 1   
    15    6    8 ar  
    16    6   42 1   
    17    7    9 ar  
    18    7   43 1   
    19    8    9 ar  
    20    8   44 1   
    21    9   45 1   
    22   10   11 1   
    23   10   12 1   
    24   13   14 1   
    25   13   46 1   
    26   14   15 1   
    27   14   17 1   
    28   14   47 1   
    29   15   16 2   
    30   15   21 1   
    31   17   18 1   
    32   17   48 1   
    33   17   49 1   
    34   18   19 1   
    35   18   20 1   
    36   18   50 1   
    37   19   51 1   
    38   19   52 1   
    39   19   53 1   
    40   20   54 1   
    41   20   55 1   
    42   20   56 1   
    43   21   22 1   
    44   21   57 1   
    45   22   23 1   
    46   22   25 1   
    47   22   58 1   
    48   23   24 1   
    49   23   35 1   
    50   25   26 1   
    51   25   59 1   
    52   25   60 1   
    53   26   27 2   
    54   26   28 1   
    55   27   29 1   
    56   27   61 1   
    57   28   30 ar  
    58   28   31 ar  
    59   29   30 1   
    60   29   62 1   
    61   30   32 ar  
    62   31   33 ar  
    63   31   63 1   
    64   32   34 ar  
    65   32   64 1   
    66   33   34 ar  
    67   33   65 1   
    68   34   66 1   
@<TRIPOS>SUBSTRUCTURE
     1 0ZN         1 TEMP              0 ****  ****    0 ROOT
