@<TRIPOS>MOLECULE
0ZZ
   68    63     1     0     0
SMALL
bcc


@<TRIPOS>ATOM
      1 C2          4.6260   -0.7040    3.3970 c1        1 0ZZ      0.089000
      2 C3          4.1120   -0.9010    4.6670 c1        1 0ZZ     -0.143000
      3 C4          3.1060   -0.0680    5.1470 c1        1 0ZZ     -0.143000
      4 C5          2.6170    0.9620    4.3500 c1        1 0ZZ     -0.198000
      5 C6          3.1320    1.1580    3.0790 c1        1 0ZZ     -0.049000
      6 O1          5.6850   -1.5200    2.9280 os        1 0ZZ     -0.202000
      7 C7          6.5130   -2.0360    3.9600 c3        1 0ZZ     -0.074000
      8 BR1         1.1820    2.0480    4.9720 br        1 0ZZ      0.028000
      9 C1          4.1370    0.3260    2.6000 c1        1 0ZZ     -0.061000
     10 C           3.2130    1.0380    0.3630 c1        1 0ZZ      0.310000
     11 O           2.1770    1.2200    0.9740 o         1 0ZZ     -0.409000
     12 CH3         4.4830    0.6020    1.1140 c2        1 0ZZ     -0.162000
     13 N           3.2590    1.2710   -1.0680 n3        1 0ZZ     -0.354000
     14 CA          2.1120    1.7580   -1.7430 c3        1 0ZZ     -0.001000
     15 C8          1.0510    0.6720   -1.7870 c2        1 0ZZ      0.270000
     16 O2          0.8810    0.0330   -2.8050 o         1 0ZZ     -0.385000
     17 CB          2.4900    2.1590   -3.1670 c3        1 0ZZ     -0.101000
     18 CG1         2.6360    3.6730   -3.2450 c3        1 0ZZ     -0.206000
     19 CG2         3.8100    1.5020   -3.5470 c3        1 0ZZ     -0.206000
     20 N1          0.1650    0.4830   -0.6600 n         1 0ZZ     -0.344000
     21 CA1        -0.5940   -0.7330   -0.5390 c3        1 0ZZ     -0.008000
     22 C9         -1.9750   -0.4140   -0.0090 c3        1 0ZZ      0.025000
     23 O3         -1.9310   -0.3340    1.3810 oh        1 0ZZ     -0.355000
     24 CB1         0.1030   -1.6680    0.4080 c3        1 0ZZ     -0.247000
     25 CG          1.2740   -2.3230   -0.2960 c2        1 0ZZ      0.332000
     26 OD1         1.1690   -2.6680   -1.5090 o         1 0ZZ     -0.588500
     27 OD2         2.3150   -2.6030    0.3480 o         1 0ZZ     -0.588500
     28 C11        -2.9530   -1.5200   -0.4260 c3        1 0ZZ     -0.268000
     29 S2         -4.4050   -0.7840   -1.1840 ss        1 0ZZ      0.043000
     30 C31        -5.8660   -1.2210   -0.2260 c3        1 0ZZ     -0.239000
     31 C41        -7.1330   -0.8660   -1.0240 c2        1 0ZZ     -0.049000
     32 C51        -7.4350    0.4570   -1.2890 c2        1 0ZZ     -0.110000
     33 C61        -8.6030    0.7810   -1.9740 c1        1 0ZZ     -0.134000
     34 C71        -9.4600   -0.2190   -2.3910 c1        1 0ZZ     -0.143000
     35 C81        -9.1590   -1.5440   -2.1260 c1        1 0ZZ     -0.143000
     36 C91        -7.9920   -1.8680   -1.4410 c1        1 0ZZ     -0.121000
     37 H3          4.4570   -1.6240    5.2260 ha        1 0ZZ      0.127500
     38 H4          2.7070   -0.2410    6.0140 ha        1 0ZZ      0.127500
     39 H6          2.7890    1.8820    2.5190 ha        1 0ZZ      0.174000
     40 H71         6.0350   -2.7580    4.4350 h1        1 0ZZ      0.079667
     41 H72         6.7350   -1.3120    4.5970 h1        1 0ZZ      0.079667
     42 H73         7.3340   -2.3900    3.5720 h1        1 0ZZ      0.079667
     43 H1          4.8370   -0.2080    0.7090 ha        1 0ZZ      0.158500
     44 H2          5.1530    1.3130    1.0620 ha        1 0ZZ      0.158500
     45 H           4.0360    1.1310   -1.5290 hn        1 0ZZ      0.268000
     46 HA          1.7600    2.5370   -1.2670 h1        1 0ZZ      0.136000
     47 HB          1.7880    1.8660   -3.7870 hc        1 0ZZ      0.110000
     48 HG11        2.3950    4.0650   -2.3900 hc        1 0ZZ      0.074000
     49 HG12        3.5710    3.9020   -3.4600 hc        1 0ZZ      0.074000
     50 HG13        2.0390    4.0260   -3.9500 hc        1 0ZZ      0.074000
     51 HG21        3.6900    0.5280   -3.5880 hc        1 0ZZ      0.074000
     52 HG22        4.1040    1.8380   -4.4360 hc        1 0ZZ      0.074000
     53 HG23        4.4830    1.7180   -2.8790 hc        1 0ZZ      0.074000
     54 H5          0.0520    1.1550   -0.0480 hn        1 0ZZ      0.244000
     55 HA1        -0.6720   -1.1560   -1.4150 h1        1 0ZZ      0.113000
     56 HB2         0.4270   -1.1680    1.1790 hc        1 0ZZ      0.086000
     57 HB3        -0.5280   -2.3610    0.7090 hc        1 0ZZ      0.086000
     58 H11        -2.5170   -2.1170   -1.0680 h1        1 0ZZ      0.124500
     59 H12        -3.2240   -2.0330    0.3660 h1        1 0ZZ      0.124500
     60 H31        -5.8620   -0.7260    0.6160 h1        1 0ZZ      0.121000
     61 H32        -5.8570   -2.1820   -0.0390 h1        1 0ZZ      0.121000
     62 H51        -6.8510    1.1630   -0.9620 ha        1 0ZZ      0.143000
     63 H61        -8.8150    1.7110   -2.1600 ha        1 0ZZ      0.126000
     64 H7        -10.2570    0.0050   -2.9000 ha        1 0ZZ      0.127500
     65 H8         -9.7650   -2.2520   -2.4210 ha        1 0ZZ      0.127500
     66 H9         -7.7800   -2.8000   -1.2540 ha        1 0ZZ      0.133000
     67 H80        -2.2750    0.4400   -0.3740 h1        1 0ZZ      0.100000
     68 H81        -2.7330   -0.1000    1.6910 ho        1 0ZZ      0.217000
@<TRIPOS>BOND
     1    1    6 1   
     2    1    9 1   
     3    2    3 1   
     4    2   37 1   
     5    3   38 1   
     6    4    5 1   
     7    4    8 1   
     8    5   39 1   
     9    6    7 1   
    10    7   40 1   
    11    7   41 1   
    12    7   42 1   
    13    9   12 1   
    14   10   11 1   
    15   10   13 1   
    16   12   43 1   
    17   12   44 1   
    18   13   14 1   
    19   13   45 1   
    20   14   15 1   
    21   14   17 1   
    22   14   46 1   
    23   15   16 1   
    24   15   20 1   
    25   17   18 1   
    26   17   19 1   
    27   17   47 1   
    28   18   48 1   
    29   18   49 1   
    30   18   50 1   
    31   19   51 1   
    32   19   52 1   
    33   19   53 1   
    34   20   21 1   
    35   20   54 1   
    36   21   22 1   
    37   21   24 1   
    38   21   55 1   
    39   22   23 1   
    40   22   28 1   
    41   22   67 1   
    42   23   68 1   
    43   24   25 1   
    44   24   56 1   
    45   24   57 1   
    46   25   26 1   
    47   25   27 1   
    48   28   29 1   
    49   28   58 1   
    50   28   59 1   
    51   29   30 1   
    52   30   31 1   
    53   30   60 1   
    54   30   61 1   
    55   31   32 1   
    56   31   36 1   
    57   32   33 1   
    58   32   62 1   
    59   33   63 1   
    60   34   35 1   
    61   34   64 1   
    62   35   65 1   
    63   36   66 1   
@<TRIPOS>SUBSTRUCTURE
     1 0ZZ         1 TEMP              0 ****  ****    0 ROOT
