@<TRIPOS>MOLECULE
0ZZ
   68    69     1     0     0
SMALL
bcc


@<TRIPOS>ATOM
      1 C2         -3.0000    0.8920    0.3360 ca        1 0ZZ      0.153100
      2 C3         -2.9230    2.2240    0.7690 ca        1 0ZZ     -0.164000
      3 C4         -2.9720    2.5070    2.1290 ca        1 0ZZ     -0.064000
      4 C5         -3.0930    1.4720    3.0610 ca        1 0ZZ     -0.063900
      5 C6         -3.1030    0.1440    2.6330 ca        1 0ZZ     -0.072000
      6 O1         -3.0400    0.5150   -0.9880 os        1 0ZZ     -0.359900
      7 C7         -3.0550    1.5710   -1.9550 c3        1 0ZZ      0.084700
      8 BR1        -3.2170    1.8630    4.8910 br        1 0ZZ     -0.121100
      9 C1         -3.0440   -0.1660    1.2730 ca        1 0ZZ     -0.137300
     10 C          -1.5790   -2.0780    0.6150 c         1 0ZZ      0.670100
     11 O          -1.1430   -3.0560    1.2580 o         1 0ZZ     -0.633100
     12 CH3        -3.0060   -1.5820    0.8290 c3        1 0ZZ     -0.091100
     13 N          -0.8170   -1.4110   -0.3190 n         1 0ZZ     -0.560900
     14 CA          0.5220   -1.8000   -0.6620 c3        1 0ZZ      0.042700
     15 C8          1.5840   -0.6730   -0.5670 c         1 0ZZ      0.650100
     16 O2          2.7840   -1.0250   -0.4530 o         1 0ZZ     -0.673100
     17 CB          0.6580   -2.4150   -2.0790 c3        1 0ZZ     -0.081700
     18 CG1         0.1000   -3.8210   -2.0940 c3        1 0ZZ     -0.094600
     19 CG2         0.0080   -1.5710   -3.1520 c3        1 0ZZ     -0.094600
     20 N1          1.2250    0.6400   -0.6730 n         1 0ZZ     -0.536900
     21 CA1         2.2040    1.7050   -0.7300 c3        1 0ZZ      0.088700
     22 C9          2.5960    2.2120    0.6890 c3        1 0ZZ      0.137100
     23 O3          1.6150    3.0220    1.3060 oh        1 0ZZ     -0.631800
     24 CB1         1.7660    2.8640   -1.6410 c3        1 0ZZ     -0.209400
     25 CG          0.2540    3.0030   -1.8190 c         1 0ZZ      0.900600
     26 OD1        -0.4850    3.0070   -0.7800 o         1 0ZZ     -0.849800
     27 OD2        -0.2290    3.0870   -2.9810 o         1 0ZZ     -0.849800
     28 C11         3.9050    2.9980    0.6350 c3        1 0ZZ     -0.028300
     29 S2          5.2850    2.1790    1.3760 ss        1 0ZZ     -0.327200
     30 C31         5.5780    0.7870    0.3080 c3        1 0ZZ      0.023000
     31 C41         6.3200   -0.2480    1.0600 ca        1 0ZZ     -0.057300
     32 C51         5.6980   -1.4700    1.3570 ca        1 0ZZ     -0.115000
     33 C61         6.3950   -2.4560    2.0530 ca        1 0ZZ     -0.139500
     34 C71         7.7120   -2.2350    2.4550 ca        1 0ZZ     -0.139000
     35 C81         8.3350   -1.0230    2.1590 ca        1 0ZZ     -0.139500
     36 C91         7.6440   -0.0330    1.4620 ca        1 0ZZ     -0.115000
     37 H3         -2.7370    3.0350    0.0410 ha        1 0ZZ      0.192000
     38 H4         -2.9000    3.5550    2.4620 ha        1 0ZZ      0.145000
     39 H6         -3.1460   -0.6780    3.3660 ha        1 0ZZ      0.142000
     40 H71        -3.1060    1.0180   -2.9270 h1        1 0ZZ      0.069700
     41 H72        -3.9650    2.2020   -1.8120 h1        1 0ZZ      0.069700
     42 H73        -2.1170    2.1890   -1.8960 h1        1 0ZZ      0.069700
     43 H1         -3.4760   -2.2490    1.6010 hc        1 0ZZ      0.074200
     44 H2         -3.5760   -1.6990   -0.1320 hc        1 0ZZ      0.074200
     45 H          -1.2480   -0.7010   -0.8700 hn        1 0ZZ      0.337500
     46 HA          0.8590   -2.5850    0.0860 h1        1 0ZZ      0.109700
     47 HB          1.7660   -2.4710   -2.2880 hc        1 0ZZ      0.070700
     48 HG11       -0.9860   -3.8200   -1.8330 hc        1 0ZZ      0.037200
     49 HG12        0.2180   -4.2680   -3.1100 hc        1 0ZZ      0.037200
     50 HG13        0.6370   -4.4630   -1.3550 hc        1 0ZZ      0.037200
     51 HG21        0.3180   -0.5010   -3.0600 hc        1 0ZZ      0.037200
     52 HG22        0.3130   -1.9410   -4.1610 hc        1 0ZZ      0.037200
     53 HG23       -1.1060   -1.6240   -3.0880 hc        1 0ZZ      0.037200
     54 H5          0.2720    0.9350   -0.6200 hn        1 0ZZ      0.353500
     55 HA1         3.1480    1.2600   -1.1750 h1        1 0ZZ      0.055700
     56 HB2         2.1460    3.8260   -1.2120 hc        1 0ZZ      0.050200
     57 HB3         2.2280    2.7210   -2.6500 hc        1 0ZZ      0.050200
     58 H11         4.1510    3.2900   -0.4140 h1        1 0ZZ      0.077700
     59 H12         3.7890    3.9330    1.2430 h1        1 0ZZ      0.077700
     60 H31         4.6010    0.3740   -0.0630 h1        1 0ZZ      0.083700
     61 H32         6.1700    1.1250   -0.5780 h1        1 0ZZ      0.083700
     62 H51         4.6570   -1.6420    1.0320 ha        1 0ZZ      0.150500
     63 H61         5.9010   -3.4100    2.2850 ha        1 0ZZ      0.123000
     64 H7          8.2580   -3.0140    3.0050 ha        1 0ZZ      0.118000
     65 H8          9.3720   -0.8450    2.4760 ha        1 0ZZ      0.123000
     66 H9          8.1320    0.9260    1.2340 ha        1 0ZZ      0.150500
     67 H80         2.7400    1.3240    1.3740 h1        1 0ZZ      0.066700
     68 H81         0.8700    3.1480    0.6920 ho        1 0ZZ      0.457000
@<TRIPOS>BOND
     1    1    2 ar  
     2    1    6 1   
     3    1    9 ar  
     4    2    3 ar  
     5    2   37 1   
     6    3    4 ar  
     7    3   38 1   
     8    4    5 ar  
     9    4    8 1   
    10    5    9 ar  
    11    5   39 1   
    12    6    7 1   
    13    7   40 1   
    14    7   41 1   
    15    7   42 1   
    16    9   12 1   
    17   10   11 2   
    18   10   12 1   
    19   10   13 1   
    20   12   43 1   
    21   12   44 1   
    22   13   14 1   
    23   13   45 1   
    24   14   15 1   
    25   14   17 1   
    26   14   46 1   
    27   15   16 2   
    28   15   20 1   
    29   17   18 1   
    30   17   19 1   
    31   17   47 1   
    32   18   48 1   
    33   18   49 1   
    34   18   50 1   
    35   19   51 1   
    36   19   52 1   
    37   19   53 1   
    38   20   21 1   
    39   20   54 1   
    40   21   22 1   
    41   21   24 1   
    42   21   55 1   
    43   22   23 1   
    44   22   28 1   
    45   22   67 1   
    46   23   68 1   
    47   24   25 1   
    48   24   56 1   
    49   24   57 1   
    50   25   26 1   
    51   25   27 1   
    52   28   29 1   
    53   28   58 1   
    54   28   59 1   
    55   29   30 1   
    56   30   31 1   
    57   30   60 1   
    58   30   61 1   
    59   31   32 ar  
    60   31   36 ar  
    61   32   33 ar  
    62   32   62 1   
    63   33   34 ar  
    64   33   63 1   
    65   34   35 ar  
    66   34   64 1   
    67   35   36 ar  
    68   35   65 1   
    69   36   66 1   
@<TRIPOS>SUBSTRUCTURE
     1 0ZZ         1 TEMP              0 ****  ****    0 ROOT
