@<TRIPOS>MOLECULE
T
   34    35     1     0     0
SMALL
bcc


@<TRIPOS>ATOM
      1 OP3        -2.7140   -2.7060    2.4800 o         1 T       -0.921500
      2 P          -3.7370   -1.7810    3.1160 p5        1 T        1.338900
      3 OP1        -4.2070   -2.1420    4.4890 o         1 T       -0.921500
      4 OP2        -4.7270   -1.2190    2.1410 o         1 T       -0.921500
      5 O5'        -2.7330   -0.3800    3.3990 os        1 T       -0.549200
      6 C5'        -2.0720    0.0440    2.2870 c3        1 T        0.236400
      7 C4'        -0.6040    0.3920    2.6220 c3        1 T        0.063100
      8 O4'         0.1950   -0.7830    2.8630 os        1 T       -0.372600
      9 C3'         0.0660    1.1880    1.4850 c3        1 T        0.104100
     10 O3'         0.4620    2.4950    1.8890 oh        1 T       -0.627800
     11 C2'         1.3210    0.4050    1.1060 c3        1 T       -0.110400
     12 C1'         1.2180   -0.9250    1.8880 c3        1 T        0.320500
     13 N1          0.9890   -2.1040    1.0380 n         1 T       -0.378000
     14 C2          2.0610   -2.4950    0.2110 c         1 T        0.785500
     15 O2          3.1440   -1.8500    0.1570 o         1 T       -0.726500
     16 N3          1.9140   -3.6420   -0.5800 n         1 T       -0.596500
     17 C4          0.7470   -4.4410   -0.5620 c         1 T        0.713700
     18 O4          0.7480   -5.4420   -1.3100 o         1 T       -0.691500
     19 C5         -0.3160   -4.0000    0.3330 cc        1 T       -0.298400
     20 C7         -1.5600   -4.7930    0.4030 c3        1 T       -0.043900
     21 C6         -0.1680   -2.8700    1.0990 cd        1 T        0.062600
     22 H5'        -2.1030   -0.7200    1.4600 h1        1 T       -0.002800
     23 H5''       -2.5090    1.0210    1.9030 h1        1 T       -0.002800
     24 H4'        -0.5690    0.9510    3.5970 h1        1 T        0.063700
     25 H3'        -0.6290    1.2900    0.6070 h1        1 T        0.055700
     26 HO3'       -0.2710    2.8500    2.4060 ho        1 T        0.405000
     27 H2'         1.3880    0.2480    0.0040 hc        1 T        0.062700
     28 H2''        2.2400    0.9510    1.4330 hc        1 T        0.062700
     29 H1'         2.1720   -1.1300    2.4610 h2        1 T        0.064700
     30 H3          2.6800   -3.8920   -1.1610 hn        1 T        0.317500
     31 H71        -2.0290   -4.8630   -0.6090 hc        1 T        0.058700
     32 H72        -2.2840   -4.3010    1.1190 hc        1 T        0.058700
     33 H73        -1.3370   -5.8310    0.7530 hc        1 T        0.058700
     34 H6         -1.0130   -2.5390    1.8170 h4        1 T        0.336000
@<TRIPOS>BOND
     1    1    2 1   
     2    2    3 1   
     3    2    4 1   
     4    2    5 1   
     5    5    6 1   
     6    6    7 1   
     7    6   22 1   
     8    6   23 1   
     9    7    8 1   
    10    7    9 1   
    11    7   24 1   
    12    8   12 1   
    13    9   10 1   
    14    9   11 1   
    15    9   25 1   
    16   10   26 1   
    17   11   12 1   
    18   11   27 1   
    19   11   28 1   
    20   12   13 1   
    21   12   29 1   
    22   13   14 1   
    23   13   21 1   
    24   14   15 2   
    25   14   16 1   
    26   16   17 1   
    27   16   30 1   
    28   17   18 2   
    29   17   19 1   
    30   19   20 1   
    31   19   21 2   
    32   20   31 1   
    33   20   32 1   
    34   20   33 1   
    35   21   34 1   
@<TRIPOS>SUBSTRUCTURE
     1 T           1 TEMP              0 ****  ****    0 ROOT
