@<TRIPOS>MOLECULE
T
   34    35     1     0     0
SMALL
bcc


@<TRIPOS>ATOM
      1 OP3        -2.3210    1.4040    3.9460 o         1 T       -0.923167
      2 P          -0.8120    1.4040    3.9460 p5        1 T        1.323900
      3 OP1        -0.3080    1.4040    5.3740 o         1 T       -0.923167
      4 OP2        -0.3100    2.6360    3.2350 o         1 T       -0.923167
      5 O5'        -0.2830    0.1100    3.2000 os        1 T       -0.577200
      6 C5'        -0.5440   -0.0260    1.8140 c3        1 T        0.211400
      7 C4'        -0.8980   -1.4610    1.5070 c3        1 T        0.062100
      8 O4'        -1.6100   -1.5610    0.0610 os        1 T       -0.437600
      9 C3'         0.1740   -2.1750    1.4340 c3        1 T        0.120100
     10 O3'        -0.1030   -3.5640    1.8720 oh        1 T       -0.660800
     11 C2'         0.5730   -2.1530   -0.0810 c3        1 T       -0.121400
     12 C1'        -0.6470   -1.5620   -0.8200 c3        1 T        0.306500
     13 N1         -0.3650   -0.2160   -1.2560 n         1 T       -0.369000
     14 C2         -1.4440    0.7600   -1.3340 c         1 T        0.796500
     15 O2         -2.5140    0.5230   -0.8160 o         1 T       -0.710500
     16 N3         -1.2720    1.9780   -2.1230 n         1 T       -0.598500
     17 C4          0.0040    2.3060   -2.6500 c         1 T        0.718700
     18 O4          0.1510    3.3220   -3.2970 o         1 T       -0.683500
     19 C5          1.1280    1.3780   -2.4780 cc        1 T       -0.299400
     20 C7          2.4540    1.6590   -3.1550 c3        1 T       -0.029900
     21 C6          0.9230    0.1100   -1.7580 cd        1 T        0.072600
     22 H5'         0.2500    0.2290    1.3070 h1        1 T        0.012700
     23 H5''       -1.2890    0.5530    1.5650 h1        1 T        0.012700
     24 H4'        -1.4900   -1.8160    2.1970 h1        1 T        0.036700
     25 H3'         0.8830   -1.7810    1.9780 h1        1 T        0.150700
     26 HO3'        0.5590   -3.8480    2.3910 ho        1 T        0.483000
     27 H2'         0.7530   -3.0590   -0.3960 hc        1 T        0.051200
     28 H2''        1.3570   -1.5860   -0.2160 hc        1 T        0.051200
     29 H1'        -0.8860   -2.1230   -1.5820 h2        1 T        0.081700
     30 H3         -1.9790    2.5360   -2.2600 hn        1 T        0.321500
     31 H71         2.4040    1.3920   -4.0930 hc        1 T        0.053700
     32 H72         3.1610    1.1530   -2.7110 hc        1 T        0.053700
     33 H73         2.6530    2.6130   -3.0990 hc        1 T        0.053700
     34 H6          1.6480   -0.5410   -1.7020 h4        1 T        0.280000
@<TRIPOS>BOND
     1    1    2 1   
     2    2    3 1   
     3    2    4 1   
     4    2    5 1   
     5    5    6 1   
     6    6    7 1   
     7    6   22 1   
     8    6   23 1   
     9    7    8 1   
    10    7    9 1   
    11    7   24 1   
    12    8   12 1   
    13    9   10 1   
    14    9   11 1   
    15    9   25 1   
    16   10   26 1   
    17   11   12 1   
    18   11   27 1   
    19   11   28 1   
    20   12   13 1   
    21   12   29 1   
    22   13   14 1   
    23   13   21 1   
    24   14   15 2   
    25   14   16 1   
    26   16   17 1   
    27   16   30 1   
    28   17   18 2   
    29   17   19 1   
    30   19   20 1   
    31   19   21 2   
    32   20   31 1   
    33   20   32 1   
    34   20   33 1   
    35   21   34 1   
@<TRIPOS>SUBSTRUCTURE
     1 T           1 TEMP              0 ****  ****    0 ROOT
