@<TRIPOS>MOLECULE
T00
   47    48     1     0     0
SMALL
bcc


@<TRIPOS>ATOM
      1 N1         -2.4780    1.8540    0.0910 n3        1 T00     -0.906800
      2 C1         -2.2440    0.4430   -0.1390 c3        1 T00      0.144500
      3 C2         -0.8540    0.0870   -0.7460 c3        1 T00      0.091100
      4 O1         -0.7010   -1.3260   -0.7560 oh        1 T00     -0.607800
      5 C3         -3.3190   -0.1750   -1.0540 c3        1 T00     -0.038100
      6 C4         -4.6340   -0.3180   -0.3750 ca        1 T00     -0.057300
      7 C5         -5.4860    0.7840   -0.2260 ca        1 T00     -0.120000
      8 C6         -5.0440   -1.5670    0.1100 ca        1 T00     -0.120000
      9 C7         -6.7230    0.6370    0.3980 ca        1 T00     -0.138500
     10 C8         -6.2830   -1.7110    0.7320 ca        1 T00     -0.138500
     11 C9         -7.1260   -0.6100    0.8760 ca        1 T00     -0.144000
     12 C10         0.2760    0.7740    0.0360 c3        1 T00      0.117800
     13 N2          1.5850    0.4890   -0.5080 n3        1 T00     -0.794200
     14 C11         2.6660    1.1060    0.2540 c3        1 T00      0.051500
     15 C12         2.6010    2.6760    0.2480 c         1 T00      0.928600
     16 O2          1.6060    3.2140    0.8120 o         1 T00     -0.835800
     17 C13         4.0420    0.6660   -0.2650 c3        1 T00     -0.039100
     18 C14         4.3040   -0.7810   -0.0430 ca        1 T00     -0.052300
     19 C15         3.9730   -1.7260   -1.0240 ca        1 T00     -0.136500
     20 C16         4.8900   -1.2220    1.1510 ca        1 T00     -0.136500
     21 C17         4.2250   -3.0810   -0.8140 ca        1 T00     -0.138000
     22 C18         5.1420   -2.5760    1.3590 ca        1 T00     -0.138000
     23 C19         4.8110   -3.5100    0.3770 ca        1 T00     -0.157000
     24 O3          3.5610    3.3080   -0.2650 o         1 T00     -0.835800
     25 H1         -1.8660    2.1900    0.8120 hn        1 T00      0.358300
     26 H2         -2.3090   -0.0730    0.8660 h1        1 T00      0.052700
     27 H3         -0.8230    0.3760   -1.8330 h1        1 T00      0.080700
     28 H4         -0.5020   -1.5960    0.1470 ho        1 T00      0.392000
     29 H5         -3.4380    0.4520   -1.9780 hc        1 T00      0.056200
     30 H6         -2.9460   -1.1850   -1.3790 hc        1 T00      0.056200
     31 H7         -5.1620    1.7720   -0.5880 ha        1 T00      0.137500
     32 H8         -4.3810   -2.4380    0.0010 ha        1 T00      0.137500
     33 H9         -7.3820    1.5100    0.5160 ha        1 T00      0.120500
     34 H10        -6.5940   -2.6950    1.1100 ha        1 T00      0.120500
     35 H11        -8.1020   -0.7230    1.3680 ha        1 T00      0.118000
     36 H12         0.1550    1.8980   -0.0090 h1        1 T00      0.058700
     37 H13         0.1790    0.4680    1.1210 h1        1 T00      0.058700
     38 H14         1.7270   -0.5070   -0.5420 hn        1 T00      0.329800
     39 H15         2.6020    0.8060    1.3470 h1        1 T00      0.001700
     40 H16         4.1230    0.9200   -1.3550 hc        1 T00      0.072200
     41 H17         4.8080    1.2880    0.2720 hc        1 T00      0.072200
     42 H18         3.5070   -1.3880   -1.9620 ha        1 T00      0.138000
     43 H19         5.1480   -0.4860    1.9280 ha        1 T00      0.138000
     44 H20         3.9590   -3.8130   -1.5890 ha        1 T00      0.116000
     45 H21         5.6020   -2.9100    2.3000 ha        1 T00      0.116000
     46 H22         5.0100   -4.5770    0.5410 ha        1 T00      0.113000
     47 H24        -2.2980    2.3770   -0.7450 hn        1 T00      0.358300
@<TRIPOS>BOND
     1    1    2 1   
     2    1   25 1   
     3    1   47 1   
     4    2    3 1   
     5    2    5 1   
     6    2   26 1   
     7    3    4 1   
     8    3   12 1   
     9    3   27 1   
    10    4   28 1   
    11    5    6 1   
    12    5   29 1   
    13    5   30 1   
    14    6    7 ar  
    15    6    8 ar  
    16    7    9 ar  
    17    7   31 1   
    18    8   10 ar  
    19    8   32 1   
    20    9   11 ar  
    21    9   33 1   
    22   10   11 ar  
    23   10   34 1   
    24   11   35 1   
    25   12   13 1   
    26   12   36 1   
    27   12   37 1   
    28   13   14 1   
    29   13   38 1   
    30   14   15 1   
    31   14   17 1   
    32   14   39 1   
    33   15   16 1   
    34   15   24 1   
    35   17   18 1   
    36   17   40 1   
    37   17   41 1   
    38   18   19 ar  
    39   18   20 ar  
    40   19   21 ar  
    41   19   42 1   
    42   20   22 ar  
    43   20   43 1   
    44   21   23 ar  
    45   21   44 1   
    46   22   23 ar  
    47   22   45 1   
    48   23   46 1   
@<TRIPOS>SUBSTRUCTURE
     1 T00         1 TEMP              0 ****  ****    0 ROOT
