@<TRIPOS>MOLECULE
T00
   47    44     1     0     0
SMALL
bcc


@<TRIPOS>ATOM
      1 N1         -1.4020    2.1820   -1.5200 n3        1 T00     -0.340000
      2 C1         -0.1670    1.5830   -1.7880 c3        1 T00     -0.027000
      3 C2          0.6230    1.4250   -0.4830 c3        1 T00     -0.005000
      4 O1          1.9870    1.4610   -0.7590 oh        1 T00     -0.355000
      5 C3          0.6270    2.4590   -2.7630 c3        1 T00     -0.121000
      6 C4         -0.0610    2.4570   -4.1300 c2        1 T00     -0.047000
      7 C5         -0.7740    3.5720   -4.5470 c1        1 T00     -0.107000
      8 C6          0.1130    1.3750   -4.9960 c2        1 T00     -0.131000
      9 C7         -1.3230    3.6120   -5.8430 c1        1 T00     -0.144750
     10 C8         -0.4300    1.4160   -6.2800 c1        1 T00     -0.139000
     11 C9         -1.1500    2.5410   -6.7000 c1        1 T00     -0.144750
     12 C10         0.2670    0.0790    0.1750 c3        1 T00     -0.125000
     13 N2          0.6430    0.1060    1.5800 n3        1 T00     -0.284000
     14 C11         0.0420   -0.9950    2.2560 c3        1 T00     -0.118000
     15 C12        -1.4780   -0.8190    2.2730 c2        1 T00      0.308000
     16 O2         -1.9920    0.2850    2.6780 o         1 T00     -0.572000
     17 C13         0.5560   -1.0530    3.6580 c3        1 T00     -0.106000
     18 C14         0.5770   -2.5340    4.1490 c2        1 T00     -0.050000
     19 C15         1.8010   -3.1530    4.4340 c2        1 T00     -0.143000
     20 C16        -0.6170   -3.1900    4.4400 c1        1 T00     -0.121000
     21 C17         1.8250   -4.4250    5.0090 c1        1 T00     -0.150000
     22 C18        -0.5910   -4.4650    5.0170 c1        1 T00     -0.144750
     23 C19         0.6340   -5.0800    5.3000 c1        1 T00     -0.144750
     24 O3         -2.2370   -1.7530    1.8170 o         1 T00     -0.572000
     25 H1         -1.4560    2.3880   -0.6220 hn        1 T00      0.149500
     26 H2         -0.3120    0.7040   -2.1880 h1        1 T00      0.106000
     27 H3          0.3930    2.1590    0.1290 h1        1 T00      0.075000
     28 H4          2.3920    2.0000   -0.1810 ho        1 T00      0.222000
     29 H5          0.6680    3.3730   -2.4210 hc        1 T00      0.096500
     30 H6          1.5320    2.1060   -2.8550 hc        1 T00      0.096500
     31 H7         -0.8680    4.3470   -3.9490 ha        1 T00      0.141000
     32 H8          0.6830    0.6290   -4.7330 ha        1 T00      0.132000
     33 H9         -1.8330    4.4060   -6.1400 ha        1 T00      0.116500
     34 H10        -0.3100    0.6660   -6.8800 ha        1 T00      0.119000
     35 H11        -1.5300    2.5690   -7.5990 ha        1 T00      0.116500
     36 H12        -0.6890   -0.0760    0.0990 h1        1 T00      0.091500
     37 H13         0.7530   -0.6460   -0.2790 h1        1 T00      0.091500
     38 H14         0.3590    0.8910    1.9590 hn        1 T00      0.148000
     39 H15         0.2660   -1.8180    1.7960 h1        1 T00      0.093000
     40 H16         1.4620   -0.6910    3.6850 hc        1 T00      0.087000
     41 H17        -0.0210   -0.5260    4.2370 hc        1 T00      0.087000
     42 H18         2.6520   -2.6880    4.2280 ha        1 T00      0.119000
     43 H19        -1.4740   -2.7250    4.3180 ha        1 T00      0.205000
     44 H20         2.6980   -4.8590    5.2230 ha        1 T00      0.109000
     45 H21        -1.4290   -4.9260    5.2220 ha        1 T00      0.116500
     46 H22         0.6530   -5.9830    5.7080 ha        1 T00      0.116500
     47 H24        -2.0610    1.6140   -1.7360 hn        1 T00      0.149500
@<TRIPOS>BOND
     1    1    2 1   
     2    1   25 1   
     3    1   47 1   
     4    2    3 1   
     5    2    5 1   
     6    2   26 1   
     7    3    4 1   
     8    3   12 1   
     9    3   27 1   
    10    4   28 1   
    11    5    6 1   
    12    5   29 1   
    13    5   30 1   
    14    6    7 1   
    15    6    8 1   
    16    7   31 1   
    17    8   10 1   
    18    8   32 1   
    19    9   11 1   
    20    9   33 1   
    21   10   34 1   
    22   11   35 1   
    23   12   13 1   
    24   12   36 1   
    25   12   37 1   
    26   13   14 1   
    27   13   38 1   
    28   14   15 1   
    29   14   17 1   
    30   14   39 1   
    31   15   16 1   
    32   15   24 1   
    33   17   18 1   
    34   17   40 1   
    35   17   41 1   
    36   18   19 1   
    37   18   20 1   
    38   19   21 1   
    39   19   42 1   
    40   20   43 1   
    41   21   44 1   
    42   22   23 1   
    43   22   45 1   
    44   23   46 1   
@<TRIPOS>SUBSTRUCTURE
     1 T00         1 TEMP              0 ****  ****    0 ROOT
