@<TRIPOS>MOLECULE
T01
   61    61     1     0     0
SMALL
bcc


@<TRIPOS>ATOM
      1 CAP         0.0020   -0.3550    1.3290 ca        1 T01     -0.043000
      2 CAN         1.3770   -0.4520    1.4930 ca        1 T01     -0.180000
      3 CBG         1.8940   -1.1940    2.5750 ca        1 T01      0.155900
      4 FAM         3.2350   -1.2900    2.7340 f         1 T01     -0.140900
      5 CAO         1.0290   -1.8330    3.4810 ca        1 T01     -0.180000
      6 CAQ        -0.3500   -1.7210    3.3140 ca        1 T01     -0.043000
      7 CBH        -0.8600   -0.9770    2.2430 ca        1 T01     -0.200600
      8 CBF        -2.3170   -0.8670    2.0150 c         1 T01      0.599700
      9 OAF        -2.8850   -1.0820    0.9480 o         1 T01     -0.476100
     10 N          -3.0980   -0.4160    3.1980 n4        1 T01     -0.661800
     11 CA         -4.5640   -0.2070    2.9760 c3        1 T01     -0.039500
     12 C          -4.9110    1.3490    3.0700 c         1 T01      0.929600
     13 O          -3.9370    2.1250    3.2580 o         1 T01     -0.783300
     14 OXT        -6.1140    1.6390    2.9160 o         1 T01     -0.783300
     15 CB         -5.4320   -0.9880    3.9560 c3        1 T01     -0.082400
     16 CG         -5.7660   -2.3710    3.4180 c3        1 T01     -0.169400
     17 CD         -6.2210   -3.2840    4.5280 c         1 T01      0.551100
     18 OE1        -7.3050   -3.2270    5.1010 o         1 T01     -0.463100
     19 NE2        -5.2930   -4.3710    4.9500 n4        1 T01     -0.651800
     20 CBK        -4.2340   -3.8860    5.9030 c3        1 T01     -0.000500
     21 CBD        -3.1980   -3.0380    5.1360 c         1 T01      0.908600
     22 OAK        -2.9970   -3.2570    3.9020 o         1 T01     -0.832800
     23 OAD        -2.6730   -2.0480    5.7200 o         1 T01     -0.832800
     24 CAV        -3.5860   -5.0320    6.7120 c3        1 T01      0.191400
     25 OAZ        -2.7570   -5.8830    5.9920 os        1 T01     -0.546200
     26 PBL        -3.3280   -7.3400    5.4860 p5        1 T01      1.346700
     27 OAL        -2.3890   -7.9270    4.5220 o         1 T01     -0.798500
     28 OAG        -4.7330   -6.9560    5.1620 o         1 T01     -0.798500
     29 NAY        -3.4630   -8.4590    6.7930 n4        1 T01     -0.770100
     30 CBJ        -2.9500   -7.9950    8.1070 c3        1 T01     -0.045500
     31 CBC        -1.6750   -8.8340    8.5390 c         1 T01      0.926600
     32 OAJ        -1.4900   -9.9280    7.9350 o         1 T01     -0.802300
     33 OAC        -0.9590   -8.3350    9.4340 o         1 T01     -0.802300
     34 CAT        -3.9820   -8.1140    9.2300 c3        1 T01     -0.077400
     35 CAR        -5.1730   -7.2010    9.0860 c3        1 T01     -0.217400
     36 CBA        -6.3310   -7.6290   10.0130 c         1 T01      0.913600
     37 OAH        -6.8400   -6.7500   10.7630 o         1 T01     -0.849800
     38 OAA        -6.7390   -8.8240    9.9430 o         1 T01     -0.849800
     39 H1         -0.4150    0.2100    0.4800 ha        1 T01      0.185000
     40 H2          2.0640    0.0380    0.7890 ha        1 T01      0.159000
     41 H3          1.4390   -2.4250    4.3140 ha        1 T01      0.159000
     42 H4         -1.0320   -2.2480    4.0190 ha        1 T01      0.185000
     43 H5         -2.7200    0.5160    3.4840 hn        1 T01      0.495800
     44 H6         -4.8180   -0.5110    1.9200 hx        1 T01      0.101700
     45 H8         -4.9340   -1.0730    4.9610 hc        1 T01      0.094200
     46 H9         -6.3820   -0.4000    4.0970 hc        1 T01      0.094200
     47 H10        -6.6130   -2.2970    2.6830 hc        1 T01      0.102700
     48 H11        -4.8730   -2.8000    2.8820 hc        1 T01      0.102700
     49 H12        -5.8070   -5.1630    5.3850 hn        1 T01      0.493800
     50 H13        -4.7480   -3.2180    6.6570 hx        1 T01      0.099700
     51 H15        -2.9350   -4.5140    7.4780 h1        1 T01      0.073200
     52 H16        -4.3980   -5.6240    7.2260 h1        1 T01      0.073200
     53 H18        -2.9150   -9.3190    6.5820 hn        1 T01      0.463300
     54 H19        -2.6250   -6.9250    7.9910 hx        1 T01      0.074700
     55 H21        -4.3410   -9.1770    9.3100 hc        1 T01      0.079200
     56 H22        -3.4380   -7.8780   10.1850 hc        1 T01      0.079200
     57 H23        -4.8850   -6.1460    9.3230 hc        1 T01      0.015700
     58 H24        -5.5910   -7.2250    8.0470 hc        1 T01      0.015700
     59 H25        -2.9250   -1.0880    3.9730 hn        1 T01      0.495800
     60 HE23       -4.7980   -4.7430    4.1200 hn        1 T01      0.493800
     61 HAY2       -4.4360   -8.7480    6.9180 hn        1 T01      0.463300
@<TRIPOS>BOND
     1    1    2 ar  
     2    1    7 ar  
     3    1   39 1   
     4    2    3 ar  
     5    2   40 1   
     6    3    4 1   
     7    3    5 ar  
     8    5    6 ar  
     9    5   41 1   
    10    6    7 ar  
    11    6   42 1   
    12    7    8 1   
    13    8    9 2   
    14    8   10 1   
    15   10   11 1   
    16   10   43 1   
    17   10   59 1   
    18   11   12 1   
    19   11   15 1   
    20   11   44 1   
    21   12   13 1   
    22   12   14 1   
    23   15   16 1   
    24   15   45 1   
    25   15   46 1   
    26   16   17 1   
    27   16   47 1   
    28   16   48 1   
    29   17   18 2   
    30   17   19 1   
    31   19   20 1   
    32   19   49 1   
    33   19   60 1   
    34   20   21 1   
    35   20   24 1   
    36   20   50 1   
    37   21   22 1   
    38   21   23 1   
    39   24   25 1   
    40   24   51 1   
    41   24   52 1   
    42   25   26 1   
    43   26   27 1   
    44   26   28 1   
    45   26   29 1   
    46   29   30 1   
    47   29   53 1   
    48   29   61 1   
    49   30   31 1   
    50   30   34 1   
    51   30   54 1   
    52   31   32 1   
    53   31   33 1   
    54   34   35 1   
    55   34   55 1   
    56   34   56 1   
    57   35   36 1   
    58   35   57 1   
    59   35   58 1   
    60   36   37 1   
    61   36   38 1   
@<TRIPOS>SUBSTRUCTURE
     1 T01         1 TEMP              0 ****  ****    0 ROOT
