@<TRIPOS>MOLECULE
T01
   58    58     1     0     0
SMALL
bcc


@<TRIPOS>ATOM
      1 CAP        -0.8040    2.0340    2.6660 ca        1 T01     -0.067000
      2 CAN        -0.5920    2.8080    3.8000 ca        1 T01     -0.177500
      3 CBG        -0.9750    2.3070    5.0620 ca        1 T01      0.077900
      4 FAM        -0.7560    3.0790    6.1630 f         1 T01     -0.185900
      5 CAO        -1.5650    1.0400    5.1810 ca        1 T01     -0.177500
      6 CAQ        -1.7780    0.2820    4.0260 ca        1 T01     -0.067000
      7 CBH        -1.4020    0.7730    2.7730 ca        1 T01     -0.150600
      8 CBF        -1.5940   -0.0610    1.5390 c         1 T01      0.665700
      9 OAF        -0.6380   -0.2160    0.7340 o         1 T01     -0.692100
     10 N          -2.8370   -0.5880    1.3580 n         1 T01     -0.498900
     11 CA         -3.1550   -1.6360    0.4130 c3        1 T01     -0.008300
     12 C          -3.8190   -1.1520   -0.9180 c         1 T01      0.911600
     13 O          -3.6340   -1.8920   -1.9330 o         1 T01     -0.864300
     14 OXT        -4.5120   -0.0980   -0.9640 o         1 T01     -0.864300
     15 CB         -4.0980   -2.6810    1.0430 c3        1 T01     -0.075400
     16 CG         -3.5310   -3.4070    2.2480 c3        1 T01     -0.160400
     17 CD         -3.9270   -2.7890    3.5920 c         1 T01      0.647100
     18 OE1        -4.3920   -1.6180    3.6270 o         1 T01     -0.701100
     19 NE2        -3.7590   -3.5550    4.7050 n         1 T01     -0.486900
     20 CBK        -3.8630   -3.0780    6.0710 c3        1 T01     -0.019300
     21 CBD        -2.8090   -1.9770    6.4000 c         1 T01      0.898600
     22 OAK        -3.1590   -0.9850    7.1110 o         1 T01     -0.875800
     23 OAD        -1.6290   -2.0630    5.9380 o         1 T01     -0.875800
     24 CAV        -3.7010   -4.2220    7.1190 c3        1 T01      0.192400
     25 OAZ        -4.2860   -5.4200    6.7370 os        1 T01     -0.594200
     26 PBL        -5.3150   -6.2180    7.8310 p5        1 T01      1.446700
     27 OAL        -5.8770   -5.0790    8.6210 o         1 T01     -0.872500
     28 OAG        -6.2230   -6.9750    6.9210 o         1 T01     -0.872500
     29 NAY        -4.3520   -7.1420    8.7250 n3        1 T01     -0.959300
     30 CBJ        -4.6750   -8.4950    9.0800 c3        1 T01      0.136500
     31 CBC        -4.8720   -8.6850   10.6200 c         1 T01      0.901600
     32 OAJ        -4.0220   -8.2110   11.4350 o         1 T01     -0.892300
     33 OAC        -5.8910   -9.3260   11.0290 o         1 T01     -0.892300
     34 CAT        -3.6230   -9.5400    8.6230 c3        1 T01     -0.056400
     35 CAR        -4.1670  -10.9510    8.6840 c3        1 T01     -0.167400
     36 CBA        -3.1820  -12.0750    8.3730 c         1 T01      0.901600
     37 OAH        -3.6570  -13.1960    7.9770 o         1 T01     -0.908800
     38 OAA        -1.9280  -11.9460    8.5300 o         1 T01     -0.908800
     39 H1         -0.4990    2.4010    1.6760 ha        1 T01      0.173000
     40 H2         -0.1300    3.8000    3.7260 ha        1 T01      0.165000
     41 H3         -1.8700    0.5900    6.1550 ha        1 T01      0.165000
     42 H4         -2.2410   -0.7240    4.1570 ha        1 T01      0.173000
     43 H5         -3.5300   -0.4260    2.0640 hn        1 T01      0.344500
     44 H6         -2.1880   -2.1420    0.1170 h1        1 T01      0.053700
     45 H8         -4.3190   -3.4270    0.2340 hc        1 T01      0.052700
     46 H9         -5.0620   -2.1820    1.3250 hc        1 T01      0.052700
     47 H10        -3.8750   -4.4750    2.2180 hc        1 T01      0.048200
     48 H11        -2.4100   -3.4100    2.2030 hc        1 T01      0.048200
     49 H12        -3.4400   -4.4930    4.6120 hn        1 T01      0.320500
     50 H13        -4.8860   -2.6190    6.1930 h1        1 T01      0.061700
     51 H15        -4.1510   -3.8480    8.0800 h1        1 T01      0.028200
     52 H16        -2.5910   -4.3890    7.2520 h1        1 T01      0.028200
     53 H18        -3.6800   -6.7510    9.3340 hn        1 T01      0.402800
     54 H19        -5.6520   -8.7410    8.5680 h1        1 T01      0.052700
     55 H21        -3.2950   -9.3180    7.5760 hc        1 T01      0.026700
     56 H22        -2.7200   -9.4630    9.2820 hc        1 T01      0.026700
     57 H23        -5.0300  -11.0460    7.9740 hc        1 T01      0.034700
     58 H24        -4.5700  -11.1350    9.7160 hc        1 T01      0.034700
@<TRIPOS>BOND
     1    1    2 ar  
     2    1    7 ar  
     3    1   39 1   
     4    2    3 ar  
     5    2   40 1   
     6    3    4 1   
     7    3    5 ar  
     8    5    6 ar  
     9    5   41 1   
    10    6    7 ar  
    11    6   42 1   
    12    7    8 1   
    13    8    9 2   
    14    8   10 1   
    15   10   11 1   
    16   10   43 1   
    17   11   12 1   
    18   11   15 1   
    19   11   44 1   
    20   12   13 1   
    21   12   14 1   
    22   15   16 1   
    23   15   45 1   
    24   15   46 1   
    25   16   17 1   
    26   16   47 1   
    27   16   48 1   
    28   17   18 2   
    29   17   19 1   
    30   19   20 1   
    31   19   49 1   
    32   20   21 1   
    33   20   24 1   
    34   20   50 1   
    35   21   22 1   
    36   21   23 1   
    37   24   25 1   
    38   24   51 1   
    39   24   52 1   
    40   25   26 1   
    41   26   27 1   
    42   26   28 1   
    43   26   29 1   
    44   29   30 1   
    45   29   53 1   
    46   30   31 1   
    47   30   34 1   
    48   30   54 1   
    49   31   32 1   
    50   31   33 1   
    51   34   35 1   
    52   34   55 1   
    53   34   56 1   
    54   35   36 1   
    55   35   57 1   
    56   35   58 1   
    57   36   37 1   
    58   36   38 1   
@<TRIPOS>SUBSTRUCTURE
     1 T01         1 TEMP              0 ****  ****    0 ROOT
