@<TRIPOS>MOLECULE
T03
   22    23     1     0     0
SMALL
bcc


@<TRIPOS>ATOM
      1 F          -5.2780    0.4440    0.1640 f         1 T03     -0.136900
      2 S           1.0830    0.6380    0.2350 ss        1 T03     -0.229400
      3 C1         -1.2410   -0.4690   -0.1730 ca        1 T03     -0.109300
      4 N1          3.7820    1.0070    0.3710 na        1 T03     -0.430700
      5 C2         -1.9290    0.1020   -1.2520 ca        1 T03     -0.083000
      6 N2          4.5150   -0.9810   -0.3610 nc        1 T03     -0.338000
      7 C3         -3.2800    0.4120   -1.1490 ca        1 T03     -0.169000
      8 N3          3.2010   -1.0280   -0.3780 nc        1 T03     -0.367000
      9 C4         -3.9620    0.1460    0.0540 ca        1 T03      0.136900
     10 C5         -3.2800   -0.4310    1.1420 ca        1 T03     -0.169000
     11 C6         -1.9290   -0.7340    1.0190 ca        1 T03     -0.083000
     12 C8          4.9180    0.2390    0.0890 cd        1 T03      0.348400
     13 C9          2.6940    0.1730    0.0640 cd        1 T03      0.419800
     14 H2         -1.3950    0.3080   -2.1930 ha        1 T03      0.145000
     15 H3         -3.8210    0.8610   -1.9940 ha        1 T03      0.153000
     16 H5         -3.8220   -0.6390    2.0760 ha        1 T03      0.153000
     17 H6         -1.3950   -1.1880    1.8690 ha        1 T03      0.145000
     18 H7          0.4630   -1.0640   -1.3530 h1        1 T03      0.093700
     19 H7A         0.4630   -1.6880    0.3400 h1        1 T03      0.093700
     20 H81         3.7410    1.9310    0.7120 hn        1 T03      0.316700
     21 C7          0.1920   -0.8100   -0.2980 c3        1 T03      0.038000
     22 H8          5.9430    0.5950    0.2200 h5        1 T03      0.074100
@<TRIPOS>BOND
     1    1    9 1   
     2    2   13 1   
     3    2   21 1   
     4    3    5 ar  
     5    3   11 ar  
     6    3   21 1   
     7    4   12 1   
     8    4   13 1   
     9    4   20 1   
    10    5    7 ar  
    11    5   14 1   
    12    6    8 1   
    13    6   12 2   
    14    7    9 ar  
    15    7   15 1   
    16    8   13 2   
    17    9   10 ar  
    18   10   11 ar  
    19   10   16 1   
    20   11   17 1   
    21   12   22 1   
    22   18   21 1   
    23   19   21 1   
@<TRIPOS>SUBSTRUCTURE
     1 T03         1 TEMP              0 ****  ****    0 ROOT
