@<TRIPOS>MOLECULE
T03
   22    23     1     0     0
SMALL
bcc


@<TRIPOS>ATOM
      1 F           0.0360   -0.5400    0.1280 f         1 T03     -0.137900
      2 S           6.3480   -1.4340    0.2480 ss        1 T03     -0.182200
      3 C1          4.1540   -0.0160    0.1930 ca        1 T03     -0.103300
      4 N1          8.9250   -2.1900    0.6030 n2        1 T03     -0.515900
      5 C2          3.4350   -0.1100    1.3920 ca        1 T03     -0.083000
      6 N2          9.5050   -1.2180   -1.4400 ne        1 T03     -0.260300
      7 C3          2.0560   -0.2870    1.3800 ca        1 T03     -0.168000
      8 N3          8.5900   -0.5040   -1.0570 n2        1 T03     -0.156200
      9 C4          1.3790   -0.3700    0.1490 ca        1 T03      0.136900
     10 C5          2.0930   -0.2750   -1.0600 ca        1 T03     -0.168000
     11 C6          3.4720   -0.0990   -1.0280 ca        1 T03     -0.083000
     12 C8          9.7400   -2.2850   -0.4180 ce        1 T03      0.513200
     13 C9          8.0790   -1.0130    0.2950 c3        1 T03      0.208800
     14 H2          3.9660   -0.0480    2.3550 ha        1 T03      0.144500
     15 H3          1.4900   -0.3630    2.3200 ha        1 T03      0.152500
     16 H5          1.5560   -0.3410   -2.0170 ha        1 T03      0.152500
     17 H6          4.0320   -0.0260   -1.9740 ha        1 T03      0.144500
     18 H7          5.9600    0.7500   -0.6890 h1        1 T03      0.077700
     19 H7A         5.9310    0.7680    1.1180 h1        1 T03      0.077700
     20 H81         8.2550   -0.2050    1.0590 h3        1 T03      0.133700
     21 C7          5.6190    0.1860    0.2150 c3        1 T03      0.028000
     22 H8         10.5320   -3.0290   -0.5730 h5        1 T03      0.087800
@<TRIPOS>BOND
     1    1    9 1   
     2    2   13 1   
     3    2   21 1   
     4    3    5 ar  
     5    3   11 ar  
     6    3   21 1   
     7    4   12 2   
     8    4   13 1   
     9    5    7 ar  
    10    5   14 1   
    11    6    8 2   
    12    6   12 1   
    13    7    9 ar  
    14    7   15 1   
    15    8   13 1   
    16    9   10 ar  
    17   10   11 ar  
    18   10   16 1   
    19   11   17 1   
    20   12   22 1   
    21   13   20 1   
    22   18   21 1   
    23   19   21 1   
@<TRIPOS>SUBSTRUCTURE
     1 T03         1 TEMP              0 ****  ****    0 ROOT
