@<TRIPOS>MOLECULE
T04
   54    56     1     0     0
SMALL
bcc


@<TRIPOS>ATOM
      1 OE1         3.9090    3.9140   -1.4560 o         1 T04     -0.621000
      2 CD          4.4580    2.7990   -1.3640 c         1 T04      0.655100
      3 OE2         5.7760    2.8430   -1.6410 oh        1 T04     -0.602100
      4 CG          3.7240    1.5540   -0.9600 c3        1 T04     -0.161400
      5 CB          4.4260    0.2440   -1.2180 c3        1 T04     -0.092400
      6 C           6.2740   -0.4560   -2.7500 c         1 T04      0.911600
      7 O           6.5840   -1.6470   -2.9710 o         1 T04     -0.813300
      8 OXT         7.0830    0.4990   -2.5430 o         1 T04     -0.813300
      9 N           4.4430    0.9640   -3.6220 n         1 T04     -0.538900
     10 CAU         3.2950    1.0320   -4.3660 c         1 T04      0.667700
     11 OBC         2.3650    0.2020   -4.2920 o         1 T04     -0.612100
     12 CAT         3.1730    2.2550   -5.2290 ca        1 T04     -0.160600
     13 CAQ         2.9740    3.4830   -4.5940 ca        1 T04     -0.077000
     14 CAS         3.2430    2.2040   -6.6330 ca        1 T04      0.171900
     15 CAR         3.1300    3.3960   -7.3800 ca        1 T04     -0.180000
     16 CAP         2.9560    4.6100   -6.7280 ca        1 T04     -0.091000
     17 CAO         2.8730    4.6640   -5.3310 ca        1 T04     -0.121300
     18 CAN         2.6470    5.9860   -4.6590 c3        1 T04      0.259100
     19 NAY         3.4370    6.1870   -3.4690 nh        1 T04     -0.743600
     20 CAA         3.1560    7.2230   -2.6070 ca        1 T04      0.238600
     21 CAC         3.7050    7.2110   -1.2880 ca        1 T04     -0.222000
     22 CAE         3.5150    8.2800   -0.4420 ca        1 T04     -0.037000
     23 CAB         2.3870    8.3530   -2.9940 ca        1 T04     -0.222000
     24 CAG         2.2090    9.4170   -2.1250 ca        1 T04     -0.037000
     25 CAF         2.7680    9.4160   -0.8370 ca        1 T04     -0.195800
     26 CAH         2.6190   10.4940    0.0960 ce        1 T04      0.091800
     27 CAI         1.9660   11.6650   -0.0760 cd        1 T04     -0.226600
     28 SBG         1.1110   12.2680   -1.4260 ss        1 T04     -0.026200
     29 CAL         0.6780   13.7740   -0.6740 c         1 T04      0.359000
     30 SBH        -0.1620   14.8680   -1.4020 s         1 T04     -0.384400
     31 NAX         1.1890   13.8140    0.6130 n         1 T04     -0.550500
     32 CAK         1.9200   12.6680    1.0140 c         1 T04      0.705700
     33 FAS         3.4270    1.0340   -7.2840 f         1 T04     -0.123900
     34 OBE         2.4250   12.5870    2.1420 o         1 T04     -0.593500
     35 CA          4.7410   -0.0980   -2.6900 c3        1 T04     -0.054300
     36 HG1         2.7310    1.5660   -1.4890 hc        1 T04      0.071200
     37 HB1         3.7790   -0.5770   -0.8090 hc        1 T04      0.053700
     38 HG2         3.5160    1.6490    0.1420 hc        1 T04      0.071200
     39 HB2         5.3880    0.2240   -0.6360 hc        1 T04      0.053700
     40 H           5.2040    1.5740   -3.8330 hn        1 T04      0.331500
     41 HA          4.1470   -1.0100   -2.9830 h1        1 T04      0.083700
     42 HAX         1.0530   14.5920    1.2160 hn        1 T04      0.352500
     43 HAQ         2.9010    3.4980   -3.4900 ha        1 T04      0.169000
     44 HAR         3.1900    3.3490   -8.4760 ha        1 T04      0.145000
     45 HAP         2.8860    5.5360   -7.3190 ha        1 T04      0.132000
     46 HAN1        2.8920    6.8190   -5.3830 h1        1 T04      0.044700
     47 HAN2        1.5440    6.0680   -4.4160 h1        1 T04      0.044700
     48 HAY         3.8800    5.3800   -3.0700 hn        1 T04      0.468800
     49 HAC         4.2680    6.3220   -0.9490 ha        1 T04      0.154500
     50 HAB         1.9300    8.3960   -3.9930 ha        1 T04      0.154500
     51 HAE         3.9500    8.2500    0.5710 ha        1 T04      0.130500
     52 HAG         1.6090   10.2760   -2.4700 ha        1 T04      0.130500
     53 HAH         3.1060   10.3370    1.0840 ha        1 T04      0.149000
     54 H2          6.1850    1.9460   -1.6850 ho        1 T04      0.504000
@<TRIPOS>BOND
     1    1    2 2   
     2    2    3 1   
     3    2    4 1   
     4    3   54 1   
     5    4    5 1   
     6    4   36 1   
     7    4   38 1   
     8    5   35 1   
     9    5   37 1   
    10    5   39 1   
    11    6    7 1   
    12    6    8 1   
    13    6   35 1   
    14    9   10 1   
    15    9   35 1   
    16    9   40 1   
    17   10   11 2   
    18   10   12 1   
    19   12   13 ar  
    20   12   14 ar  
    21   13   17 ar  
    22   13   43 1   
    23   14   15 ar  
    24   14   33 1   
    25   15   16 ar  
    26   15   44 1   
    27   16   17 ar  
    28   16   45 1   
    29   17   18 1   
    30   18   19 1   
    31   18   46 1   
    32   18   47 1   
    33   19   20 1   
    34   19   48 1   
    35   20   21 ar  
    36   20   23 ar  
    37   21   22 ar  
    38   21   49 1   
    39   22   25 ar  
    40   22   51 1   
    41   23   24 ar  
    42   23   50 1   
    43   24   25 ar  
    44   24   52 1   
    45   25   26 1   
    46   26   27 2   
    47   26   53 1   
    48   27   28 1   
    49   27   32 1   
    50   28   29 1   
    51   29   30 2   
    52   29   31 1   
    53   31   32 1   
    54   31   42 1   
    55   32   34 2   
    56   35   41 1   
@<TRIPOS>SUBSTRUCTURE
     1 T04         1 TEMP              0 ****  ****    0 ROOT
