@<TRIPOS>MOLECULE
T04
   55    57     1     0     0
SMALL
bcc


@<TRIPOS>ATOM
      1 OE1         4.3400    3.5310   -1.5590 oh        1 T04     -0.655100
      2 CD          3.0550    3.1350   -1.4780 c         1 T04      0.675100
      3 OE2         2.2860    4.0670   -1.8230 o         1 T04     -0.663000
      4 CG          2.5850    1.7760   -1.0750 c3        1 T04     -0.149400
      5 CB          3.6230    0.6810   -1.0060 c3        1 T04     -0.092400
      6 C           5.9440    0.5040   -1.8970 c         1 T04      0.909600
      7 O           6.6210   -0.5340   -1.7810 o         1 T04     -0.800300
      8 OXT         6.3590    1.6970   -1.7190 o         1 T04     -0.800300
      9 N           4.1400    1.2530   -3.3910 n         1 T04     -0.549900
     10 CAU         3.4020    0.9720   -4.5200 c         1 T04      0.668700
     11 OBC         2.7380   -0.0580   -4.7130 o         1 T04     -0.567100
     12 CAT         3.3930    2.1470   -5.4660 ca        1 T04     -0.166600
     13 CAQ         3.0100    3.3730   -4.9200 ca        1 T04     -0.077000
     14 CAS         3.8630    2.1080   -6.7930 ca        1 T04      0.213900
     15 CAR         4.0030    3.3180   -7.5150 ca        1 T04     -0.176000
     16 CAP         3.7280    4.5370   -6.9080 ca        1 T04     -0.065000
     17 CAO         3.2410    4.5710   -5.5960 ca        1 T04     -0.198300
     18 CAN         2.9930    5.8510   -4.8740 c3        1 T04      0.188100
     19 NAY         3.7760    5.9030   -3.5870 n4        1 T04     -0.653400
     20 CAA         3.6110    7.1870   -2.9100 ca        1 T04     -0.025400
     21 CAC         4.3020    8.3230   -3.3720 ca        1 T04     -0.100000
     22 CAE         4.1440    9.5320   -2.7090 ca        1 T04     -0.098500
     23 CAB         2.7750    7.2710   -1.7850 ca        1 T04     -0.100000
     24 CAG         2.6250    8.4960   -1.1360 ca        1 T04     -0.098500
     25 CAF         3.2980    9.6390   -1.5880 ca        1 T04     -0.032800
     26 CAH         3.1710   10.9310   -0.9440 ce        1 T04     -0.026200
     27 CAI         2.2210   11.3090   -0.0710 cd        1 T04     -0.118600
     28 SBG         0.8900   10.4710    0.5670 ss        1 T04     -0.069200
     29 CAL         0.3040   11.8120    1.5490 c         1 T04      0.344000
     30 SBH        -0.9560   11.6770    2.4200 s         1 T04     -0.231400
     31 NAX         1.1500   12.8970    1.3720 n         1 T04     -0.548500
     32 CAK         2.2340   12.6980    0.4910 c         1 T04      0.694700
     33 FAS         4.2040    0.9470   -7.3830 f         1 T04     -0.098900
     34 OBE         3.0600   13.5820    0.2420 o         1 T04     -0.555500
     35 CA          4.4190    0.3640   -2.2890 c3        1 T04     -0.062300
     36 HG1         2.1040    1.8880   -0.0630 hc        1 T04      0.084700
     37 HB1         3.0960   -0.2590   -0.6910 hc        1 T04      0.063700
     38 HG2         1.7730    1.4860   -1.7990 hc        1 T04      0.084700
     39 HB2         4.3580    0.9330   -0.1920 hc        1 T04      0.063700
     40 H           4.9930    2.8120   -1.3230 ho        1 T04      0.533000
     41 HA          4.2110   -0.6980   -2.6000 h1        1 T04      0.092700
     42 HAX         1.0080   13.7640    1.8400 hn        1 T04      0.365500
     43 HAQ         2.5350    3.3820   -3.9210 ha        1 T04      0.168000
     44 HAR         4.3580    3.2780   -8.5560 ha        1 T04      0.165000
     45 HAP         3.8930    5.4710   -7.4660 ha        1 T04      0.141000
     46 HAN1        3.2930    6.7390   -5.4990 hx        1 T04      0.099200
     47 HAN2        1.9020    5.9460   -4.5990 hx        1 T04      0.099200
     48 HAY         3.4560    5.1370   -2.9460 hn        1 T04      0.481800
     49 HAC         4.9710    8.2650   -4.2450 ha        1 T04      0.173000
     50 HAB         2.2460    6.3750   -1.4030 ha        1 T04      0.173000
     51 HAE         4.6910   10.4210   -3.0670 ha        1 T04      0.164000
     52 HAG         1.9770    8.5400   -0.2410 ha        1 T04      0.164000
     53 HAH         3.9460   11.6780   -1.2220 ha        1 T04      0.168000
     54 H2          4.8140    1.9910   -3.4680 hn        1 T04      0.314500
     55 HAY2        4.7700    5.7460   -3.7840 hn        1 T04      0.481800
@<TRIPOS>BOND
     1    1    2 1   
     2    1   40 1   
     3    2    3 2   
     4    2    4 1   
     5    4    5 1   
     6    4   36 1   
     7    4   38 1   
     8    5   35 1   
     9    5   37 1   
    10    5   39 1   
    11    6    7 1   
    12    6    8 1   
    13    6   35 1   
    14    9   10 1   
    15    9   35 1   
    16    9   54 1   
    17   10   11 2   
    18   10   12 1   
    19   12   13 ar  
    20   12   14 ar  
    21   13   17 ar  
    22   13   43 1   
    23   14   15 ar  
    24   14   33 1   
    25   15   16 ar  
    26   15   44 1   
    27   16   17 ar  
    28   16   45 1   
    29   17   18 1   
    30   18   19 1   
    31   18   46 1   
    32   18   47 1   
    33   19   20 1   
    34   19   48 1   
    35   19   55 1   
    36   20   21 ar  
    37   20   23 ar  
    38   21   22 ar  
    39   21   49 1   
    40   22   25 ar  
    41   22   51 1   
    42   23   24 ar  
    43   23   50 1   
    44   24   25 ar  
    45   24   52 1   
    46   25   26 1   
    47   26   27 2   
    48   26   53 1   
    49   27   28 1   
    50   27   32 1   
    51   28   29 1   
    52   29   30 2   
    53   29   31 1   
    54   31   32 1   
    55   31   42 1   
    56   32   34 2   
    57   35   41 1   
@<TRIPOS>SUBSTRUCTURE
     1 T04         1 TEMP              0 ****  ****    0 ROOT
