@<TRIPOS>MOLECULE
T04
   54    56     1     0     0
SMALL
bcc


@<TRIPOS>ATOM
      1 OE1         3.9410    3.9340   -1.4510 o         1 T04     -0.621000
      2 CD          4.5000    2.8230   -1.3550 c         1 T04      0.655100
      3 OE2         5.8130    2.8740   -1.6540 oh        1 T04     -0.602100
      4 CG          3.7820    1.5780   -0.9260 c3        1 T04     -0.161400
      5 CB          4.4890    0.2700   -1.1810 c3        1 T04     -0.092400
      6 C           6.3180   -0.4340   -2.7340 c         1 T04      0.911600
      7 O           6.6330   -1.6250   -2.9470 o         1 T04     -0.813300
      8 OXT         7.1230    0.5290   -2.5510 o         1 T04     -0.813300
      9 N           4.4620    0.9630   -3.5920 ns        1 T04     -0.538900
     10 CAU         3.3010    1.0140   -4.3180 c         1 T04      0.667700
     11 OBC         2.3800    0.1780   -4.2210 o         1 T04     -0.612100
     12 CAT         3.1570    2.2270   -5.1930 ca        1 T04     -0.160600
     13 CAQ         2.9580    3.4610   -4.5690 ca        1 T04     -0.077000
     14 CAS         3.2050    2.1600   -6.5980 ca        1 T04      0.171900
     15 CAR         3.0710    3.3420   -7.3560 ca        1 T04     -0.180000
     16 CAP         2.8990    4.5620   -6.7150 ca        1 T04     -0.091000
     17 CAO         2.8380    4.6320   -5.3180 ca        1 T04     -0.121300
     18 CAN         2.6130    5.9600   -4.6560 c3        1 T04      0.259100
     19 NAY         3.4190    6.1800   -3.4820 nu        1 T04     -0.743600
     20 CAA         3.1440    7.2230   -2.6270 ca        1 T04      0.238600
     21 CAC         3.7130    7.2290   -1.3160 ca        1 T04     -0.222000
     22 CAE         3.5290    8.3060   -0.4780 ca        1 T04     -0.037000
     23 CAB         2.3600    8.3430   -3.0130 ca        1 T04     -0.222000
     24 CAG         2.1870    9.4140   -2.1520 ca        1 T04     -0.037000
     25 CAF         2.7670    9.4310   -0.8730 ca        1 T04     -0.195800
     26 CAH         2.6220   10.5170    0.0510 ce        1 T04      0.091800
     27 CAI         1.9560   11.6810   -0.1220 cd        1 T04     -0.226600
     28 SBG         1.0720   12.2610   -1.4630 ss        1 T04     -0.026200
     29 CAL         0.6370   13.7710   -0.7200 c         1 T04      0.359000
     30 SBH        -0.2260   14.8490   -1.4440 s         1 T04     -0.384400
     31 NAX         1.1690   13.8290    0.5580 ns        1 T04     -0.550500
     32 CAK         1.9190   12.6950    0.9580 c         1 T04      0.705700
     33 FAS         3.3860    0.9840   -7.2380 f         1 T04     -0.123900
     34 OBE         2.4440   12.6300    2.0780 o         1 T04     -0.593500
     35 CA          4.7830   -0.0860   -2.6530 c3        1 T04     -0.054300
     36 HG1         2.7810    1.5770   -1.4380 hc        1 T04      0.071200
     37 HB1         3.8550   -0.5510   -0.7520 hc        1 T04      0.053700
     38 HG2         3.5920    1.6840    0.1780 hc        1 T04      0.071200
     39 HB2         5.4610    0.2640   -0.6150 hc        1 T04      0.053700
     40 H           6.2280    1.9790   -1.6950 ho        1 T04      0.504000
     41 HA          4.1910   -1.0060   -2.9270 h1        1 T04      0.083700
     42 HAX         1.0360   14.6120    1.1550 hn        1 T04      0.352500
     43 HAQ         2.9040    3.4870   -3.4640 ha        1 T04      0.169000
     44 HAR         3.1130    3.2840   -8.4520 ha        1 T04      0.145000
     45 HAP         2.8120    5.4810   -7.3150 ha        1 T04      0.132000
     46 HAN1        1.5120    6.0370   -4.3970 h1        1 T04      0.044700
     47 HAN2        2.8400    6.7870   -5.3930 h1        1 T04      0.044700
     48 HAY         3.8750    5.3810   -3.0810 hn        1 T04      0.468800
     49 HAC         4.2890    6.3490   -0.9770 ha        1 T04      0.154500
     50 HAB         1.8870    8.3710   -4.0050 ha        1 T04      0.154500
     51 HAE         3.9800    8.2900    0.5270 ha        1 T04      0.130500
     52 HAG         1.5740   10.2650   -2.4960 ha        1 T04      0.130500
     53 HAH         3.1280   10.3760    1.0320 ha        1 T04      0.149000
     54 H2          5.2150    1.5760   -3.8220 hn        1 T04      0.331500
@<TRIPOS>BOND
     1    1    2 2   
     2    2    3 1   
     3    2    4 1   
     4    3   40 1   
     5    4    5 1   
     6    4   36 1   
     7    4   38 1   
     8    5   35 1   
     9    5   37 1   
    10    5   39 1   
    11    6    7 1   
    12    6    8 1   
    13    6   35 1   
    14    9   10 1   
    15    9   35 1   
    16    9   54 1   
    17   10   11 2   
    18   10   12 1   
    19   12   13 ar  
    20   12   14 ar  
    21   13   17 ar  
    22   13   43 1   
    23   14   15 ar  
    24   14   33 1   
    25   15   16 ar  
    26   15   44 1   
    27   16   17 ar  
    28   16   45 1   
    29   17   18 1   
    30   18   19 1   
    31   18   46 1   
    32   18   47 1   
    33   19   20 1   
    34   19   48 1   
    35   20   21 ar  
    36   20   23 ar  
    37   21   22 ar  
    38   21   49 1   
    39   22   25 ar  
    40   22   51 1   
    41   23   24 ar  
    42   23   50 1   
    43   24   25 ar  
    44   24   52 1   
    45   25   26 1   
    46   26   27 2   
    47   26   53 1   
    48   27   28 1   
    49   27   32 1   
    50   28   29 1   
    51   29   30 2   
    52   29   31 1   
    53   31   32 1   
    54   31   42 1   
    55   32   34 2   
    56   35   41 1   
@<TRIPOS>SUBSTRUCTURE
     1 T04         1 TEMP              0 ****  ****    0 ROOT
