@<TRIPOS>MOLECULE
T04
   53    55     1     0     0
SMALL
bcc


@<TRIPOS>ATOM
      1 OE1         2.0140    1.1190   -0.8250 o         1 T04     -0.881800
      2 CD          2.8300    1.8450   -0.1730 c         1 T04      0.889600
      3 OE2         2.5240    2.1650    1.0270 o         1 T04     -0.881800
      4 CG          4.1460    2.3240   -0.7550 c3        1 T04     -0.161400
      5 CB          4.6660    1.5130   -1.9190 c3        1 T04     -0.079400
      6 C           6.0280   -0.3500   -2.8580 c         1 T04      0.913600
      7 O           5.4060   -1.2680   -3.4570 o         1 T04     -0.845800
      8 OXT         7.1010    0.1720   -3.2770 o         1 T04     -0.845800
      9 N           4.6330   -0.6530   -0.7570 n         1 T04     -0.491900
     10 CAU         5.0060   -1.2670    0.3990 c         1 T04      0.668700
     11 OBC         6.1700   -1.3100    0.8600 o         1 T04     -0.652100
     12 CAT         3.8620   -1.8750    1.1740 ca        1 T04     -0.151600
     13 CAQ         2.8690   -0.9940    1.6070 ca        1 T04     -0.064000
     14 CAS         3.7350   -3.2440    1.4680 ca        1 T04      0.165900
     15 CAR         2.5970   -3.7080    2.1640 ca        1 T04     -0.204000
     16 CAP         1.5930   -2.8190    2.5360 ca        1 T04     -0.102000
     17 CAO         1.7220   -1.4580    2.2560 ca        1 T04     -0.149300
     18 CAN         0.6480   -0.4630    2.6020 c3        1 T04      0.260100
     19 NAY         0.2190    0.3290    1.4770 nh        1 T04     -0.705600
     20 CAA        -0.9400    0.1540    0.8020 ca        1 T04      0.284600
     21 CAC        -1.1090    0.8150   -0.4710 ca        1 T04     -0.245500
     22 CAE        -2.3110    0.7860   -1.1210 ca        1 T04     -0.021000
     23 CAB        -2.0600   -0.5880    1.2980 ca        1 T04     -0.245500
     24 CAG        -3.2600   -0.5920    0.6260 ca        1 T04     -0.021000
     25 CAF        -3.4440    0.1060   -0.5870 ca        1 T04     -0.252800
     26 CAH        -4.6690    0.1570   -1.2930 ce        1 T04      0.138800
     27 CAI        -5.8770   -0.3740   -0.9460 cd        1 T04     -0.300600
     28 SBG        -6.3120   -1.2740    0.4390 ss        1 T04      0.012800
     29 CAL        -7.9640   -1.4560   -0.0180 c         1 T04      0.366000
     30 SBH        -9.0260   -2.2280    0.8560 s         1 T04     -0.491400
     31 NAX        -8.1900   -0.8350   -1.2320 n         1 T04     -0.549500
     32 CAK        -7.0510   -0.2050   -1.8090 c         1 T04      0.710700
     33 FAS         4.6760   -4.1410    1.0920 f         1 T04     -0.134900
     34 OBE        -7.1420    0.3870   -2.8960 o         1 T04     -0.624500
     35 CA          5.4590    0.2530   -1.5260 c3        1 T04     -0.020300
     36 HG1         3.9840    3.3830   -1.0890 hc        1 T04      0.029700
     37 HB1         3.8050    1.2150   -2.5750 hc        1 T04      0.052700
     38 HG2         4.9050    2.3460    0.0700 hc        1 T04      0.029700
     39 HB2         5.3670    2.1400   -2.5310 hc        1 T04      0.052700
     40 H           3.6800   -0.7060   -1.0500 hn        1 T04      0.334500
     41 HA          6.3430    0.5440   -0.8890 h1        1 T04      0.059700
     42 HAX        -9.0790   -0.8310   -1.6710 hn        1 T04      0.342500
     43 HAQ         2.9890    0.0930    1.4100 ha        1 T04      0.212000
     44 HAR         2.5070   -4.7790    2.3870 ha        1 T04      0.126000
     45 HAP         0.6950   -3.1980    3.0450 ha        1 T04      0.114000
     46 HAN1       -0.2200   -0.9930    3.0820 h1        1 T04      0.052200
     47 HAN2        1.0760    0.2630    3.3580 h1        1 T04      0.052200
     48 HAY         0.9620    0.8710    1.0100 hn        1 T04      0.534800
     49 HAC        -0.2210    1.3120   -0.9180 ha        1 T04      0.169000
     50 HAB        -1.9730   -1.1640    2.2290 ha        1 T04      0.169000
     51 HAE        -2.4120    1.2950   -2.0940 ha        1 T04      0.120000
     52 HAG        -4.0990   -1.1700    1.0550 ha        1 T04      0.120000
     53 HAH        -4.6460    0.7120   -2.2570 ha        1 T04      0.142000
@<TRIPOS>BOND
     1    1    2 1   
     2    2    3 1   
     3    2    4 1   
     4    4    5 1   
     5    4   36 1   
     6    4   38 1   
     7    5   35 1   
     8    5   37 1   
     9    5   39 1   
    10    6    7 1   
    11    6    8 1   
    12    6   35 1   
    13    9   10 1   
    14    9   35 1   
    15    9   40 1   
    16   10   11 2   
    17   10   12 1   
    18   12   13 ar  
    19   12   14 ar  
    20   13   17 ar  
    21   13   43 1   
    22   14   15 ar  
    23   14   33 1   
    24   15   16 ar  
    25   15   44 1   
    26   16   17 ar  
    27   16   45 1   
    28   17   18 1   
    29   18   19 1   
    30   18   46 1   
    31   18   47 1   
    32   19   20 1   
    33   19   48 1   
    34   20   21 ar  
    35   20   23 ar  
    36   21   22 ar  
    37   21   49 1   
    38   22   25 ar  
    39   22   51 1   
    40   23   24 ar  
    41   23   50 1   
    42   24   25 ar  
    43   24   52 1   
    44   25   26 1   
    45   26   27 2   
    46   26   53 1   
    47   27   28 1   
    48   27   32 1   
    49   28   29 1   
    50   29   30 2   
    51   29   31 1   
    52   31   32 1   
    53   31   42 1   
    54   32   34 2   
    55   35   41 1   
@<TRIPOS>SUBSTRUCTURE
     1 T04         1 TEMP              0 ****  ****    0 ROOT
