@<TRIPOS>MOLECULE
T05
   59    57     1     0     0
SMALL
bcc


@<TRIPOS>ATOM
      1 C4         -1.3160    1.2980    2.2450 ca        1 T05     -0.181000
      2 C13        -2.8600   -4.2080    3.4720 ca        1 T05     -0.150000
      3 C3         -0.1680    1.7280    1.5850 ca        1 T05     -0.019000
      4 C5         -1.3170    0.1020    2.9610 ca        1 T05     -0.060000
      5 C12        -2.2980   -5.1220    2.5950 ca        1 T05     -0.017000
      6 C7          1.0160   -0.2500    2.3420 ca        1 T05     -0.077000
      7 C10        -0.2900   -3.7920    2.4770 ca        1 T05     -0.018000
      8 C14        -2.1250   -3.1030    3.9270 ca        1 T05     -0.018000
      9 C2          1.0180    0.9660    1.6250 ca        1 T05     -0.206000
     10 C6         -0.1420   -0.6670    2.9990 ca        1 T05      0.006000
     11 C9         -0.8590   -2.8740    3.3620 ca        1 T05      0.011000
     12 C11        -0.9780   -4.9660    2.1360 ca        1 T05     -0.896000
     13 C28        -1.2050   -5.8770    6.8800 c2        1 T05      0.047000
     14 C29        -1.7180   -5.9480    8.1390 c2        1 T05     -0.213000
     15 C30        -1.7980   -7.2370    8.8420 c2        1 T05      0.353000
     16 C33        -0.8000   -8.3020    6.8430 c2        1 T05      0.396000
     17 C23         2.8230   -7.8360    3.2600 c1        1 T05     -0.216000
     18 C24         3.6230   -8.3930    4.1130 c2        1 T05     -0.127000
     19 C22         2.0260   -7.2840    2.3770 c2        1 T05      0.016000
     20 C26         0.1820   -6.9260    3.8350 c1        1 T05     -0.034000
     21 C25        -0.2050   -6.9310    4.9750 c1        1 T05     -0.064000
     22 C1          2.1620    1.4690    0.9500 c1        1 T05     -0.085000
     23 C35        -2.2200   -4.7540    8.8500 c3        1 T05     -0.174000
     24 N32        -1.3300   -8.3630    8.1380 ns        1 T05     -0.371000
     25 N27        -0.7270   -7.0160    6.2150 n         1 T05     -0.121000
     26 N21         0.7020   -6.8560    2.6000 n3        1 T05     -0.584000
     27 O16        -2.3920   -2.7980    6.2440 o         1 T05     -0.540500
     28 O17        -3.3630   -1.2840    4.8970 o         1 T05     -0.540500
     29 O8         -0.0550   -1.8130    3.7960 os        1 T05     -0.160000
     30 S18        -0.2130   -6.1850    1.3380 s6        1 T05      2.868000
     31 H1         -2.2330    1.9060    2.2130 ha        1 T05      0.139000
     32 H2         -3.8810   -4.3570    3.8560 ha        1 T05      0.154000
     33 H3         -0.1670    2.6750    1.0210 ha        1 T05      0.143000
     34 H4         -2.2190   -0.2470    3.5090 ha        1 T05      0.220000
     35 H5         -2.8730   -6.0080    2.2710 ha        1 T05      0.149000
     36 H6          1.9290   -0.8620    2.3990 ha        1 T05      0.141000
     37 H7          0.7200   -3.6080    2.0730 ha        1 T05      0.149000
     38 H8         -1.1560   -4.9100    6.3220 h4        1 T05      0.230000
     39 H9          2.1450   -1.0910    4.7610 ha        1 T05      0.002125
     40 H10        -0.0950   -2.8200    5.9840 ha        1 T05      0.002125
     41 H11         4.3170   -7.8090    4.7370 ha        1 T05      0.124500
     42 H12         0.5240   -3.0890    6.0600 ha        1 T05      0.002125
     43 H13         2.3630   -7.1080    1.3320 h4        1 T05      0.177000
     44 H14         1.8270   -1.4430    5.2450 ha        1 T05      0.002125
     45 H15         1.4450  -10.5840    5.5610 ha        1 T05      0.002125
     46 H16         2.0870  -10.7820    5.4760 ha        1 T05      0.002125
     47 H17         3.6470   -9.4830    4.2690 ha        1 T05      0.124500
     48 H18         2.0110    0.3360   -1.1320 ha        1 T05      0.002125
     49 H19         1.8020    0.9710   -1.2570 ha        1 T05      0.002125
     50 H20         3.0700    0.8470    1.0250 ha        1 T05      0.025000
     51 H21        -3.1950   -4.9890    9.3460 hc        1 T05      0.106333
     52 H22        -2.3660   -3.8940    8.1440 hc        1 T05      0.106333
     53 H23        -1.4920   -4.4510    9.6440 hc        1 T05      0.106333
     54 H24        -1.3730   -9.2650    8.5610 hn        1 T05      0.256000
     55 O31        -2.2420   -7.4190    9.9900 o         1 T05     -0.350000
     56 C15        -2.6720   -2.3110    5.1140 c2        1 T05      0.375000
     57 O19        -1.1270   -7.1350    0.8570 o         1 T05     -0.932000
     58 O34        -0.3960   -9.3380    6.2770 o         1 T05     -0.356000
     59 O20         0.7000   -5.7050    0.3780 o         1 T05     -0.932000
@<TRIPOS>BOND
     1    1    3 1   
     2    1    4 1   
     3    1   31 1   
     4    2    5 1   
     5    2    8 1   
     6    2   32 1   
     7    3    9 1   
     8    3   33 1   
     9    4   10 1   
    10    4   34 1   
    11    5   12 1   
    12    5   35 1   
    13    6    9 1   
    14    6   10 1   
    15    6   36 1   
    16    7   11 1   
    17    7   12 1   
    18    7   37 1   
    19    8   11 1   
    20    8   56 1   
    21    9   22 1   
    22   10   29 1   
    23   11   29 1   
    24   12   30 1   
    25   13   14 1   
    26   13   25 1   
    27   13   38 1   
    28   14   15 1   
    29   14   23 1   
    30   15   24 1   
    31   15   55 1   
    32   16   24 1   
    33   16   25 1   
    34   16   58 1   
    35   17   18 1   
    36   17   19 1   
    37   18   41 1   
    38   18   47 1   
    39   19   26 1   
    40   19   43 1   
    41   20   21 1   
    42   20   26 1   
    43   21   25 1   
    44   22   50 1   
    45   23   51 1   
    46   23   52 1   
    47   23   53 1   
    48   24   54 1   
    49   26   30 1   
    50   27   56 1   
    51   28   56 1   
    52   30   57 1   
    53   30   59 1   
    54   39   44 1   
    55   40   42 1   
    56   45   46 1   
    57   48   49 1   
@<TRIPOS>SUBSTRUCTURE
     1 T05         1 TEMP              0 ****  ****    0 ROOT
