@<TRIPOS>MOLECULE
T05
   59    57     1     0     0
SMALL
bcc


@<TRIPOS>ATOM
      1 C4         -0.3150   -0.7610   -0.1990 ca        1 T05     -0.190000
      2 C13        -1.4500   -2.0460    6.3230 ca        1 T05     -0.144000
      3 C3          1.0270   -0.4470   -0.0110 ca        1 T05     -0.027000
      4 C5         -1.2060   -0.7100    0.8740 ca        1 T05     -0.082000
      5 C12        -2.1240   -3.2020    5.9670 ca        1 T05     -0.028000
      6 C7          0.6110   -0.0010    2.3410 ca        1 T05     -0.057000
      7 C10        -2.3770   -2.3790    3.7190 ca        1 T05     -0.034000
      8 C14        -1.2030   -1.0320    5.3850 ca        1 T05      0.005000
      9 C2          1.5080   -0.0600    1.2580 ca        1 T05     -0.199000
     10 C6         -0.7340   -0.3300    2.1360 ca        1 T05      0.000000
     11 C9         -1.7080   -1.2100    4.0850 ca        1 T05      0.021000
     12 C11        -2.5830   -3.4070    4.6520 ca        1 T05     -0.918000
     13 C28        -1.5460   -7.4380    6.4160 c2        1 T05      0.032000
     14 C29        -1.8760   -8.5020    7.2000 c2        1 T05     -0.221000
     15 C30        -0.9060   -9.5870    7.4210 c2        1 T05      0.355000
     16 C33         0.6880   -8.3170    6.0240 c2        1 T05      0.402000
     17 C23         4.2860   -6.3140    2.7690 c1        1 T05      0.143000
     18 C24         3.6320   -6.0330    3.8610 c2        1 T05     -0.563000
     19 C22        -2.5470   -6.8400    3.1250 c1        1 T05     -0.146000
     20 C26        -0.7310   -5.5490    4.1040 c2        1 T05     -0.135000
     21 C25         0.0470   -6.2260    4.9790 c2        1 T05     -0.030000
     22 C1          2.8920    0.2640    1.3770 c1        1 T05     -0.084000
     23 C35        -3.1900   -8.6160    7.8640 c3        1 T05     -0.159000
     24 N32         0.3550   -9.4210    6.8170 n         1 T05     -0.364000
     25 N27        -0.3100   -7.3260    5.7840 n         1 T05     -0.222000
     26 N21        -2.0790   -5.8050    3.7730 n3        1 T05     -0.560000
     27 O16        -0.9300    1.0040    6.5970 o         1 T05     -0.534000
     28 O17         0.8130    0.2280    5.4160 o         1 T05     -0.534000
     29 O8         -1.6630   -0.1550    3.1660 os        1 T05     -0.158000
     30 S18        -3.3980   -4.7760    4.2350 s6        1 T05      2.868000
     31 H1         -0.6800   -1.0540   -1.1940 ha        1 T05      0.129000
     32 H2         -1.0990   -1.8970    7.3570 ha        1 T05      0.156000
     33 H3          1.7360   -0.4910   -0.8530 ha        1 T05      0.144000
     34 H4         -2.2710   -0.9520    0.7370 ha        1 T05      0.142000
     35 H5         -2.3220   -3.9810    6.7240 ha        1 T05      0.133000
     36 H6          0.9500    0.2960    3.3590 ha        1 T05      0.224000
     37 H7         -2.7600   -2.4870    2.6890 ha        1 T05      0.149000
     38 H8         -2.2640   -6.6030    6.2630 h4        1 T05      0.201000
     39 H9          4.1380   -4.1180    1.9000 ha        1 T05      0.005667
     40 H10         2.1820   -3.3330    2.9350 ha        1 T05      0.005667
     41 H11         3.3560   -5.0220    4.1960 ha        1 T05      0.201500
     42 H12         1.7480   -3.7560    3.2390 ha        1 T05      0.005667
     43 H13        -1.8770   -7.6350    2.7530 ha        1 T05      0.075000
     44 H14         4.6620   -4.3720    1.5500 ha        1 T05      0.005667
     45 H15        -0.2840   -4.6760    3.5820 h4        1 T05      0.178000
     46 H16         1.1200   -5.9480    5.0740 h4        1 T05      0.182000
     47 H17         3.2900   -6.8260    4.5550 ha        1 T05      0.201500
     48 H18         3.8840   -1.7740    1.7000 ha        1 T05      0.005667
     49 H19         3.6390   -1.7480    2.3350 ha        1 T05      0.005667
     50 H20         3.2120    0.6440    2.3610 ha        1 T05      0.049000
     51 H21        -3.6160   -9.6360    7.6910 hc        1 T05      0.096000
     52 H22        -3.9060   -7.8500    7.4730 hc        1 T05      0.096000
     53 H23        -3.0740   -8.4720    8.9680 hc        1 T05      0.096000
     54 H24         1.0630  -10.1110    6.9490 hn        1 T05      0.263000
     55 O31        -1.1060  -10.6150    8.0900 o         1 T05     -0.339000
     56 C15        -0.3790    0.1820    5.8280 c2        1 T05      0.370000
     57 O19        -3.9580   -5.3760    5.3810 o         1 T05     -0.918500
     58 O34         1.8370   -8.2130    5.5400 o         1 T05     -0.381000
     59 O20        -4.2380   -4.5270    3.1460 o         1 T05     -0.918500
@<TRIPOS>BOND
     1    1    3 1   
     2    1    4 1   
     3    1   31 1   
     4    2    5 1   
     5    2    8 1   
     6    2   32 1   
     7    3    9 1   
     8    3   33 1   
     9    4   10 1   
    10    4   34 1   
    11    5   12 1   
    12    5   35 1   
    13    6    9 1   
    14    6   10 1   
    15    6   36 1   
    16    7   11 1   
    17    7   12 1   
    18    7   37 1   
    19    8   11 1   
    20    8   56 1   
    21    9   22 1   
    22   10   29 1   
    23   11   29 1   
    24   12   30 1   
    25   13   14 1   
    26   13   25 1   
    27   13   38 1   
    28   14   15 1   
    29   14   23 1   
    30   15   24 1   
    31   15   55 1   
    32   16   24 1   
    33   16   25 1   
    34   16   58 1   
    35   17   18 1   
    36   18   41 1   
    37   18   47 1   
    38   19   26 1   
    39   19   43 1   
    40   20   21 1   
    41   20   26 1   
    42   20   45 1   
    43   21   25 1   
    44   21   46 1   
    45   22   50 1   
    46   23   51 1   
    47   23   52 1   
    48   23   53 1   
    49   24   54 1   
    50   26   30 1   
    51   27   56 1   
    52   28   56 1   
    53   30   57 1   
    54   30   59 1   
    55   39   44 1   
    56   40   42 1   
    57   48   49 1   
@<TRIPOS>SUBSTRUCTURE
     1 T05         1 TEMP              0 ****  ****    0 ROOT
