@<TRIPOS>MOLECULE
T05
   59    62     1     0     0
SMALL
bcc


@<TRIPOS>ATOM
      1 C4         -5.5430   -1.2280    1.3570 ca        1 T05     -0.123000
      2 C13        -0.4610   -1.4920   -1.5450 ca        1 T05     -0.149000
      3 C3         -6.2150   -0.0760    1.7620 ca        1 T05     -0.148000
      4 C5         -4.1580   -1.2260    1.2040 ca        1 T05     -0.134000
      5 C12        -0.2220   -0.3450   -2.2860 ca        1 T05     -0.038000
      6 C7         -4.1190    1.1240    1.8720 ca        1 T05     -0.144000
      7 C10        -1.2630    0.9900   -0.5740 ca        1 T05     -0.038000
      8 C14        -1.0390   -1.4190   -0.2690 ca        1 T05     -0.052600
      9 C2         -5.5100    1.1040    2.0250 ca        1 T05     -0.087300
     10 C6         -3.4580   -0.0420    1.4660 ca        1 T05      0.100100
     11 C9         -1.5020   -0.1690    0.1720 ca        1 T05      0.063100
     12 C11        -0.5490    0.9220   -1.7750 ca        1 T05     -0.431500
     13 C28         2.8770   -1.3290    0.7140 cc        1 T05      0.040600
     14 C29         3.7530   -2.3470    0.9580 cd        1 T05     -0.257400
     15 C30         5.1990   -2.1260    0.8270 c         1 T05      0.713700
     16 C33         4.6830    0.2100    0.2030 c         1 T05      0.800500
     17 C23         1.4150    3.2150    0.8730 c3        1 T05     -0.098400
     18 C24         2.4840    2.1720    1.1220 c3        1 T05     -0.096400
     19 C22         1.4140    3.6810   -0.5860 c3        1 T05      0.213800
     20 C26         2.3780    1.5950   -1.3210 c3        1 T05      0.206800
     21 C25         2.3290    1.0080    0.1290 c3        1 T05      0.094700
     22 C1         -6.2260    2.3310    2.4430 c3        1 T05     -0.045800
     23 C35         3.2960   -3.6930    1.3580 c3        1 T05     -0.043900
     24 N32         5.5930   -0.8290    0.4470 n         1 T05     -0.591500
     25 N27         3.3000   -0.0600    0.3270 n         1 T05     -0.363000
     26 N21         1.3650    2.5950   -1.5320 n3        1 T05     -0.787500
     27 O16         0.1270   -2.8240    1.2150 o         1 T05     -0.808300
     28 O17        -1.9600   -3.4380    0.6630 o         1 T05     -0.808300
     29 O8         -2.0600   -0.0060    1.4450 os        1 T05     -0.260200
     30 S18         0.0540    2.3060   -2.4840 sy        1 T05      1.509200
     31 H1         -6.1060   -2.1510    1.1590 ha        1 T05      0.130000
     32 H2         -0.1660   -2.4800   -1.9330 ha        1 T05      0.151000
     33 H3         -7.3080   -0.0920    1.8790 ha        1 T05      0.118000
     34 H4         -3.6030   -2.1380    0.8990 ha        1 T05      0.212000
     35 H5          0.2630   -0.4110   -3.2760 ha        1 T05      0.147000
     36 H6         -3.5440    2.0370    2.0780 ha        1 T05      0.135000
     37 H7         -1.6100    1.9650   -0.1920 ha        1 T05      0.146000
     38 H8          1.7720   -1.4980    0.8180 h4        1 T05      0.239000
     39 H9          0.4080    2.7970    1.1400 hc        1 T05      0.049200
     40 H10         1.5990    4.1040    1.5300 hc        1 T05      0.049200
     41 H11         3.5000    2.6320    1.0000 hc        1 T05      0.061700
     42 H12         2.3980    1.7910    2.1720 hc        1 T05      0.061700
     43 H13         0.5310    4.3610   -0.7590 h1        1 T05      0.059700
     44 H14         2.3560    4.2750   -0.7720 h1        1 T05      0.059700
     45 H15         3.3960    2.0520   -1.4890 h1        1 T05      0.071700
     46 H16         2.2280    0.7640   -2.0690 h1        1 T05      0.071700
     47 H17         1.3030    0.5460    0.2850 h1        1 T05      0.091700
     48 H18        -5.6040    2.9340    3.1500 hc        1 T05      0.036033
     49 H19        -6.4510    2.9660    1.5490 hc        1 T05      0.036033
     50 H20        -7.1910    2.0800    2.9470 hc        1 T05      0.036033
     51 H21         3.6540   -4.4520    0.6180 hc        1 T05      0.061033
     52 H22         3.7230   -3.9580    2.3570 hc        1 T05      0.061033
     53 H23         2.1760   -3.7370    1.4150 hc        1 T05      0.061033
     54 H24         6.5600   -0.6150    0.3430 hn        1 T05      0.338500
     55 O31         6.0930   -2.9700    1.0210 o         1 T05     -0.639500
     56 C15        -0.9740   -2.6620    0.6160 c         1 T05      0.927200
     57 O19         0.4700    2.0200   -3.8040 o         1 T05     -0.664800
     58 O34         5.1240    1.3400   -0.1220 o         1 T05     -0.678500
     59 O20        -0.8560    3.3840   -2.3620 o         1 T05     -0.664800
@<TRIPOS>BOND
     1    1    3 ar  
     2    1    4 ar  
     3    1   31 1   
     4    2    5 ar  
     5    2    8 ar  
     6    2   32 1   
     7    3    9 ar  
     8    3   33 1   
     9    4   10 ar  
    10    4   34 1   
    11    5   12 ar  
    12    5   35 1   
    13    6    9 ar  
    14    6   10 ar  
    15    6   36 1   
    16    7   11 ar  
    17    7   12 ar  
    18    7   37 1   
    19    8   11 ar  
    20    8   56 1   
    21    9   22 1   
    22   10   29 1   
    23   11   29 1   
    24   12   30 1   
    25   13   14 2   
    26   13   25 1   
    27   13   38 1   
    28   14   15 1   
    29   14   23 1   
    30   15   24 1   
    31   15   55 2   
    32   16   24 1   
    33   16   25 1   
    34   16   58 2   
    35   17   18 1   
    36   17   19 1   
    37   17   39 1   
    38   17   40 1   
    39   18   21 1   
    40   18   41 1   
    41   18   42 1   
    42   19   26 1   
    43   19   43 1   
    44   19   44 1   
    45   20   21 1   
    46   20   26 1   
    47   20   45 1   
    48   20   46 1   
    49   21   25 1   
    50   21   47 1   
    51   22   48 1   
    52   22   49 1   
    53   22   50 1   
    54   23   51 1   
    55   23   52 1   
    56   23   53 1   
    57   24   54 1   
    58   26   30 1   
    59   27   56 1   
    60   28   56 1   
    61   30   57 2   
    62   30   59 2   
@<TRIPOS>SUBSTRUCTURE
     1 T05         1 TEMP              0 ****  ****    0 ROOT
