@<TRIPOS>MOLECULE
T05
   59    57     1     0     0
SMALL
bcc


@<TRIPOS>ATOM
      1 C4         -0.9510    1.7810    1.1480 ca        1 T05     -0.181000
      2 C13        -1.7230   -2.2600    5.4730 ca        1 T05     -0.144000
      3 C3         -0.2300    1.6500   -0.0370 ca        1 T05     -0.020000
      4 C5         -0.6560    0.9800    2.2500 ca        1 T05     -0.060000
      5 C12        -1.8960   -3.4810    4.8420 ca        1 T05     -0.012000
      6 C7          1.1080   -0.1090    0.9650 ca        1 T05     -0.081000
      7 C10        -0.3600   -2.8150    3.1110 ca        1 T05     -0.021000
      8 C14        -0.8720   -1.2800    4.9400 ca        1 T05      0.007000
      9 C2          0.8140    0.7080   -0.1480 ca        1 T05     -0.206000
     10 C6          0.3760    0.0320    2.1430 ca        1 T05      0.006000
     11 C9         -0.1880   -1.5880    3.7510 ca        1 T05      0.014000
     12 C11        -1.2260   -3.7850    3.6420 ca        1 T05     -0.911000
     13 C28        -2.1900   -9.1590    6.7480 c2        1 T05      0.056000
     14 C29        -2.5610   -9.8450    7.8640 c2        1 T05     -0.240000
     15 C30        -1.8040   -9.6820    9.1170 c2        1 T05      0.358000
     16 C33        -0.3050   -8.1140    7.9200 c2        1 T05      0.397000
     17 C23         1.9960   -7.0080    3.4320 c1        1 T05     -0.213000
     18 C24         3.0400   -7.5980    3.9210 c2        1 T05     -0.125000
     19 C22         0.9570   -6.3930    2.9210 c2        1 T05      0.013000
     20 C26        -0.5760   -6.9170    4.6550 c1        1 T05      0.011000
     21 C25        -0.7990   -7.6050    5.6170 c1        1 T05     -0.114000
     22 C1          1.5280    0.6390   -1.3740 c1        1 T05     -0.088000
     23 C35        -3.7140  -10.7660    7.8860 c3        1 T05     -0.150000
     24 N32        -0.7000   -8.8150    9.0710 n         1 T05     -0.368000
     25 N27        -1.0910   -8.3000    6.7340 n         1 T05     -0.110000
     26 N21        -0.3090   -6.2490    3.5270 n3        1 T05     -0.582000
     27 O16        -1.4920    0.9940    5.2480 o         1 T05     -0.532000
     28 O17         0.0350    0.1230    6.6430 o         1 T05     -0.532000
     29 O8          0.7870   -0.7170    3.2490 os        1 T05     -0.157000
     30 S18        -1.4780   -5.2030    2.8640 s6        1 T05      2.860000
     31 H1         -1.7550    2.5270    1.2250 ha        1 T05      0.138000
     32 H2         -2.2560   -2.0370    6.4120 ha        1 T05      0.155000
     33 H3         -0.4620    2.2840   -0.9070 ha        1 T05      0.142000
     34 H4         -1.2040    1.0870    3.2130 ha        1 T05      0.224000
     35 H5         -2.5830   -4.2310    5.2710 ha        1 T05      0.137000
     36 H6          1.9250   -0.8460    0.9140 ha        1 T05      0.141000
     37 H7          0.1780   -3.0190    2.1690 ha        1 T05      0.147000
     38 H8         -2.7390   -9.2390    5.7890 h4        1 T05      0.181000
     39 H9          3.4960   -1.4860    2.6130 ha        1 T05      0.002375
     40 H10         1.9210   -0.3670    5.3240 ha        1 T05      0.002375
     41 H11         3.7740   -7.0640    4.5450 ha        1 T05      0.126500
     42 H12         2.5390   -0.5010    5.0770 ha        1 T05      0.002375
     43 H13         1.0060   -5.9150    1.9170 h4        1 T05      0.182000
     44 H14         3.0860   -1.2300    3.0890 ha        1 T05      0.002375
     45 H15         2.9550   -6.7680    7.3800 ha        1 T05      0.002375
     46 H16         2.9500   -7.0340    6.7570 ha        1 T05      0.002375
     47 H17         3.2530   -8.6630    3.7470 ha        1 T05      0.126500
     48 H18         0.3990   -1.1370   -2.4860 ha        1 T05      0.002375
     49 H19         0.1620   -0.5660   -2.7680 ha        1 T05      0.002375
     50 H20         2.3470   -0.1000   -1.4050 ha        1 T05      0.023000
     51 H21        -3.3570  -11.8230    7.9850 hc        1 T05      0.088667
     52 H22        -4.3220  -10.6780    6.9530 hc        1 T05      0.088667
     53 H23        -4.3660  -10.5400    8.7680 hc        1 T05      0.088667
     54 H24        -0.1600   -8.6600    9.8960 hn        1 T05      0.266000
     55 O31        -2.0680  -10.2500   10.1910 o         1 T05     -0.345000
     56 C15        -0.7530    0.0620    5.6700 c2        1 T05      0.367000
     57 O19        -2.7440   -5.7400    3.1640 o         1 T05     -0.928000
     58 O34         0.7050   -7.3880    7.9320 o         1 T05     -0.316000
     59 O20        -1.1730   -5.0920    1.4900 o         1 T05     -0.928000
@<TRIPOS>BOND
     1    1    3 1   
     2    1    4 1   
     3    1   31 1   
     4    2    5 1   
     5    2    8 1   
     6    2   32 1   
     7    3    9 1   
     8    3   33 1   
     9    4   10 1   
    10    4   34 1   
    11    5   12 1   
    12    5   35 1   
    13    6    9 1   
    14    6   10 1   
    15    6   36 1   
    16    7   11 1   
    17    7   12 1   
    18    7   37 1   
    19    8   11 1   
    20    8   56 1   
    21    9   22 1   
    22   10   29 1   
    23   11   29 1   
    24   12   30 1   
    25   13   14 1   
    26   13   25 1   
    27   13   38 1   
    28   14   15 1   
    29   14   23 1   
    30   15   24 1   
    31   15   55 1   
    32   16   24 1   
    33   16   25 1   
    34   16   58 1   
    35   17   18 1   
    36   17   19 1   
    37   18   41 1   
    38   18   47 1   
    39   19   26 1   
    40   19   43 1   
    41   20   21 1   
    42   20   26 1   
    43   21   25 1   
    44   22   50 1   
    45   23   51 1   
    46   23   52 1   
    47   23   53 1   
    48   24   54 1   
    49   26   30 1   
    50   27   56 1   
    51   28   56 1   
    52   30   57 1   
    53   30   59 1   
    54   39   44 1   
    55   40   42 1   
    56   45   46 1   
    57   48   49 1   
@<TRIPOS>SUBSTRUCTURE
     1 T05         1 TEMP              0 ****  ****    0 ROOT
