@<TRIPOS>MOLECULE
T07
   24    25     1     0     0
SMALL
bcc


@<TRIPOS>ATOM
      1 S           1.2610    0.7250   -0.5420 ss        1 T07     -0.217400
      2 C1         -3.7960    0.4450   -0.0520 ca        1 T07      0.032400
      3 N1          3.9300    0.4620   -1.0000 na        1 T07     -0.416700
      4 C2         -1.7680   -0.8640    0.0060 ca        1 T07      0.041400
      5 N2          4.6870    0.2270    1.1180 nc        1 T07     -0.364000
      6 CL2        -5.4490    0.5770   -0.4140 cl        1 T07     -0.078400
      7 C3         -1.0630    0.2260    0.5440 ca        1 T07     -0.081300
      8 C4          0.3730    0.1490    0.8900 c3        1 T07      0.026000
      9 N4          3.3890    0.3750    1.1810 nc        1 T07     -0.351000
     10 C5         -3.1310   -0.7590   -0.2920 ca        1 T07     -0.125000
     11 C6         -1.7560    1.4220    0.7800 ca        1 T07     -0.096000
     12 C7         -3.1110    1.5400    0.4860 ca        1 T07     -0.126000
     13 C8          5.0900    0.2880   -0.2080 cd        1 T07      0.520400
     14 C9          2.8700    0.5190   -0.0860 cd        1 T07      0.411800
     15 HN1         3.8840    0.5840   -1.9780 hn        1 T07      0.322700
     16 HN3         6.5930   -0.6220   -1.1610 hn        1 T07      0.390800
     17 HN3A        7.0700    0.5090   -0.0590 hn        1 T07      0.390800
     18 H4          0.6860   -0.8920    1.1540 h1        1 T07      0.098700
     19 H4A         0.6080    0.8000    1.7700 h1        1 T07      0.098700
     20 H5         -3.6730   -1.6200   -0.7140 ha        1 T07      0.164000
     21 H6         -1.2160    2.2830    1.2050 ha        1 T07      0.151000
     22 H7         -3.6370    2.4880    0.6760 ha        1 T07      0.155000
     23 N3          6.3910    0.2740   -0.7590 nh        1 T07     -0.874500
     24 CL1        -1.0000   -2.3490   -0.2990 cl        1 T07     -0.074400
@<TRIPOS>BOND
     1    1    8 1   
     2    1   14 1   
     3    2    6 1   
     4    2   10 ar  
     5    2   12 ar  
     6    3   13 1   
     7    3   14 1   
     8    3   15 1   
     9    4    7 ar  
    10    4   10 ar  
    11    4   24 1   
    12    5    9 1   
    13    5   13 2   
    14    7    8 1   
    15    7   11 ar  
    16    8   18 1   
    17    8   19 1   
    18    9   14 2   
    19   10   20 1   
    20   11   12 ar  
    21   11   21 1   
    22   12   22 1   
    23   13   23 1   
    24   16   23 1   
    25   17   23 1   
@<TRIPOS>SUBSTRUCTURE
     1 T07         1 TEMP              0 ****  ****    0 ROOT
