@<TRIPOS>MOLECULE
T07
   25    23     1     0     0
SMALL
bcc


@<TRIPOS>ATOM
      1 S          -0.1130   -1.1520   -0.4100 sh        1 T07      0.027000
      2 C1          3.0210    1.3230   -3.7940 c1        1 T07     -0.050100
      3 N1         -1.5590   -1.0270    1.8580 n2        1 T07     -0.624900
      4 C2          3.5000    2.2270   -1.3710 c3        1 T07      0.267900
      5 N2         -1.2950    1.3660    2.1830 n2        1 T07     -0.142200
      6 CL2         2.7430    0.8060   -5.2730 cl        1 T07      0.108100
      7 C3          4.5940    1.5690   -0.7150 c1        1 T07     -0.183100
      8 C4          5.5200    1.0440   -0.1720 c1        1 T07     -0.071500
      9 N4         -0.6840    1.0540    1.1880 ne        1 T07     -0.202300
     10 C5          3.2330    1.7220   -2.6850 c1        1 T07     -0.154100
     11 C6          1.0620   -2.8040   -1.7330 c1        1 T07     -0.131000
     12 C7          0.0340   -2.6110   -2.3340 c1        1 T07     -0.131000
     13 C8         -2.0040    0.0750    2.7460 c3        1 T07      0.355900
     14 C9         -0.8130   -0.4480    0.9270 ce        1 T07      0.510200
     15 HN1        -3.1280    0.2260    2.6650 hx        1 T07      0.157700
     16 HN3        -2.0220    0.6520    4.7510 hn        1 T07      0.469800
     17 HN3A       -2.2090   -1.0000    4.5190 hn        1 T07      0.469800
     18 H4          0.5020   -0.0900   -0.9380 hs        1 T07      0.227800
     19 H4A         6.3510    0.5870    0.3070 ha        1 T07      0.178500
     20 H5          3.6780    3.3430   -1.4110 h1        1 T07      0.120700
     21 H6          1.9870   -3.0250   -1.2540 ha        1 T07      0.185500
     22 H7         -0.8550   -2.4940   -2.9090 ha        1 T07      0.185500
     23 H33        -0.7030   -0.3000    4.3650 hn        1 T07      0.469800
     24 N3         -1.7070   -0.1600    4.2100 n4        1 T07     -0.828600
     25 CL1         2.0200    2.0590   -0.3660 cl        1 T07     -0.214400
@<TRIPOS>BOND
     1    1   14 1   
     2    1   18 1   
     3    2    6 1   
     4    2   10 3   
     5    3   13 1   
     6    3   14 2   
     7    4    7 1   
     8    4   10 1   
     9    4   20 1   
    10    4   25 1   
    11    5    9 2   
    12    5   13 1   
    13    7    8 3   
    14    8   19 1   
    15    9   14 1   
    16   11   12 3   
    17   11   21 1   
    18   12   22 1   
    19   13   15 1   
    20   13   24 1   
    21   16   24 1   
    22   17   24 1   
    23   23   24 1   
@<TRIPOS>SUBSTRUCTURE
     1 T07         1 TEMP              0 ****  ****    0 ROOT
