@<TRIPOS>MOLECULE
T07
   24    24     1     0     0
SMALL
bcc


@<TRIPOS>ATOM
      1 S          -0.0570    0.1610    0.3000 ss        1 T07     -0.217400
      2 C1          3.7180   -0.7330   -5.4430 c2        1 T07     -0.041700
      3 N1         -1.7880    0.1130    2.3980 na        1 T07     -0.416700
      4 C2          2.4010    1.8040   -1.5150 c2        1 T07     -0.029600
      5 N2         -0.3910   -0.4970    4.0680 nc        1 T07     -0.364000
      6 Cl2         4.1130    0.6400   -6.3490 cl        1 T07     -0.093400
      7 C3          2.1740    0.5770   -0.9990 ce        1 T07     -0.086200
      8 C4          1.7110    0.3490    0.3900 c3        1 T07      0.018900
      9 N4          0.3150   -0.4400    2.9690 nc        1 T07     -0.351000
     10 C5          3.2760   -0.6700   -4.2150 c1        1 T07     -0.067900
     11 C6          2.4030   -0.6200   -1.7950 ce        1 T07     -0.109100
     12 C7          2.8490   -0.6220   -3.0300 c1        1 T07     -0.015900
     13 C8         -1.7100   -0.1810    3.7810 cd        1 T07      0.521400
     14 C9         -0.4860   -0.0670    1.9140 cd        1 T07      0.411800
     15 HN1        -2.5960    0.3320    1.8760 hn        1 T07      0.322700
     16 HN3        -2.6760   -0.7630    5.4300 hn        1 T07      0.391300
     17 HN3A       -3.1070    0.7320    4.8830 hn        1 T07      0.391300
     18 H4          1.9780    1.2020    1.0630 h1        1 T07      0.097700
     19 H4A         2.1760   -0.5730    0.8220 h1        1 T07      0.097700
     20 H5          2.7620    1.9470   -2.5450 h4        1 T07      0.166000
     21 H6          2.1760   -1.5840   -1.3000 ha        1 T07      0.161000
     22 H7          3.8700   -1.6760   -5.9880 h4        1 T07      0.170000
     23 N3         -2.8480   -0.2000    4.6180 nv        1 T07     -0.874500
     24 Cl1         2.1810    3.2560   -0.6930 cl        1 T07     -0.082400
@<TRIPOS>BOND
     1    1    8 1   
     2    1   14 1   
     3    2    6 1   
     4    2   10 2   
     5    2   22 1   
     6    3   13 1   
     7    3   14 1   
     8    3   15 1   
     9    4    7 2   
    10    4   20 1   
    11    4   24 1   
    12    5    9 1   
    13    5   13 2   
    14    7    8 1   
    15    7   11 1   
    16    8   18 1   
    17    8   19 1   
    18    9   14 2   
    19   10   12 2   
    20   11   12 2   
    21   11   21 1   
    22   13   23 1   
    23   16   23 1   
    24   17   23 1   
@<TRIPOS>SUBSTRUCTURE
     1 T07         1 TEMP              0 ****  ****    0 ROOT
