@<TRIPOS>MOLECULE
T07
   24    22     1     0     0
SMALL
bcc


@<TRIPOS>ATOM
      1 S          -2.2880   -2.8200    1.0580 sh        1 T07     -0.311100
      2 C1          3.2210    5.0240   -2.5190 c1        1 T07     -0.056100
      3 N1         -1.0780   -0.4200    1.4850 na        1 T07     -0.434700
      4 C2          3.3070    3.8490   -0.1670 c3        1 T07      0.259900
      5 N2          0.9530   -0.8160    0.5660 nc        1 T07     -0.393000
      6 CL2         3.1820    5.7470   -3.9370 cl        1 T07      0.093100
      7 C3          3.3550    2.4160   -0.2400 c1        1 T07     -0.210100
      8 C4          3.4040    1.2220   -0.2950 c1        1 T07     -0.056500
      9 N4          0.2440   -1.9110    0.4420 nc        1 T07     -0.360000
     10 C5          3.2560    4.4850   -1.4510 c1        1 T07     -0.136100
     11 C6         -0.1800   -5.2170   -1.0170 c1        1 T07     -0.168500
     12 C7         -0.9370   -6.1210   -1.2160 c1        1 T07     -0.168500
     13 C8          0.1940    0.1460    1.2200 cd        1 T07      0.557400
     14 C9         -1.0040   -1.7270    0.9820 cd        1 T07      0.436800
     15 HN1        -1.8240   -0.0160    1.9860 hn        1 T07      0.321700
     16 HN3         1.5330    1.6230    1.4160 hn        1 T07      0.402800
     17 HN3A       -0.0380    2.1400    1.3510 hn        1 T07      0.402800
     18 H4          3.4280    0.1580   -0.3350 ha        1 T07      0.193500
     19 H4A        -1.7580   -3.8030    0.3190 hs        1 T07      0.246800
     20 H5          4.1850    4.2430    0.4260 h1        1 T07      0.109700
     21 H6          0.5000   -4.4170   -0.8430 ha        1 T07      0.169500
     22 H7         -1.6060   -6.9240   -1.3950 ha        1 T07      0.169500
     23 N3          0.5820    1.4210    1.6700 nh        1 T07     -0.877500
     24 CL1         1.8720    4.3360    0.7890 cl        1 T07     -0.192400
@<TRIPOS>BOND
     1    1   14 1   
     2    1   19 1   
     3    2    6 1   
     4    2   10 3   
     5    3   13 1   
     6    3   14 1   
     7    3   15 1   
     8    4    7 1   
     9    4   10 1   
    10    4   20 1   
    11    4   24 1   
    12    5    9 1   
    13    5   13 2   
    14    7    8 3   
    15    8   18 1   
    16    9   14 2   
    17   11   12 3   
    18   11   21 1   
    19   12   22 1   
    20   13   23 1   
    21   16   23 1   
    22   17   23 1   
@<TRIPOS>SUBSTRUCTURE
     1 T07         1 TEMP              0 ****  ****    0 ROOT
