@<TRIPOS>MOLECULE
T08
   69    70     1     0     0
SMALL
bcc


@<TRIPOS>ATOM
      1 O05         0.2810    0.3690   -0.0560 oh        1 T08     -0.599800
      2 C20         1.6160   -0.1180   -0.0600 c3        1 T08      0.150100
      3 C21         1.6210   -1.4620   -0.8150 c3        1 T08     -0.047000
      4 C24         1.1020   -1.2110   -2.2260 c3        1 T08     -0.088433
      5 C23         3.0420   -1.9980   -0.8970 c3        1 T08     -0.088433
      6 C22         0.7230   -2.4740   -0.1230 c3        1 T08     -0.088433
      7 C19         2.1280   -0.2530    1.3800 c3        1 T08      0.089400
      8 O04         2.1200    1.0850    1.8960 os        1 T08     -0.345900
      9 C16         2.3820    1.2140    3.2470 ca        1 T08      0.122100
     10 C17         2.8600    0.1800    4.0560 ca        1 T08     -0.199000
     11 C18         3.1130    0.4220    5.4070 ca        1 T08     -0.100000
     12 C15         2.1530    2.5020    3.7840 ca        1 T08     -0.098300
     13 C25         1.6570    3.5940    2.9170 c3        1 T08     -0.040800
     14 C14         2.4170    2.7130    5.1350 ca        1 T08     -0.094000
     15 C13         2.8970    1.6840    5.9610 ca        1 T08     -0.098300
     16 C10         3.1290    1.9820    7.4240 c3        1 T08      0.049600
     17 C11         1.7640    2.2080    8.0730 c3        1 T08     -0.086100
     18 C12         3.8000    0.8170    8.1520 c3        1 T08     -0.086100
     19 C7          4.0330    3.1850    7.5530 ca        1 T08     -0.100300
     20 C6          3.7000    4.2930    8.3400 ca        1 T08     -0.101000
     21 C5          4.5650    5.3810    8.4660 ca        1 T08     -0.101300
     22 C5A         4.2070    6.5520    9.2980 c3        1 T08     -0.041800
     23 C8          5.2630    3.1780    6.8840 ca        1 T08     -0.091000
     24 C9          6.1460    4.2490    6.9900 ca        1 T08     -0.196000
     25 C4          5.7990    5.3490    7.7800 ca        1 T08      0.120100
     26 O03         6.5900    6.4720    7.9470 os        1 T08     -0.335900
     27 C3          7.8890    6.4070    7.3480 c3        1 T08      0.126400
     28 C2          8.6050    7.6900    7.7820 c3        1 T08      0.143100
     29 O02         9.9840    7.4680    7.5300 oh        1 T08     -0.603800
     30 C1          8.0860    8.8930    6.9900 c3        1 T08      0.092400
     31 O01         8.8120   10.0190    7.4590 oh        1 T08     -0.613800
     32 H1          0.2900    1.1870    0.4600 ho        1 T08      0.415000
     33 H2          2.2730    0.6160   -0.6100 h1        1 T08      0.046700
     34 H3          1.0670   -2.1680   -2.7990 hc        1 T08      0.039144
     35 H4          0.0740   -0.7770   -2.1810 hc        1 T08      0.039144
     36 H5          1.7690   -0.4960   -2.7630 hc        1 T08      0.039144
     37 H6          3.3980   -2.3420    0.1030 hc        1 T08      0.039144
     38 H7          3.0750   -2.8690   -1.5960 hc        1 T08      0.039144
     39 H8          3.7380   -1.2120   -1.2760 hc        1 T08      0.039144
     40 H9          0.6240   -3.3910   -0.7530 hc        1 T08      0.039144
     41 H10         1.1490   -2.7700    0.8650 hc        1 T08      0.039144
     42 H11        -0.2900   -2.0330    0.0380 hc        1 T08      0.039144
     43 H12         1.4460   -0.9000    1.9890 h1        1 T08      0.053700
     44 H13         3.1730   -0.6520    1.4000 h1        1 T08      0.053700
     45 H14         3.0410   -0.8220    3.6450 ha        1 T08      0.136000
     46 H15         3.4880   -0.4090    6.0240 ha        1 T08      0.135000
     47 H16         1.3060    4.4650    3.5230 hc        1 T08      0.045033
     48 H17         2.4730    3.9390    2.2340 hc        1 T08      0.045033
     49 H18         0.8100    3.2290    2.2830 hc        1 T08      0.045033
     50 H19         2.2490    3.7130    5.5660 ha        1 T08      0.141000
     51 H20         1.1120    1.3190    7.8940 hc        1 T08      0.039867
     52 H21         1.2650    3.1070    7.6370 hc        1 T08      0.039867
     53 H22         1.8740    2.3480    9.1750 hc        1 T08      0.039867
     54 H23         4.7670    0.5510    7.6610 hc        1 T08      0.039867
     55 H24         3.1320   -0.0770    8.1560 hc        1 T08      0.039867
     56 H25         4.0080    1.1080    9.2100 hc        1 T08      0.039867
     57 H26         2.7420    4.3270    8.8810 ha        1 T08      0.137000
     58 H27         3.2430    6.3900    9.8370 hc        1 T08      0.045033
     59 H28         5.0130    6.7490   10.0490 hc        1 T08      0.045033
     60 H29         4.1110    7.4620    8.6540 hc        1 T08      0.045033
     61 H30         5.5340    2.3130    6.2570 ha        1 T08      0.139000
     62 H31         7.1030    4.2150    6.4510 ha        1 T08      0.140000
     63 H32         7.7910    6.3590    6.2330 h1        1 T08      0.056200
     64 H33         8.4500    5.5130    7.7240 h1        1 T08      0.056200
     65 H34         8.4460    7.8710    8.8820 h1        1 T08      0.065700
     66 H35        10.4280    8.3110    7.6950 ho        1 T08      0.425000
     67 H36         6.9880    9.0220    7.1770 h1        1 T08      0.041700
     68 H37         8.2720    8.7510    5.8920 h1        1 T08      0.041700
     69 H38         8.4750   10.7860    6.9830 ho        1 T08      0.409000
@<TRIPOS>BOND
     1    1    2 1   
     2    1   32 1   
     3    2    3 1   
     4    2    7 1   
     5    2   33 1   
     6    3    4 1   
     7    3    5 1   
     8    3    6 1   
     9    4   34 1   
    10    4   35 1   
    11    4   36 1   
    12    5   37 1   
    13    5   38 1   
    14    5   39 1   
    15    6   40 1   
    16    6   41 1   
    17    6   42 1   
    18    7    8 1   
    19    7   43 1   
    20    7   44 1   
    21    8    9 1   
    22    9   10 ar  
    23    9   12 ar  
    24   10   11 ar  
    25   10   45 1   
    26   11   15 ar  
    27   11   46 1   
    28   12   13 1   
    29   12   14 ar  
    30   13   47 1   
    31   13   48 1   
    32   13   49 1   
    33   14   15 ar  
    34   14   50 1   
    35   15   16 1   
    36   16   17 1   
    37   16   18 1   
    38   16   19 1   
    39   17   51 1   
    40   17   52 1   
    41   17   53 1   
    42   18   54 1   
    43   18   55 1   
    44   18   56 1   
    45   19   20 ar  
    46   19   23 ar  
    47   20   21 ar  
    48   20   57 1   
    49   21   22 1   
    50   21   25 ar  
    51   22   58 1   
    52   22   59 1   
    53   22   60 1   
    54   23   24 ar  
    55   23   61 1   
    56   24   25 ar  
    57   24   62 1   
    58   25   26 1   
    59   26   27 1   
    60   27   28 1   
    61   27   63 1   
    62   27   64 1   
    63   28   29 1   
    64   28   30 1   
    65   28   65 1   
    66   29   66 1   
    67   30   31 1   
    68   30   67 1   
    69   30   68 1   
    70   31   69 1   
@<TRIPOS>SUBSTRUCTURE
     1 T08         1 TEMP              0 ****  ****    0 ROOT
