@<TRIPOS>MOLECULE
T08
   69    70     1     0     0
SMALL
bcc


@<TRIPOS>ATOM
      1 O05        -6.8410   -0.3650   -1.4900 oh        1 T08     -0.582800
      2 C20        -6.1540   -1.2060   -0.5810 c3        1 T08      0.142100
      3 C21        -7.1250   -1.9310    0.3750 c3        1 T08     -0.086000
      4 C24        -8.2460   -2.5430   -0.4570 c3        1 T08     -0.088433
      5 C23        -6.3960   -3.0480    1.1060 c3        1 T08     -0.088433
      6 C22        -7.7240   -0.9660    1.3850 c3        1 T08     -0.088433
      7 C19        -5.0860   -0.4090    0.1800 c3        1 T08      0.097400
      8 O04        -3.9640   -0.3310   -0.7050 os        1 T08     -0.320900
      9 C16        -2.9050    0.4430   -0.2680 ca        1 T08      0.120100
     10 C17        -2.8180    1.0200    1.0010 ca        1 T08     -0.206000
     11 C18        -1.6950    1.7740    1.3430 ca        1 T08     -0.102000
     12 C15        -1.8640    0.6170   -1.2100 ca        1 T08     -0.094300
     13 C25        -1.9620   -0.0020   -2.5500 c3        1 T08     -0.043800
     14 C14        -0.7560    1.3740   -0.8400 ca        1 T08     -0.094000
     15 C13        -0.6550    1.9600    0.4330 ca        1 T08     -0.101300
     16 C10         0.5640    2.7950    0.7490 c3        1 T08      0.049600
     17 C11         0.4880    4.0640   -0.1000 c3        1 T08     -0.085600
     18 C12         0.6090    3.2200    2.2160 c3        1 T08     -0.085600
     19 C7          1.8110    1.9900    0.4680 ca        1 T08     -0.101300
     20 C6          2.8510    2.4740   -0.3340 ca        1 T08     -0.102000
     21 C5          4.0070    1.7230   -0.5580 ca        1 T08     -0.099300
     22 C5A         5.1030    2.2360   -1.4090 c3        1 T08     -0.042800
     23 C8          1.9440    0.7260    1.0540 ca        1 T08     -0.092000
     24 C9          3.0840   -0.0460    0.8500 ca        1 T08     -0.199000
     25 C4          4.1150    0.4510    0.0450 ca        1 T08      0.119100
     26 O03         5.2930   -0.2230   -0.2240 os        1 T08     -0.320900
     27 C3          5.4160   -1.5180    0.3690 c3        1 T08      0.095400
     28 C2          6.7540   -2.0810   -0.1150 c3        1 T08      0.137100
     29 O02         7.8650   -1.3550    0.3700 oh        1 T08     -0.581800
     30 C1          6.8780   -3.5470    0.3220 c3        1 T08      0.096400
     31 O01         5.8580   -4.2740   -0.3400 oh        1 T08     -0.599800
     32 H1         -7.2990    0.3100   -0.9750 ho        1 T08      0.395000
     33 H2         -5.6520   -1.9650   -1.2500 h1        1 T08      0.097700
     34 H3         -7.8270   -3.2890   -1.1750 hc        1 T08      0.038811
     35 H4         -8.9830   -3.0550    0.2060 hc        1 T08      0.038811
     36 H5         -8.7730   -1.7490   -1.0400 hc        1 T08      0.038811
     37 H6         -5.6650   -2.6390    1.8440 hc        1 T08      0.038811
     38 H7         -7.1310   -3.6820    1.6590 hc        1 T08      0.038811
     39 H8         -5.8460   -3.6940    0.3800 hc        1 T08      0.038811
     40 H9         -8.2830   -0.1500    0.8650 hc        1 T08      0.038811
     41 H10        -8.4360   -1.5070    2.0540 hc        1 T08      0.038811
     42 H11        -6.9260   -0.5070    2.0180 hc        1 T08      0.038811
     43 H12        -5.4550    0.6220    0.4220 h1        1 T08      0.044200
     44 H13        -4.7770   -0.9360    1.1190 h1        1 T08      0.044200
     45 H14        -3.6210    0.8890    1.7400 ha        1 T08      0.132000
     46 H15        -1.6530    2.2190    2.3490 ha        1 T08      0.133000
     47 H16        -2.9420    0.2620   -3.0230 hc        1 T08      0.047367
     48 H17        -1.1340    0.3380   -3.2170 hc        1 T08      0.047367
     49 H18        -1.9170   -1.1160   -2.4590 hc        1 T08      0.047367
     50 H19         0.0660    1.5140   -1.5600 ha        1 T08      0.141000
     51 H20        -0.4800    4.5860    0.0930 hc        1 T08      0.039033
     52 H21         1.3210    4.7590    0.1630 hc        1 T08      0.039033
     53 H22         0.5470    3.8150   -1.1860 hc        1 T08      0.039033
     54 H23         0.5750    2.3270    2.8850 hc        1 T08      0.039033
     55 H24         1.5570    3.7760    2.4160 hc        1 T08      0.039033
     56 H25        -0.2500    3.8910    2.4550 hc        1 T08      0.039033
     57 H26         2.7770    3.4650   -0.8070 ha        1 T08      0.136000
     58 H27         6.0660    2.2310   -0.8390 hc        1 T08      0.046700
     59 H28         5.2330    1.5740   -2.3020 hc        1 T08      0.046700
     60 H29         4.8960    3.2760   -1.7590 hc        1 T08      0.046700
     61 H30         1.1290    0.3310    1.6810 ha        1 T08      0.138000
     62 H31         3.1570   -1.0360    1.3190 ha        1 T08      0.136000
     63 H32         5.4000   -1.4240    1.4860 h1        1 T08      0.053200
     64 H33         4.5820   -2.1860    0.0240 h1        1 T08      0.053200
     65 H34         6.8250   -1.9980   -1.2360 h1        1 T08      0.105700
     66 H35         7.7190   -1.1850    1.3080 ho        1 T08      0.399000
     67 H36         7.8930   -3.9310    0.0380 h1        1 T08      0.033200
     68 H37         6.7480   -3.6390    1.4340 h1        1 T08      0.033200
     69 H38         6.0640   -5.2080   -0.2230 ho        1 T08      0.407000
@<TRIPOS>BOND
     1    1    2 1   
     2    1   32 1   
     3    2    3 1   
     4    2    7 1   
     5    2   33 1   
     6    3    4 1   
     7    3    5 1   
     8    3    6 1   
     9    4   34 1   
    10    4   35 1   
    11    4   36 1   
    12    5   37 1   
    13    5   38 1   
    14    5   39 1   
    15    6   40 1   
    16    6   41 1   
    17    6   42 1   
    18    7    8 1   
    19    7   43 1   
    20    7   44 1   
    21    8    9 1   
    22    9   10 ar  
    23    9   12 ar  
    24   10   11 ar  
    25   10   45 1   
    26   11   15 ar  
    27   11   46 1   
    28   12   13 1   
    29   12   14 ar  
    30   13   47 1   
    31   13   48 1   
    32   13   49 1   
    33   14   15 ar  
    34   14   50 1   
    35   15   16 1   
    36   16   17 1   
    37   16   18 1   
    38   16   19 1   
    39   17   51 1   
    40   17   52 1   
    41   17   53 1   
    42   18   54 1   
    43   18   55 1   
    44   18   56 1   
    45   19   20 ar  
    46   19   23 ar  
    47   20   21 ar  
    48   20   57 1   
    49   21   22 1   
    50   21   25 ar  
    51   22   58 1   
    52   22   59 1   
    53   22   60 1   
    54   23   24 ar  
    55   23   61 1   
    56   24   25 ar  
    57   24   62 1   
    58   25   26 1   
    59   26   27 1   
    60   27   28 1   
    61   27   63 1   
    62   27   64 1   
    63   28   29 1   
    64   28   30 1   
    65   28   65 1   
    66   29   66 1   
    67   30   31 1   
    68   30   67 1   
    69   30   68 1   
    70   31   69 1   
@<TRIPOS>SUBSTRUCTURE
     1 T08         1 TEMP              0 ****  ****    0 ROOT
