@<TRIPOS>MOLECULE
T08
   69    70     1     0     0
SMALL
bcc


@<TRIPOS>ATOM
      1 O05         0.2690    0.3540   -0.0490 oh        1 T08     -0.599800
      2 C20         1.6110   -0.1170   -0.0570 c3        1 T08      0.150100
      3 C21         1.6310   -1.4570   -0.8190 c3        1 T08     -0.047000
      4 C24         1.1040   -1.2070   -2.2270 c3        1 T08     -0.088433
      5 C23         3.0580   -1.9750   -0.9070 c3        1 T08     -0.088433
      6 C22         0.7480   -2.4840   -0.1290 c3        1 T08     -0.088433
      7 C19         2.1260   -0.2520    1.3810 c3        1 T08      0.089400
      8 O04         2.1050    1.0840    1.9020 os        1 T08     -0.345900
      9 C16         2.3740    1.2100    3.2530 ca        1 T08      0.122100
     10 C17         2.8620    0.1770    4.0560 ca        1 T08     -0.199000
     11 C18         3.1220    0.4170    5.4070 ca        1 T08     -0.100000
     12 C15         2.1430    2.4960    3.7930 ca        1 T08     -0.098300
     13 C25         1.6360    3.5870    2.9320 c3        1 T08     -0.040800
     14 C14         2.4120    2.7050    5.1430 ca        1 T08     -0.094000
     15 C13         2.9020    1.6770    5.9650 ca        1 T08     -0.098300
     16 C10         3.1410    1.9720    7.4270 c3        1 T08      0.049600
     17 C11         1.7780    2.1920    8.0840 c3        1 T08     -0.086100
     18 C12         3.8210    0.8090    8.1490 c3        1 T08     -0.086100
     19 C7          4.0410    3.1780    7.5540 ca        1 T08     -0.100300
     20 C6          3.7080    4.2830    8.3440 ca        1 T08     -0.101000
     21 C5          4.5690    5.3750    8.4680 ca        1 T08     -0.101300
     22 C5A         4.2110    6.5430    9.3040 c3        1 T08     -0.041800
     23 C8          5.2670    3.1780    6.8780 ca        1 T08     -0.091000
     24 C9          6.1460    4.2520    6.9810 ca        1 T08     -0.196000
     25 C4          5.7990    5.3500    7.7750 ca        1 T08      0.120100
     26 O03         6.5870    6.4750    7.9400 os        1 T08     -0.335900
     27 C3          7.8820    6.4170    7.3330 c3        1 T08      0.126400
     28 C2          8.5950    7.7020    7.7660 c3        1 T08      0.143100
     29 O02         9.9730    7.4870    7.5050 oh        1 T08     -0.603800
     30 C1          8.0670    8.9050    6.9800 c3        1 T08      0.092400
     31 O01         8.7900   10.0330    7.4480 oh        1 T08     -0.613800
     32 H1          0.2690    1.1690    0.4700 ho        1 T08      0.415000
     33 H2          2.2570    0.6280   -0.6050 h1        1 T08      0.046700
     34 H3          0.0700   -0.7870   -2.1770 hc        1 T08      0.039144
     35 H4          1.7610   -0.4800   -2.7620 hc        1 T08      0.039144
     36 H5          1.0800   -2.1620   -2.8040 hc        1 T08      0.039144
     37 H6          3.7420   -1.1770   -1.2840 hc        1 T08      0.039144
     38 H7          3.4210   -2.3180    0.0910 hc        1 T08      0.039144
     39 H8          3.1010   -2.8410   -1.6110 hc        1 T08      0.039144
     40 H9         -0.2710   -2.0570    0.0370 hc        1 T08      0.039144
     41 H10         0.6580   -3.3990   -0.7630 hc        1 T08      0.039144
     42 H11         1.1800   -2.7790    0.8570 hc        1 T08      0.039144
     43 H12         1.4510   -0.9080    1.9890 h1        1 T08      0.053700
     44 H13         3.1760   -0.6410    1.3980 h1        1 T08      0.053700
     45 H14         3.0460   -0.8230    3.6420 ha        1 T08      0.136000
     46 H15         3.5040   -0.4140    6.0190 ha        1 T08      0.135000
     47 H16         1.2880    4.4570    3.5410 hc        1 T08      0.045033
     48 H17         0.7840    3.2210    2.3050 hc        1 T08      0.045033
     49 H18         2.4450    3.9340    2.2420 hc        1 T08      0.045033
     50 H19         2.2420    3.7030    5.5780 ha        1 T08      0.141000
     51 H20         1.8940    2.3290    9.1850 hc        1 T08      0.039867
     52 H21         1.1290    1.3000    7.9060 hc        1 T08      0.039867
     53 H22         1.2730    3.0890    7.6520 hc        1 T08      0.039867
     54 H23         4.0330    1.0970    9.2070 hc        1 T08      0.039867
     55 H24         3.1560   -0.0880    8.1550 hc        1 T08      0.039867
     56 H25         4.7860    0.5480    7.6520 hc        1 T08      0.039867
     57 H26         2.7520    4.3120    8.8910 ha        1 T08      0.137000
     58 H27         4.1070    7.4540    8.6630 hc        1 T08      0.045033
     59 H28         3.2500    6.3760    9.8490 hc        1 T08      0.045033
     60 H29         5.0200    6.7410   10.0510 hc        1 T08      0.045033
     61 H30         5.5380    2.3160    6.2470 ha        1 T08      0.139000
     62 H31         7.1000    4.2240    6.4360 ha        1 T08      0.140000
     63 H32         7.7770    6.3710    6.2190 h1        1 T08      0.056200
     64 H33         8.4490    5.5240    7.7050 h1        1 T08      0.056200
     65 H34         8.4420    7.8800    8.8680 h1        1 T08      0.065700
     66 H35        10.4150    8.3310    7.6690 ho        1 T08      0.425000
     67 H36         8.2460    8.7660    5.8810 h1        1 T08      0.041700
     68 H37         6.9690    9.0280    7.1740 h1        1 T08      0.041700
     69 H38         8.4470   10.7990    6.9750 ho        1 T08      0.409000
@<TRIPOS>BOND
     1    1    2 1   
     2    1   32 1   
     3    2    3 1   
     4    2    7 1   
     5    2   33 1   
     6    3    4 1   
     7    3    5 1   
     8    3    6 1   
     9    4   34 1   
    10    4   35 1   
    11    4   36 1   
    12    5   37 1   
    13    5   38 1   
    14    5   39 1   
    15    6   40 1   
    16    6   41 1   
    17    6   42 1   
    18    7    8 1   
    19    7   43 1   
    20    7   44 1   
    21    8    9 1   
    22    9   10 ar  
    23    9   12 ar  
    24   10   11 ar  
    25   10   45 1   
    26   11   15 ar  
    27   11   46 1   
    28   12   13 1   
    29   12   14 ar  
    30   13   47 1   
    31   13   48 1   
    32   13   49 1   
    33   14   15 ar  
    34   14   50 1   
    35   15   16 1   
    36   16   17 1   
    37   16   18 1   
    38   16   19 1   
    39   17   51 1   
    40   17   52 1   
    41   17   53 1   
    42   18   54 1   
    43   18   55 1   
    44   18   56 1   
    45   19   20 ar  
    46   19   23 ar  
    47   20   21 ar  
    48   20   57 1   
    49   21   22 1   
    50   21   25 ar  
    51   22   58 1   
    52   22   59 1   
    53   22   60 1   
    54   23   24 ar  
    55   23   61 1   
    56   24   25 ar  
    57   24   62 1   
    58   25   26 1   
    59   26   27 1   
    60   27   28 1   
    61   27   63 1   
    62   27   64 1   
    63   28   29 1   
    64   28   30 1   
    65   28   65 1   
    66   29   66 1   
    67   30   31 1   
    68   30   67 1   
    69   30   68 1   
    70   31   69 1   
@<TRIPOS>SUBSTRUCTURE
     1 T08         1 TEMP              0 ****  ****    0 ROOT
