@<TRIPOS>MOLECULE
T08
   69    62     1     0     0
SMALL
bcc


@<TRIPOS>ATOM
      1 O05         5.5000    1.1070    3.6210 oh        1 T08     -0.329000
      2 C20         4.8680    0.1810    2.7740 c3        1 T08      0.033000
      3 C21         5.5580    0.1820    1.4230 c3        1 T08     -0.084000
      4 C24         5.7690    1.6510    0.9520 c3        1 T08     -0.208000
      5 C23         6.9220   -0.5230    1.5410 c3        1 T08     -0.208000
      6 C22         4.6890   -0.5620    0.4030 c3        1 T08     -0.208000
      7 C19         3.4090    0.5680    2.6000 c3        1 T08     -0.020000
      8 O04         2.5880   -0.2540    3.4530 os        1 T08     -0.218000
      9 C16         1.1990   -0.3390    3.0320 c1        1 T08      0.074000
     10 C17         0.2840    0.6560    3.4230 c1        1 T08     -0.197000
     11 C18        -1.0640    0.5360    3.0850 c1        1 T08     -0.119500
     12 C15         0.7580   -1.4460    2.3040 c1        1 T08     -0.079500
     13 C25         1.7320   -2.5470    1.9380 c3        1 T08     -0.178000
     14 C14        -0.6030   -1.5660    1.9630 c1        1 T08     -0.108000
     15 C13        -1.5090   -0.5800    2.3520 c1        1 T08     -0.026500
     16 C10        -3.0090   -0.7180    1.9860 c2        1 T08      0.031000
     17 C11        -3.8460    0.2700    2.8530 c3        1 T08     -0.204000
     18 C12        -3.4680   -2.1470    2.2570 c3        1 T08     -0.204000
     19 C7         -3.2070   -0.3910    0.4990 c1        1 T08     -0.063000
     20 C6         -3.3490    0.9300    0.0910 c1        1 T08     -0.108000
     21 C5         -3.5360    1.2270   -1.2590 c1        1 T08     -0.079500
     22 C5A        -3.8460    2.6860   -1.6920 c3        1 T08     -0.178000
     23 C8         -3.2530   -1.4300   -0.4500 c1        1 T08     -0.128000
     24 C9         -3.4400   -1.1340   -1.7950 c1        1 T08     -0.119500
     25 C4         -3.5830    0.1920   -2.2050 c1        1 T08     -0.026500
     26 O03        -3.8670    0.4880   -3.5710 o         1 T08     -0.232000
     27 C3         -2.7600    0.2530   -4.4620 c3        1 T08     -0.021000
     28 C2         -3.1070    0.7570   -5.8330 c3        1 T08      0.022000
     29 O02        -3.0250    2.1440   -5.8500 oh        1 T08     -0.333000
     30 C1         -2.1280    0.1760   -6.8490 c3        1 T08     -0.057000
     31 O01        -2.5160    0.5640   -8.1490 oh        1 T08     -0.338000
     32 H1          6.0050    0.6700    4.2190 ho        1 T08      0.205000
     33 H2          4.9250   -0.7140    3.1690 h1        1 T08      0.093000
     34 H3          6.1630    2.1710    1.6810 hc        1 T08      0.078444
     35 H4          4.9010    2.0420    0.7010 hc        1 T08      0.078444
     36 H5          6.3720    1.6640    0.1770 hc        1 T08      0.078444
     37 H6          7.5170    0.0070    2.1170 hc        1 T08      0.078444
     38 H7          7.3250   -0.6120    0.6460 hc        1 T08      0.078444
     39 H8          6.7960   -1.4210    1.9360 hc        1 T08      0.078444
     40 H9          4.4240   -1.4400    0.7740 hc        1 T08      0.078444
     41 H10         5.1970   -0.6980   -0.4180 hc        1 T08      0.078444
     42 H11         3.8810   -0.0300    0.2060 hc        1 T08      0.078444
     43 H12         3.1460    0.4350    1.6670 h1        1 T08      0.095500
     44 H13         3.2900    1.5030    2.8400 h1        1 T08      0.095500
     45 H14         0.5930    1.4300    3.9320 ha        1 T08      0.139000
     46 H15        -1.6970    1.2240    3.3570 ha        1 T08      0.137500
     47 H16         2.5610   -2.4140    2.4130 hc        1 T08      0.089167
     48 H17         1.9000   -2.5270    0.9750 hc        1 T08      0.089167
     49 H18         1.3460   -3.4270    2.1880 hc        1 T08      0.089167
     50 H19        -0.9130   -2.3430    1.4520 ha        1 T08      0.139500
     51 H20        -3.6690    1.1880    2.5630 hc        1 T08      0.079667
     52 H21        -4.8110    0.0700    2.7450 hc        1 T08      0.079667
     53 H22        -3.5920    0.1700    3.8080 hc        1 T08      0.079667
     54 H23        -4.4440   -2.1760    2.2760 hc        1 T08      0.079667
     55 H24        -3.1150   -2.4460    3.1240 hc        1 T08      0.079667
     56 H25        -3.1380   -2.7340    1.5510 hc        1 T08      0.079667
     57 H26        -3.3820    1.6390    0.7510 ha        1 T08      0.139500
     58 H27        -3.6530    3.3070   -0.9330 hc        1 T08      0.089167
     59 H28        -4.7920    2.7590   -1.9420 hc        1 T08      0.089167
     60 H29        -3.2890    2.9230   -2.4580 hc        1 T08      0.089167
     61 H30        -3.1530   -2.3670   -0.1610 ha        1 T08      0.135000
     62 H31        -3.4740   -1.8730   -2.4710 ha        1 T08      0.137500
     63 H32        -1.9690    0.7250   -4.1310 h1        1 T08      0.093500
     64 H33        -2.5720   -0.7160   -4.5050 h1        1 T08      0.093500
     65 H34        -4.0240    0.4790   -6.0630 h1        1 T08      0.112000
     66 H35        -3.5910    2.4700   -6.4680 ho        1 T08      0.220000
     67 H36        -2.1310   -0.7980   -6.7840 h1        1 T08      0.075500
     68 H37        -1.2350    0.5090   -6.6640 h1        1 T08      0.075500
     69 H38        -1.8590    0.4190   -8.7040 ho        1 T08      0.208000
@<TRIPOS>BOND
     1    1    2 1   
     2    1   32 1   
     3    2    3 1   
     4    2    7 1   
     5    2   33 1   
     6    3    4 1   
     7    3    5 1   
     8    3    6 1   
     9    4   34 1   
    10    4   35 1   
    11    4   36 1   
    12    5   37 1   
    13    5   38 1   
    14    5   39 1   
    15    6   40 1   
    16    6   41 1   
    17    6   42 1   
    18    7    8 1   
    19    7   43 1   
    20    7   44 1   
    21    8    9 1   
    22    9   10 1   
    23   10   45 1   
    24   11   15 1   
    25   11   46 1   
    26   12   13 1   
    27   12   14 1   
    28   13   47 1   
    29   13   48 1   
    30   13   49 1   
    31   14   50 1   
    32   16   17 1   
    33   16   18 1   
    34   16   19 1   
    35   17   51 1   
    36   17   52 1   
    37   17   53 1   
    38   18   54 1   
    39   18   55 1   
    40   18   56 1   
    41   19   23 1   
    42   20   21 1   
    43   20   57 1   
    44   21   22 1   
    45   22   58 1   
    46   22   59 1   
    47   22   60 1   
    48   23   61 1   
    49   24   25 1   
    50   24   62 1   
    51   26   27 1   
    52   27   28 1   
    53   27   63 1   
    54   27   64 1   
    55   28   29 1   
    56   28   30 1   
    57   28   65 1   
    58   29   66 1   
    59   30   31 1   
    60   30   67 1   
    61   30   68 1   
    62   31   69 1   
@<TRIPOS>SUBSTRUCTURE
     1 T08         1 TEMP              0 ****  ****    0 ROOT
