@<TRIPOS>MOLECULE
T0I
   31    32     1     0     0
SMALL
bcc


@<TRIPOS>ATOM
      1 C14        -4.2040   -0.0560    0.7340 cc        1 T0I     -0.269600
      2 C15        -5.0950   -1.1210    0.5000 cd        1 T0I      0.273200
      3 N11        -4.4470   -2.1490   -0.1810 nd        1 T0I     -0.686000
      4 C12        -3.1770   -1.7270   -0.3660 cc        1 T0I      0.393400
      5 N13        -2.9820   -0.4460    0.1770 na        1 T0I     -0.110000
      6 C5         -1.7800    0.2920    0.1800 ca        1 T0I     -0.147200
      7 C6         -0.5560   -0.3490    0.4660 ca        1 T0I     -0.064000
      8 C4         -1.7580    1.6780   -0.1150 ca        1 T0I      0.138100
      9 O4         -2.8960    2.4220   -0.3590 oh        1 T0I     -0.514100
     10 C3         -0.5570    2.3900   -0.1140 ca        1 T0I     -0.208000
     11 C2          0.6490    1.7280    0.1770 ca        1 T0I      0.201100
     12 O2          1.7600    2.5080    0.1610 oh        1 T0I     -0.524100
     13 C1          0.6490    0.3430    0.4740 ca        1 T0I     -0.151300
     14 CB          1.9140   -0.3690    0.8020 c3        1 T0I     -0.029100
     15 CA          2.7830   -0.6050   -0.4460 c3        1 T0I      0.014500
     16 C           4.2160   -0.0490   -0.1660 c         1 T0I      0.885600
     17 O           5.2090   -0.7900   -0.3870 o         1 T0I     -0.832800
     18 N           2.7490   -1.9860   -0.9050 n3        1 T0I     -0.884800
     19 OXT         4.2930    1.1450    0.2580 o         1 T0I     -0.832800
     20 H14        -4.3280    0.8980    1.2430 h4        1 T0I      0.183000
     21 H15        -6.1440   -1.1950    0.7800 h4        1 T0I      0.031100
     22 H12        -2.3740   -2.2780   -0.8690 h5        1 T0I      0.069100
     23 H6         -0.5490   -1.4300    0.6880 ha        1 T0I      0.143000
     24 H4         -3.5400    1.8520   -0.8030 ho        1 T0I      0.419000
     25 H3         -0.5540    3.4650   -0.3390 ha        1 T0I      0.160000
     26 H2          2.5780    1.9530    0.2370 ho        1 T0I      0.504000
     27 HB1C        2.5020    0.2550    1.5330 hc        1 T0I      0.058700
     28 HB2C        1.6780   -1.3370    1.3180 hc        1 T0I      0.058700
     29 HA          2.3730    0.0230   -1.2920 h1        1 T0I      0.048700
     30 HN1         3.4030   -2.0640   -1.6660 hn        1 T0I      0.335300
     31 HN2         3.1030   -2.5740   -0.1700 hn        1 T0I      0.335300
@<TRIPOS>BOND
     1    1    2 2   
     2    1    5 1   
     3    1   20 1   
     4    2    3 1   
     5    2   21 1   
     6    3    4 2   
     7    4    5 1   
     8    4   22 1   
     9    5    6 1   
    10    6    7 ar  
    11    6    8 ar  
    12    7   13 ar  
    13    7   23 1   
    14    8    9 1   
    15    8   10 ar  
    16    9   24 1   
    17   10   11 ar  
    18   10   25 1   
    19   11   12 1   
    20   11   13 ar  
    21   12   26 1   
    22   13   14 1   
    23   14   15 1   
    24   14   27 1   
    25   14   28 1   
    26   15   16 1   
    27   15   18 1   
    28   15   29 1   
    29   16   17 1   
    30   16   19 1   
    31   18   30 1   
    32   18   31 1   
@<TRIPOS>SUBSTRUCTURE
     1 T0I         1 TEMP              0 ****  ****    0 ROOT
