@<TRIPOS>MOLECULE
T10
   64    66     1     0     0
SMALL
bcc


@<TRIPOS>ATOM
      1 O1          1.9250   -2.4840    4.6730 oh        1 T10     -0.555800
      2 C6          2.9910   -2.3510    3.7720 c3        1 T10      0.057400
      3 C7          3.7320   -1.0630    4.0520 c         1 T10      0.530100
      4 O8          3.8890   -0.5950    5.1830 o         1 T10     -0.537100
      5 C9          4.2640   -0.3210    2.8240 c3        1 T10      0.009500
      6 C10         5.3310   -1.1860    2.1240 c3        1 T10     -0.041100
      7 C11         5.9140   -0.4890    0.9490 ca        1 T10     -0.181300
      8 C12         7.1490    0.1660    1.0640 ca        1 T10     -0.132000
      9 C13         7.7240    0.7740   -0.0500 ca        1 T10     -0.108000
     10 C14         7.0730    0.7310   -1.2850 ca        1 T10     -0.085000
     11 C15         5.8470    0.0770   -1.4050 ca        1 T10     -0.108000
     12 C16         5.2680   -0.5340   -0.2920 ca        1 T10     -0.132000
     13 N17         4.8330    1.0380    3.1700 n4        1 T10     -0.654800
     14 C18         3.7920    2.0880    3.3560 c         1 T10      0.519100
     15 O19         3.4400    2.7320    2.3780 o         1 T10     -0.377100
     16 C20         3.2370    2.3140    4.7690 c3        1 T10      0.062500
     17 C21         1.7080    2.0830    4.7420 c3        1 T10     -0.038100
     18 C22         1.0930    2.5010    6.0270 ca        1 T10     -0.193300
     19 C23         0.5430    3.7860    6.1540 ca        1 T10     -0.127500
     20 C24        -0.0910    4.1600    7.3360 ca        1 T10     -0.108000
     21 C25        -0.1840    3.2560    8.3980 ca        1 T10     -0.078000
     22 C26         0.3590    1.9760    8.2730 ca        1 T10     -0.108000
     23 C27         0.9950    1.5970    7.0910 ca        1 T10     -0.127500
     24 N28         3.5650    3.7040    5.2310 n4        1 T10     -0.655800
     25 C29         5.0470    3.8860    5.4520 c         1 T10      0.643100
     26 O30         5.8380    3.1150    4.9090 o         1 T10     -0.525000
     27 O31         5.3020    4.9100    6.2410 os        1 T10     -0.383900
     28 C32         6.7540    5.2090    6.5340 c3        1 T10      0.240700
     29 C33         6.7010    6.3980    7.3990 ca        1 T10     -0.178300
     30 C34         6.6510    6.2500    8.7940 ca        1 T10     -0.077000
     31 C35         6.6660    7.3760    9.6130 ca        1 T10     -0.129000
     32 C36         6.7210    8.6530    9.0470 ca        1 T10     -0.058000
     33 C37         6.7610    8.8040    7.6590 ca        1 T10     -0.129000
     34 C38         6.7470    7.6820    6.8340 ca        1 T10     -0.077000
     35 HO1         2.2680   -2.8470    5.5030 ho        1 T10      0.437000
     36 HC61        2.5180   -2.3270    2.7500 h1        1 T10      0.103700
     37 HC62        3.7220   -3.2050    3.8320 h1        1 T10      0.103700
     38 HC9         3.4100   -0.1420    2.0990 hx        1 T10      0.137700
     39 H101        6.1340   -1.4710    2.8560 hc        1 T10      0.099700
     40 H102        4.8160   -2.1330    1.7980 hc        1 T10      0.099700
     41 H12         7.6970    0.1540    2.0190 ha        1 T10      0.136500
     42 H13         8.7050    1.2700    0.0380 ha        1 T10      0.164000
     43 H14         7.5370    1.2000   -2.1690 ha        1 T10      0.169000
     44 H15         5.3410    0.0270   -2.3830 ha        1 T10      0.164000
     45 H16         4.3140   -1.0720   -0.4000 ha        1 T10      0.136500
     46 H17         5.3940    0.9620    4.0330 hn        1 T10      0.492800
     47 H20         3.6980    1.5940    5.5210 hx        1 T10      0.166700
     48 H211        1.5480    0.9810    4.5740 hc        1 T10      0.103700
     49 H212        1.2520    2.6390    3.8790 hc        1 T10      0.103700
     50 H23         0.5600    4.4840    5.3030 ha        1 T10      0.139500
     51 H24        -0.5400    5.1640    7.4270 ha        1 T10      0.168000
     52 H25        -0.7010    3.5490    9.3270 ha        1 T10      0.172000
     53 H26         0.2710    1.2570    9.1040 ha        1 T10      0.168000
     54 H27         1.3980    0.5770    6.9900 ha        1 T10      0.139500
     55 H28         3.2390    4.3990    4.5430 hn        1 T10      0.499300
     56 H321        7.1570    4.2940    7.0350 h1        1 T10      0.088200
     57 H322        7.2360    5.3870    5.5400 h1        1 T10      0.088200
     58 H34         6.6170    5.2460    9.2430 ha        1 T10      0.138000
     59 H35         6.6400    7.2610   10.7080 ha        1 T10      0.163000
     60 H36         6.7380    9.5430    9.6980 ha        1 T10      0.166000
     61 H37         6.8110    9.8120    7.2160 ha        1 T10      0.163000
     62 H38         6.7890    7.8040    5.7410 ha        1 T10      0.138000
     63 H172        5.4630    1.3180    2.3870 hn        1 T10      0.492800
     64 H282        3.0490    3.8790    6.1190 hn        1 T10      0.499300
@<TRIPOS>BOND
     1    1    2 1   
     2    1   35 1   
     3    2    3 1   
     4    2   36 1   
     5    2   37 1   
     6    3    4 2   
     7    3    5 1   
     8    5    6 1   
     9    5   13 1   
    10    5   38 1   
    11    6    7 1   
    12    6   39 1   
    13    6   40 1   
    14    7    8 ar  
    15    7   12 ar  
    16    8    9 ar  
    17    8   41 1   
    18    9   10 ar  
    19    9   42 1   
    20   10   11 ar  
    21   10   43 1   
    22   11   12 ar  
    23   11   44 1   
    24   12   45 1   
    25   13   14 1   
    26   13   46 1   
    27   13   63 1   
    28   14   15 2   
    29   14   16 1   
    30   16   17 1   
    31   16   24 1   
    32   16   47 1   
    33   17   18 1   
    34   17   48 1   
    35   17   49 1   
    36   18   19 ar  
    37   18   23 ar  
    38   19   20 ar  
    39   19   50 1   
    40   20   21 ar  
    41   20   51 1   
    42   21   22 ar  
    43   21   52 1   
    44   22   23 ar  
    45   22   53 1   
    46   23   54 1   
    47   24   25 1   
    48   24   55 1   
    49   24   64 1   
    50   25   26 2   
    51   25   27 1   
    52   27   28 1   
    53   28   29 1   
    54   28   56 1   
    55   28   57 1   
    56   29   30 ar  
    57   29   34 ar  
    58   30   31 ar  
    59   30   58 1   
    60   31   32 ar  
    61   31   59 1   
    62   32   33 ar  
    63   32   60 1   
    64   33   34 ar  
    65   33   61 1   
    66   34   62 1   
@<TRIPOS>SUBSTRUCTURE
     1 T10         1 TEMP              0 ****  ****    0 ROOT
