@<TRIPOS>MOLECULE
T10
   64    66     1     0     0
SMALL
bcc


@<TRIPOS>ATOM
      1 O1          1.9190   -2.4850    4.6560 oh        1 T10     -0.555800
      2 C6          2.9970   -2.3560    3.7690 c3        1 T10      0.057400
      3 C7          3.7350   -1.0670    4.0560 c         1 T10      0.530100
      4 O8          3.8760   -0.5960    5.1870 o         1 T10     -0.537100
      5 C9          4.2830   -0.3290    2.8330 c3        1 T10      0.009500
      6 C10         5.3590   -1.1960    2.1500 c3        1 T10     -0.041100
      7 C11         5.9590   -0.5030    0.9810 ca        1 T10     -0.181300
      8 C12         7.1910    0.1540    1.1110 ca        1 T10     -0.131500
      9 C13         7.7810    0.7580    0.0020 ca        1 T10     -0.108000
     10 C14         7.1470    0.7100   -1.2420 ca        1 T10     -0.085000
     11 C15         5.9230    0.0530   -1.3760 ca        1 T10     -0.108000
     12 C16         5.3300   -0.5530   -0.2690 ca        1 T10     -0.131500
     13 N17         4.8470    1.0310    3.1820 ny        1 T10     -0.654800
     14 C18         3.8040    2.0810    3.3540 c         1 T10      0.520100
     15 O19         3.4610    2.7210    2.3700 o         1 T10     -0.377100
     16 C20         3.2360    2.3110    4.7610 c3        1 T10      0.062500
     17 C21         1.7080    2.0770    4.7210 c3        1 T10     -0.038100
     18 C22         1.0800    2.4990    5.9990 ca        1 T10     -0.193300
     19 C23         0.5250    3.7830    6.1160 ca        1 T10     -0.127500
     20 C24        -0.1200    4.1600    7.2910 ca        1 T10     -0.108000
     21 C25        -0.2190    3.2600    8.3550 ca        1 T10     -0.078000
     22 C26         0.3290    1.9820    8.2410 ca        1 T10     -0.108000
     23 C27         0.9760    1.5990    7.0660 ca        1 T10     -0.127500
     24 N28         3.5570    3.7040    5.2210 ny        1 T10     -0.655800
     25 C29         5.0370    3.8880    5.4550 c         1 T10      0.643100
     26 O30         5.8340    3.1150    4.9230 o         1 T10     -0.525000
     27 O31         5.2820    4.9170    6.2420 os        1 T10     -0.383900
     28 C32         6.7310    5.2180    6.5490 c3        1 T10      0.240700
     29 C33         6.6680    6.4150    7.4020 ca        1 T10     -0.178300
     30 C34         6.6000    6.2810    8.7980 ca        1 T10     -0.077000
     31 C35         6.6050    7.4140    9.6060 ca        1 T10     -0.129000
     32 C36         6.6700    8.6850    9.0290 ca        1 T10     -0.058000
     33 C37         6.7290    8.8230    7.6400 ca        1 T10     -0.129000
     34 C38         6.7240    7.6940    6.8260 ca        1 T10     -0.077000
     35 HO1         2.2500   -2.8460    5.4920 ho        1 T10      0.437000
     36 HC61        2.5380   -2.3340    2.7410 h1        1 T10      0.103700
     37 HC62        3.7270   -3.2100    3.8420 h1        1 T10      0.103700
     38 HC9         3.4390   -0.1520    2.0960 hx        1 T10      0.137700
     39 H101        6.1530   -1.4790    2.8930 hc        1 T10      0.099700
     40 H102        4.8490   -2.1450    1.8210 hc        1 T10      0.099700
     41 H12         7.7260    0.1460    2.0730 ha        1 T10      0.136500
     42 H13         8.7590    1.2550    0.1020 ha        1 T10      0.164000
     43 H14         7.6230    1.1760   -2.1210 ha        1 T10      0.169000
     44 H15         5.4310   -0.0010   -2.3610 ha        1 T10      0.164000
     45 H16         4.3770   -1.0930   -0.3880 ha        1 T10      0.136500
     46 H17         5.3990    0.9570    4.0520 hn        1 T10      0.492800
     47 H20         3.6910    1.5950    5.5200 hx        1 T10      0.166700
     48 H211        1.2580    2.6300    3.8520 hc        1 T10      0.103700
     49 H212        1.5510    0.9750    4.5560 hc        1 T10      0.103700
     50 H23         0.5470    4.4780    5.2620 ha        1 T10      0.139500
     51 H24        -0.5730    5.1620    7.3740 ha        1 T10      0.168000
     52 H25        -0.7440    3.5550    9.2800 ha        1 T10      0.172000
     53 H26         0.2370    1.2650    9.0740 ha        1 T10      0.168000
     54 H27         1.3840    0.5800    6.9730 ha        1 T10      0.139500
     55 H28         3.0320    3.8820    6.1030 hn        1 T10      0.499300
     56 H321        7.1280    4.3070    7.0640 h1        1 T10      0.088200
     57 H322        7.2250    5.3860    5.5590 h1        1 T10      0.088200
     58 H34         6.5590    5.2800    9.2550 ha        1 T10      0.138000
     59 H35         6.5660    7.3090   10.7020 ha        1 T10      0.163000
     60 H36         6.6790    9.5820    9.6720 ha        1 T10      0.166000
     61 H37         6.7850    9.8270    7.1890 ha        1 T10      0.163000
     62 H38         6.7800    7.8050    5.7320 ha        1 T10      0.138000
     63 H172        5.4860    1.3100    2.4060 hn        1 T10      0.492800
     64 H282        3.2370    4.3960    4.5260 hn        1 T10      0.499300
@<TRIPOS>BOND
     1    1    2 1   
     2    1   35 1   
     3    2    3 1   
     4    2   36 1   
     5    2   37 1   
     6    3    4 2   
     7    3    5 1   
     8    5    6 1   
     9    5   13 1   
    10    5   38 1   
    11    6    7 1   
    12    6   39 1   
    13    6   40 1   
    14    7    8 ar  
    15    7   12 ar  
    16    8    9 ar  
    17    8   41 1   
    18    9   10 ar  
    19    9   42 1   
    20   10   11 ar  
    21   10   43 1   
    22   11   12 ar  
    23   11   44 1   
    24   12   45 1   
    25   13   14 1   
    26   13   46 1   
    27   13   63 1   
    28   14   15 2   
    29   14   16 1   
    30   16   17 1   
    31   16   24 1   
    32   16   47 1   
    33   17   18 1   
    34   17   48 1   
    35   17   49 1   
    36   18   19 ar  
    37   18   23 ar  
    38   19   20 ar  
    39   19   50 1   
    40   20   21 ar  
    41   20   51 1   
    42   21   22 ar  
    43   21   52 1   
    44   22   23 ar  
    45   22   53 1   
    46   23   54 1   
    47   24   25 1   
    48   24   55 1   
    49   24   64 1   
    50   25   26 2   
    51   25   27 1   
    52   27   28 1   
    53   28   29 1   
    54   28   56 1   
    55   28   57 1   
    56   29   30 ar  
    57   29   34 ar  
    58   30   31 ar  
    59   30   58 1   
    60   31   32 ar  
    61   31   59 1   
    62   32   33 ar  
    63   32   60 1   
    64   33   34 ar  
    65   33   61 1   
    66   34   62 1   
@<TRIPOS>SUBSTRUCTURE
     1 T10         1 TEMP              0 ****  ****    0 ROOT
