@<TRIPOS>MOLECULE
T10
   62    58     1     0     0
SMALL
bcc


@<TRIPOS>ATOM
      1 O1         -4.3180   -3.0740   -1.3800 oh        1 T10     -0.313000
      2 C6         -3.0600   -2.7480   -1.9280 c3        1 T10     -0.068000
      3 C7         -1.9950   -2.8830   -0.8620 c2        1 T10      0.175000
      4 O8         -2.2510   -3.4470    0.1830 o         1 T10     -0.285000
      5 C9         -0.5950   -2.3710   -1.1220 c3        1 T10     -0.013000
      6 C10         0.2790   -3.5130   -1.5890 c3        1 T10     -0.130000
      7 C11         0.8230   -3.2010   -2.9670 c2        1 T10     -0.082000
      8 C12         2.1930   -3.1110   -3.1660 c1        1 T10     -0.117000
      9 C13         2.6960   -2.9130   -4.4410 c1        1 T10     -0.126500
     10 C14         1.8310   -2.8040   -5.5190 c1        1 T10     -0.126500
     11 C15         0.4620   -2.8940   -5.3200 c1        1 T10     -0.125000
     12 C16        -0.0420   -3.0920   -4.0440 c2        1 T10     -0.122000
     13 N17        -0.0610   -1.8240    0.0740 n         1 T10     -0.360000
     14 C18        -0.5100   -0.5630    0.5380 c2        1 T10      0.275000
     15 O19        -1.1670    0.1540   -0.1900 o         1 T10     -0.374000
     16 C20        -0.1850   -0.1160    1.9460 c3        1 T10      0.021000
     17 C21        -1.1920   -0.7050    2.9070 c3        1 T10     -0.124000
     18 C22        -0.5510   -0.8810    4.2630 c2        1 T10     -0.076000
     19 C23        -0.9980   -0.1330    5.3410 c2        1 T10     -0.113000
     20 C24        -0.4860   -0.3670    6.6070 c1        1 T10     -0.128000
     21 C25         0.4740   -1.3480    6.7960 c1        1 T10     -0.126500
     22 C26         0.9210   -2.0960    5.7190 c1        1 T10     -0.126500
     23 C27         0.4090   -1.8630    4.4530 c1        1 T10     -0.123000
     24 N28        -0.2360    1.3010    2.0170 n         1 T10     -0.320000
     25 C29         0.8180    2.0770    1.4730 c2        1 T10      0.391000
     26 O30         1.9410    1.6170    1.4110 o         1 T10     -0.400000
     27 O31         0.5650    3.3740    1.0030 os        1 T10     -0.274000
     28 C32         1.5580    3.8710    0.1380 c3        1 T10      0.039000
     29 C33         0.9720    4.9610   -0.7280 c2        1 T10     -0.089000
     30 C34         1.3570    6.2780   -0.5380 c2        1 T10     -0.120000
     31 C35         0.8460    7.2740   -1.3540 c1        1 T10     -0.131000
     32 C36        -0.0500    6.9530   -2.3610 c1        1 T10     -0.126500
     33 C37        -0.4360    5.6360   -2.5510 c1        1 T10     -0.126500
     34 C38         0.0750    4.6400   -1.7340 c1        1 T10     -0.103000
     35 HO1        -4.9560   -2.8960   -1.9740 ho        1 T10      0.219000
     36 HC61       -2.8590   -3.3560   -2.6690 h1        1 T10      0.114000
     37 HC62       -3.0770   -1.8260   -2.2580 h1        1 T10      0.114000
     38 HC9        -0.6240   -1.6800   -1.8130 h1        1 T10      0.146000
     39 H101       -0.2500   -4.3350   -1.6260 hc        1 T10      0.102500
     40 H102        1.0220   -3.6310   -0.9640 hc        1 T10      0.102500
     41 H12         2.8020   -3.1880   -2.4070 ha        1 T10      0.133000
     42 H13         3.6600   -2.8500   -4.5810 ha        1 T10      0.133167
     43 H14         2.1860   -2.6640   -6.4180 ha        1 T10      0.133167
     44 H15        -0.1470   -2.8170   -6.0790 ha        1 T10      0.134000
     45 H16        -1.0060   -3.1560   -3.9040 ha        1 T10      0.129000
     46 H17         0.5570   -2.2930    0.5530 hn        1 T10      0.240000
     47 H20         0.7120   -0.4220    2.1860 h1        1 T10      0.142000
     48 H211       -1.4910   -1.5750    2.5730 hc        1 T10      0.106000
     49 H212       -1.9590   -0.1040    2.9840 hc        1 T10      0.106000
     50 H23        -1.6740    0.5590    5.2080 ha        1 T10      0.133000
     51 H24        -0.8010    0.1600    7.3660 ha        1 T10      0.133000
     52 H25         0.8340   -1.5130    7.6880 ha        1 T10      0.133167
     53 H26         1.5970   -2.7880    5.8520 ha        1 T10      0.133167
     54 H27         0.7240   -2.3900    3.6940 ha        1 T10      0.129000
     55 H28        -0.9580    1.7130    2.3930 hn        1 T10      0.249000
     56 H321        2.2980    4.2360    0.6660 h1        1 T10      0.104000
     57 H322        1.8890    3.1450   -0.4310 h1        1 T10      0.104000
     58 H34         1.9890    6.5050    0.1710 ha        1 T10      0.133000
     59 H35         1.1180    8.2020   -1.2210 ha        1 T10      0.133000
     60 H36        -0.4100    7.6550   -2.9360 ha        1 T10      0.133167
     61 H37        -1.0670    5.4090   -3.2600 ha        1 T10      0.133167
     62 H38        -0.1970    3.7120   -1.8680 ha        1 T10      0.145000
@<TRIPOS>BOND
     1    1    2 1   
     2    1   35 1   
     3    2    3 1   
     4    2   36 1   
     5    2   37 1   
     6    3    4 1   
     7    3    5 1   
     8    5    6 1   
     9    5   13 1   
    10    5   38 1   
    11    6    7 1   
    12    6   39 1   
    13    6   40 1   
    14    7    8 1   
    15    7   12 1   
    16    8   41 1   
    17    9   10 1   
    18    9   42 1   
    19   10   43 1   
    20   11   12 1   
    21   11   44 1   
    22   12   45 1   
    23   13   14 1   
    24   13   46 1   
    25   14   15 1   
    26   14   16 1   
    27   16   17 1   
    28   16   24 1   
    29   16   47 1   
    30   17   18 1   
    31   17   48 1   
    32   17   49 1   
    33   18   19 1   
    34   18   23 1   
    35   19   20 1   
    36   19   50 1   
    37   20   51 1   
    38   21   22 1   
    39   21   52 1   
    40   22   53 1   
    41   23   54 1   
    42   24   25 1   
    43   24   55 1   
    44   25   26 1   
    45   25   27 1   
    46   27   28 1   
    47   28   29 1   
    48   28   56 1   
    49   28   57 1   
    50   29   30 1   
    51   29   34 1   
    52   30   31 1   
    53   30   58 1   
    54   31   59 1   
    55   32   33 1   
    56   32   60 1   
    57   33   61 1   
    58   34   62 1   
@<TRIPOS>SUBSTRUCTURE
     1 T10         1 TEMP              0 ****  ****    0 ROOT
