@<TRIPOS>MOLECULE
T10
   64    66     1     0     0
SMALL
bcc


@<TRIPOS>ATOM
      1 O1          1.9180   -2.4890    4.6880 oh        1 T10     -0.555800
      2 C6          3.0030   -2.3680    3.8080 c3        1 T10      0.057400
      3 C7          3.7380   -1.0760    4.0870 c         1 T10      0.530100
      4 O8          3.8710   -0.5940    5.2150 o         1 T10     -0.537100
      5 C9          4.2950   -0.3490    2.8610 c3        1 T10      0.008500
      6 C10         5.3760   -1.2220    2.1940 c3        1 T10     -0.041100
      7 C11         5.9840   -0.5400    1.0230 ca        1 T10     -0.181300
      8 C12         7.2150    0.1170    1.1560 ca        1 T10     -0.131500
      9 C13         7.8140    0.7120    0.0460 ca        1 T10     -0.108000
     10 C14         7.1890    0.6530   -1.2020 ca        1 T10     -0.085000
     11 C15         5.9650   -0.0040   -1.3380 ca        1 T10     -0.108000
     12 C16         5.3640   -0.6010   -0.2310 ca        1 T10     -0.131500
     13 N17         4.8570    1.0140    3.2020 n4        1 T10     -0.654800
     14 C18         3.8130    2.0650    3.3570 c         1 T10      0.520100
     15 O19         3.4750    2.6960    2.3650 o         1 T10     -0.377100
     16 C20         3.2350    2.3100    4.7580 c3        1 T10      0.062500
     17 C21         1.7070    2.0750    4.7100 c3        1 T10     -0.038100
     18 C22         1.0700    2.5100    5.9790 ca        1 T10     -0.193300
     19 C23         0.5170    3.7960    6.0790 ca        1 T10     -0.127500
     20 C24        -0.1370    4.1850    7.2450 ca        1 T10     -0.108000
     21 C25        -0.2450    3.2960    8.3180 ca        1 T10     -0.078000
     22 C26         0.3020    2.0160    8.2210 ca        1 T10     -0.108000
     23 C27         0.9580    1.6210    7.0540 ca        1 T10     -0.127500
     24 N28         3.5530    3.7070    5.2060 n4        1 T10     -0.655800
     25 C29         5.0310    3.8940    5.4460 c         1 T10      0.643100
     26 O30         5.8320    3.1160    4.9270 o         1 T10     -0.525000
     27 O31         5.2720    4.9310    6.2240 os        1 T10     -0.383900
     28 C32         6.7200    5.2370    6.5350 c3        1 T10      0.240700
     29 C33         6.6510    6.4440    7.3730 ca        1 T10     -0.178300
     30 C34         6.5770    6.3270    8.7700 ca        1 T10     -0.077000
     31 C35         6.5770    7.4700    9.5640 ca        1 T10     -0.129000
     32 C36         6.6440    8.7340    8.9730 ca        1 T10     -0.058000
     33 C37         6.7090    8.8550    7.5820 ca        1 T10     -0.129000
     34 C38         6.7090    7.7160    6.7820 ca        1 T10     -0.077000
     35 HO1         2.2440   -2.8420    5.5300 ho        1 T10      0.437000
     36 HC61        3.7320   -3.2210    3.8930 h1        1 T10      0.103700
     37 HC62        2.5510   -2.3560    2.7760 h1        1 T10      0.103700
     38 HC9         3.4570   -0.1790    2.1170 hx        1 T10      0.137700
     39 H101        4.8680   -2.1740    1.8700 hc        1 T10      0.099700
     40 H102        6.1640   -1.4990    2.9460 hc        1 T10      0.099700
     41 H12         7.7430    0.1170    2.1220 ha        1 T10      0.137000
     42 H13         8.7920    1.2090    0.1490 ha        1 T10      0.164000
     43 H14         7.6710    1.1110   -2.0820 ha        1 T10      0.169000
     44 H15         5.4790   -0.0670   -2.3260 ha        1 T10      0.164000
     45 H16         4.4120   -1.1410   -0.3520 ha        1 T10      0.137000
     46 H17         5.5010    1.2860    2.4280 hn        1 T10      0.492800
     47 H20         3.6850    1.6010    5.5270 hx        1 T10      0.166700
     48 H211        1.5520    0.9710    4.5550 hc        1 T10      0.103700
     49 H212        1.2640    2.6180    3.8320 hc        1 T10      0.103700
     50 H23         0.5460    4.4820    5.2180 ha        1 T10      0.139500
     51 H24        -0.5890    5.1890    7.3150 ha        1 T10      0.168000
     52 H25        -0.7770    3.6020    9.2350 ha        1 T10      0.172000
     53 H26         0.2030    1.3080    9.0600 ha        1 T10      0.168000
     54 H27         1.3650    0.6010    6.9740 ha        1 T10      0.139500
     55 H28         3.2360    4.3910    4.5030 hn        1 T10      0.499300
     56 H321        7.2180    5.3930    5.5450 h1        1 T10      0.088200
     57 H322        7.1130    4.3320    7.0630 h1        1 T10      0.088200
     58 H34         6.5340    5.3320    9.2390 ha        1 T10      0.138000
     59 H35         6.5320    7.3780   10.6610 ha        1 T10      0.163000
     60 H36         6.6490    9.6380    9.6040 ha        1 T10      0.166000
     61 H37         6.7670    9.8530    7.1190 ha        1 T10      0.163000
     62 H38         6.7700    7.8140    5.6870 ha        1 T10      0.138000
     63 H172        5.4030    0.9480    4.0760 hn        1 T10      0.492800
     64 H282        3.0230    3.8930    6.0830 hn        1 T10      0.499300
@<TRIPOS>BOND
     1    1    2 1   
     2    1   35 1   
     3    2    3 1   
     4    2   36 1   
     5    2   37 1   
     6    3    4 2   
     7    3    5 1   
     8    5    6 1   
     9    5   13 1   
    10    5   38 1   
    11    6    7 1   
    12    6   39 1   
    13    6   40 1   
    14    7    8 ar  
    15    7   12 ar  
    16    8    9 ar  
    17    8   41 1   
    18    9   10 ar  
    19    9   42 1   
    20   10   11 ar  
    21   10   43 1   
    22   11   12 ar  
    23   11   44 1   
    24   12   45 1   
    25   13   14 1   
    26   13   46 1   
    27   13   63 1   
    28   14   15 2   
    29   14   16 1   
    30   16   17 1   
    31   16   24 1   
    32   16   47 1   
    33   17   18 1   
    34   17   48 1   
    35   17   49 1   
    36   18   19 ar  
    37   18   23 ar  
    38   19   20 ar  
    39   19   50 1   
    40   20   21 ar  
    41   20   51 1   
    42   21   22 ar  
    43   21   52 1   
    44   22   23 ar  
    45   22   53 1   
    46   23   54 1   
    47   24   25 1   
    48   24   55 1   
    49   24   64 1   
    50   25   26 2   
    51   25   27 1   
    52   27   28 1   
    53   28   29 1   
    54   28   56 1   
    55   28   57 1   
    56   29   30 ar  
    57   29   34 ar  
    58   30   31 ar  
    59   30   58 1   
    60   31   32 ar  
    61   31   59 1   
    62   32   33 ar  
    63   32   60 1   
    64   33   34 ar  
    65   33   61 1   
    66   34   62 1   
@<TRIPOS>SUBSTRUCTURE
     1 T10         1 TEMP              0 ****  ****    0 ROOT
