@<TRIPOS>MOLECULE
T10
   62    64     1     0     0
SMALL
bcc


@<TRIPOS>ATOM
      1 O1         -5.3780    0.6130    4.0960 oh        1 T10     -0.587800
      2 C6         -4.4130    0.9450    3.1220 c3        1 T10      0.029400
      3 C7         -4.4990    0.0850    1.8900 c         1 T10      0.519100
      4 O8         -5.1770   -0.9440    1.8490 o         1 T10     -0.521100
      5 C9         -3.6470    0.5600    0.7050 c3        1 T10      0.016700
      6 C10        -4.5800    0.7220   -0.5080 c3        1 T10     -0.047100
      7 C11        -3.8520    1.1850   -1.7180 ca        1 T10     -0.093300
      8 C12        -3.4580    0.2680   -2.7000 ca        1 T10     -0.126000
      9 C13        -2.7780    0.7030   -3.8360 ca        1 T10     -0.121500
     10 C14        -2.4890    2.0570   -4.0020 ca        1 T10     -0.123000
     11 C15        -2.8810    2.9760   -3.0290 ca        1 T10     -0.121500
     12 C16        -3.5600    2.5430   -1.8910 ca        1 T10     -0.126000
     13 N17        -2.5470   -0.3420    0.4590 n         1 T10     -0.548900
     14 C18        -1.3680   -0.2460    1.1610 c         1 T10      0.625100
     15 O19        -1.2300    0.5600    2.1030 o         1 T10     -0.618100
     16 C20        -0.2240   -1.2240    0.7790 c3        1 T10      0.049700
     17 C21        -0.2490   -2.3380    1.8450 c3        1 T10     -0.039100
     18 C22         0.6830   -3.4490    1.5210 ca        1 T10     -0.082300
     19 C23         1.8520   -3.6340    2.2680 ca        1 T10     -0.119000
     20 C24         2.7140   -4.6890    1.9730 ca        1 T10     -0.126500
     21 C25         2.4170   -5.5660    0.9300 ca        1 T10     -0.126000
     22 C26         1.2540   -5.3860    0.1820 ca        1 T10     -0.126500
     23 C27         0.3890   -4.3330    0.4760 ca        1 T10     -0.119000
     24 N28         1.0440   -0.5390    0.7190 n         1 T10     -0.513900
     25 C29         1.5510   -0.1550   -0.5100 c         1 T10      0.736100
     26 O30         1.2010   -0.5410   -1.6380 o         1 T10     -0.589000
     27 O31         2.6090    0.7220   -0.3960 os        1 T10     -0.434900
     28 C32         3.2580    1.0430   -1.6450 c3        1 T10      0.196700
     29 C33         4.3640    1.9960   -1.3430 ca        1 T10     -0.097300
     30 C34         5.1050    1.8980   -0.1610 ca        1 T10     -0.111000
     31 C35         6.1580    2.7800    0.0780 ca        1 T10     -0.131500
     32 C36         6.4790    3.7580   -0.8630 ca        1 T10     -0.124000
     33 C37         5.7420    3.8570   -2.0430 ca        1 T10     -0.131500
     34 C38         4.6840    2.9830   -2.2830 ca        1 T10     -0.111000
     35 HO1        -5.4450   -0.3520    4.1270 ho        1 T10      0.417000
     36 HC61       -4.6110    2.0220    2.8690 h1        1 T10      0.083700
     37 HC62       -3.3730    0.8470    3.5450 h1        1 T10      0.083700
     38 HC9        -3.2140    1.5750    0.9700 h1        1 T10      0.085700
     39 H101       -5.0980   -0.2540   -0.7090 hc        1 T10      0.070700
     40 H102       -5.3690    1.4700   -0.2270 hc        1 T10      0.070700
     41 H12        -3.6920   -0.8010   -2.5780 ha        1 T10      0.130500
     42 H13        -2.4680   -0.0240   -4.6010 ha        1 T10      0.135500
     43 H14        -1.9510    2.4000   -4.8980 ha        1 T10      0.135000
     44 H15        -2.6550    4.0450   -3.1580 ha        1 T10      0.135500
     45 H16        -3.8690    3.2700   -1.1250 ha        1 T10      0.130500
     46 H17        -2.6040   -0.9180   -0.3480 hn        1 T10      0.327500
     47 H20        -0.4130   -1.6900   -0.2350 h1        1 T10      0.101700
     48 H211       -0.0100   -1.9000    2.8510 hc        1 T10      0.067700
     49 H212       -1.3010   -2.7330    1.8890 hc        1 T10      0.067700
     50 H23         2.0920   -2.9430    3.0910 ha        1 T10      0.130000
     51 H24         3.6310   -4.8270    2.5640 ha        1 T10      0.133000
     52 H25         3.0990   -6.3960    0.6970 ha        1 T10      0.133000
     53 H26         1.0170   -6.0750   -0.6420 ha        1 T10      0.133000
     54 H27        -0.5280   -4.1950   -0.1160 ha        1 T10      0.130000
     55 H28         1.3050   -0.0030    1.5180 hn        1 T10      0.336500
     56 H321        3.6550    0.0920   -2.0930 h1        1 T10      0.064700
     57 H322        2.4970    1.4890   -2.3390 h1        1 T10      0.064700
     58 H34         4.8440    1.1280    0.5810 ha        1 T10      0.138500
     59 H35         6.7360    2.7030    1.0110 ha        1 T10      0.133000
     60 H36         7.3120    4.4520   -0.6740 ha        1 T10      0.132000
     61 H37         5.9930    4.6290   -2.7850 ha        1 T10      0.133000
     62 H38         4.0990    3.0670   -3.2110 ha        1 T10      0.138500
@<TRIPOS>BOND
     1    1    2 1   
     2    1   35 1   
     3    2    3 1   
     4    2   36 1   
     5    2   37 1   
     6    3    4 2   
     7    3    5 1   
     8    5    6 1   
     9    5   13 1   
    10    5   38 1   
    11    6    7 1   
    12    6   39 1   
    13    6   40 1   
    14    7    8 ar  
    15    7   12 ar  
    16    8    9 ar  
    17    8   41 1   
    18    9   10 ar  
    19    9   42 1   
    20   10   11 ar  
    21   10   43 1   
    22   11   12 ar  
    23   11   44 1   
    24   12   45 1   
    25   13   14 1   
    26   13   46 1   
    27   14   15 2   
    28   14   16 1   
    29   16   17 1   
    30   16   24 1   
    31   16   47 1   
    32   17   18 1   
    33   17   48 1   
    34   17   49 1   
    35   18   19 ar  
    36   18   23 ar  
    37   19   20 ar  
    38   19   50 1   
    39   20   21 ar  
    40   20   51 1   
    41   21   22 ar  
    42   21   52 1   
    43   22   23 ar  
    44   22   53 1   
    45   23   54 1   
    46   24   25 1   
    47   24   55 1   
    48   25   26 2   
    49   25   27 1   
    50   27   28 1   
    51   28   29 1   
    52   28   56 1   
    53   28   57 1   
    54   29   30 ar  
    55   29   34 ar  
    56   30   31 ar  
    57   30   58 1   
    58   31   32 ar  
    59   31   59 1   
    60   32   33 ar  
    61   32   60 1   
    62   33   34 ar  
    63   33   61 1   
    64   34   62 1   
@<TRIPOS>SUBSTRUCTURE
     1 T10         1 TEMP              0 ****  ****    0 ROOT
