@<TRIPOS>MOLECULE
T11
   30    31     1     0     0
SMALL
bcc


@<TRIPOS>ATOM
      1 F17        -5.0340   -0.0800   -0.4190 f         1 T11     -0.234633
      2 C14        -3.7010   -0.2140   -0.7320 c3        1 T11      0.654900
      3 F15        -3.6620   -1.2470   -1.6290 f         1 T11     -0.234633
      4 F16        -3.4250    0.9110   -1.4610 f         1 T11     -0.234633
      5 C13        -2.7660   -0.4210    0.5120 cx        1 T11      0.288700
      6 N19        -3.2040   -1.4710    1.4340 n3        1 T11     -0.544500
      7 N18        -3.2710   -0.1440    1.8550 n3        1 T11     -0.544500
      8 C1         -1.3370   -0.1780    0.1860 ca        1 T11     -0.138300
      9 C6         -0.6620    0.9350    0.6950 ca        1 T11     -0.098000
     10 C5          0.6840    1.1290    0.3930 ca        1 T11     -0.134000
     11 C4          1.3760    0.2150   -0.4130 ca        1 T11     -0.005300
     12 C3          0.6890   -0.9010   -0.9150 ca        1 T11     -0.134000
     13 C2         -0.6550   -1.0990   -0.6180 ca        1 T11     -0.098000
     14 C7          2.8110    0.4210   -0.7400 c3        1 T11     -0.042100
     15 CA          3.7460   -0.0760    0.3710 c3        1 T11      0.020500
     16 N           3.6870    0.7470    1.5710 n3        1 T11     -0.889800
     17 C           5.1810   -0.2300   -0.2420 c         1 T11      0.888600
     18 O           6.1460    0.2930    0.3820 o         1 T11     -0.837800
     19 OXT         5.2860   -0.8870   -1.3130 o         1 T11     -0.837800
     20 HN19       -2.4520   -1.9720    1.8930 hn        1 T11      0.381300
     21 HN18       -4.2320    0.1780    1.8910 hn        1 T11      0.381300
     22 H6         -1.1880    1.6550    1.3400 ha        1 T11      0.129500
     23 H5          1.2230    1.9930    0.8100 ha        1 T11      0.146500
     24 H3          1.2280   -1.6290   -1.5420 ha        1 T11      0.146500
     25 H2         -1.1900   -1.9720   -1.0220 ha        1 T11      0.129500
     26 H71         3.0860   -0.1480   -1.6710 hc        1 T11      0.064200
     27 H72         2.9990    1.5090   -0.9390 hc        1 T11      0.064200
     28 HA          3.4170   -1.1140    0.6680 h1        1 T11      0.045700
     29 H           4.3860    0.3960    2.2050 hn        1 T11      0.332300
     30 HN2         3.9770    1.6790    1.3270 hn        1 T11      0.332300
@<TRIPOS>BOND
     1    1    2 1   
     2    2    3 1   
     3    2    4 1   
     4    2    5 1   
     5    5    6 1   
     6    5    7 1   
     7    5    8 1   
     8    6    7 1   
     9    6   20 1   
    10    7   21 1   
    11    8    9 ar  
    12    8   13 ar  
    13    9   10 ar  
    14    9   22 1   
    15   10   11 ar  
    16   10   23 1   
    17   11   12 ar  
    18   11   14 1   
    19   12   13 ar  
    20   12   24 1   
    21   13   25 1   
    22   14   15 1   
    23   14   26 1   
    24   14   27 1   
    25   15   16 1   
    26   15   17 1   
    27   15   28 1   
    28   16   29 1   
    29   16   30 1   
    30   17   18 1   
    31   17   19 1   
@<TRIPOS>SUBSTRUCTURE
     1 T11         1 TEMP              0 ****  ****    0 ROOT
