@<TRIPOS>MOLECULE
T12
   56    58     1     0     0
SMALL
bcc


@<TRIPOS>ATOM
      1 O56        -0.2040   -1.6890   -3.1810 o         1 T12     -0.201000
      2 N54         0.9140   -1.8750   -2.7840 no        1 T12      0.314200
      3 O55         1.4020   -2.9710   -2.7230 o         1 T12     -0.201000
      4 C13         1.7260   -0.7050   -2.3530 ca        1 T12     -0.185200
      5 C12         1.1820    0.5870   -2.4480 ca        1 T12     -0.045000
      6 C11         1.9480    1.6750   -2.0360 ca        1 T12     -0.145000
      7 C10         3.2360    1.4860   -1.5380 ca        1 T12     -0.038000
      8 C14         3.0240   -0.9120   -1.8580 ca        1 T12     -0.042000
      9 C15         3.7750    0.1950   -1.4580 ca        1 T12     -0.158600
     10 C51         5.1550    0.0550   -0.9040 c         1 T12      0.674700
     11 O53         5.5480    0.7720    0.0330 o         1 T12     -0.565100
     12 N50         5.9520   -0.9470   -1.4600 n         1 T12     -0.455400
     13 C21         7.3500   -0.9930   -1.2320 cc        1 T12      0.453400
     14 N22         8.2940   -0.8370   -2.2060 nd        1 T12     -0.579100
     15 C3          9.5250   -1.0210   -1.5580 ca        1 T12      0.084400
     16 C4         10.8310   -0.9830   -2.0660 ca        1 T12     -0.077000
     17 C5         11.8700   -1.1840   -1.1590 ca        1 T12      0.088100
     18 O23        13.1580   -1.0120   -1.6700 os        1 T12     -0.366200
     19 C24        14.1220   -1.9670   -1.4300 c         1 T12      0.639100
     20 O26        13.8440   -2.9370   -0.7300 o         1 T12     -0.520000
     21 C25        15.4380   -1.6310   -2.1060 c3        1 T12     -0.087000
     22 C35        15.9260   -0.2810   -1.6030 c3        1 T12     -0.090433
     23 C31        16.4510   -2.7130   -1.7630 c3        1 T12     -0.090433
     24 C27        15.2200   -1.5800   -3.6110 c3        1 T12     -0.090433
     25 C6         11.6590   -1.4380    0.2140 ca        1 T12     -0.115000
     26 C2          9.3040   -1.2820   -0.1460 ca        1 T12     -0.072200
     27 C1         10.3770   -1.4900    0.7330 ca        1 T12     -0.115000
     28 N20         7.9170   -1.2480    0.0520 na        1 T12     -0.138300
     29 C39         7.2350   -1.5330    1.2800 c3        1 T12      0.040300
     30 C40         6.7110   -2.9640    1.4020 c3        1 T12     -0.109400
     31 C43         6.0120   -3.1240    2.7420 c3        1 T12      0.134400
     32 O46         5.5140   -4.4520    2.7860 oh        1 T12     -0.596800
     33 H12         0.1610    0.7340   -2.8410 ha        1 T12      0.177000
     34 H11         1.5280    2.6920   -2.1010 ha        1 T12      0.158000
     35 H10         3.8380    2.3450   -1.1940 ha        1 T12      0.169000
     36 H14         3.4230   -1.9390   -1.7780 ha        1 T12      0.180000
     37 HN50        5.6750   -1.3190   -2.3450 hn        1 T12      0.339500
     38 H4         11.0280   -0.7870   -3.1280 ha        1 T12      0.162000
     39 H351       15.1710    0.5110   -1.8270 hc        1 T12      0.049033
     40 H352       16.0960   -0.3140   -0.5000 hc        1 T12      0.049033
     41 H353       16.8880   -0.0180   -2.1060 hc        1 T12      0.049033
     42 H311       17.4250   -2.4860   -2.2590 hc        1 T12      0.049033
     43 H312       16.6060   -2.7620   -0.6580 hc        1 T12      0.049033
     44 H313       16.0860   -3.7090   -2.1110 hc        1 T12      0.049033
     45 H271       16.1800   -1.3230   -4.1200 hc        1 T12      0.049033
     46 H272       14.8670   -2.5700   -3.9880 hc        1 T12      0.049033
     47 H273       14.4570   -0.8040   -3.8640 hc        1 T12      0.049033
     48 H6         12.5300   -1.6170    0.8630 ha        1 T12      0.156000
     49 H1         10.2080   -1.6910    1.7990 ha        1 T12      0.141000
     50 H391        7.9580   -1.3350    2.1240 h1        1 T12      0.073200
     51 H392        6.3730   -0.8100    1.3830 h1        1 T12      0.073200
     52 H401        7.5480   -3.7050    1.3280 hc        1 T12      0.069700
     53 H402        5.9880   -3.1960    0.5770 hc        1 T12      0.069700
     54 H431        5.1640   -2.3930    2.8380 h1        1 T12      0.022700
     55 H432        6.7330   -2.9560    3.5870 h1        1 T12      0.022700
     56 HO46        5.0800   -4.5540    3.6410 ho        1 T12      0.403000
@<TRIPOS>BOND
     1    1    2 1   
     2    2    3 1   
     3    2    4 1   
     4    4    5 ar  
     5    4    8 ar  
     6    5    6 ar  
     7    5   33 1   
     8    6    7 ar  
     9    6   34 1   
    10    7    9 ar  
    11    7   35 1   
    12    8    9 ar  
    13    8   36 1   
    14    9   10 1   
    15   10   11 2   
    16   10   12 1   
    17   12   13 1   
    18   12   37 1   
    19   13   14 2   
    20   13   28 1   
    21   14   15 1   
    22   15   16 ar  
    23   15   26 ar  
    24   16   17 ar  
    25   16   38 1   
    26   17   18 1   
    27   17   25 ar  
    28   18   19 1   
    29   19   20 2   
    30   19   21 1   
    31   21   22 1   
    32   21   23 1   
    33   21   24 1   
    34   22   39 1   
    35   22   40 1   
    36   22   41 1   
    37   23   42 1   
    38   23   43 1   
    39   23   44 1   
    40   24   45 1   
    41   24   46 1   
    42   24   47 1   
    43   25   27 ar  
    44   25   48 1   
    45   26   27 ar  
    46   26   28 1   
    47   27   49 1   
    48   28   29 1   
    49   29   30 1   
    50   29   50 1   
    51   29   51 1   
    52   30   31 1   
    53   30   52 1   
    54   30   53 1   
    55   31   32 1   
    56   31   54 1   
    57   31   55 1   
    58   32   56 1   
@<TRIPOS>SUBSTRUCTURE
     1 T12         1 TEMP              0 ****  ****    0 ROOT
