@<TRIPOS>MOLECULE
T12
   56    51     1     0     0
SMALL
bcc


@<TRIPOS>ATOM
      1 O56         4.7280    6.2240    4.1950 o         1 T12     -0.481700
      2 N54         3.5810    6.9620    4.2850 no        1 T12      0.832400
      3 O55         3.5780    8.0180    4.9080 o         1 T12     -0.481700
      4 C13         2.3720    6.4740    3.7050 c2        1 T12     -0.138000
      5 C12         1.1490    7.0160    4.0890 c2        1 T12     -0.044000
      6 C11        -0.0370    6.4790    3.5950 c1        1 T12     -0.145000
      7 C10        -0.0000    5.4000    2.7180 c1        1 T12     -0.039000
      8 C14         2.4090    5.3930    2.8260 c1        1 T12     -0.043000
      9 C15         1.2240    4.8560    2.3320 c1        1 T12     -0.134000
     10 C51         1.2590    3.5780    1.4780 c2        1 T12      0.349000
     11 O53         2.3230    3.1470    1.0720 o         1 T12     -0.326000
     12 N50         0.0300    2.9480    1.0790 n         1 T12     -0.295000
     13 C21         0.0610    1.8070    0.2000 c2        1 T12      0.117000
     14 N22         0.9400    1.3080   -0.7160 n2        1 T12     -0.147000
     15 C3          0.5220    0.0570   -1.0640 c1        1 T12     -0.051000
     16 C4          1.0590   -0.9110   -1.9440 c1        1 T12     -0.078000
     17 C5          0.4270   -2.1400   -2.0950 c1        1 T12      0.042000
     18 O23         0.0540   -3.4170   -2.6000 o         1 T12     -0.279000
     19 C24         1.0470   -4.0260   -3.4130 c2        1 T12      0.309000
     20 O26         1.8560   -3.3350   -4.0060 o         1 T12     -0.279000
     21 C25         1.0370   -5.5490   -3.6240 c3        1 T12     -0.037000
     22 C35         0.4060   -6.2290   -2.4050 c3        1 T12     -0.208333
     23 C31         2.4760   -6.0500   -3.8010 c3        1 T12     -0.208333
     24 C27         0.2210   -5.8860   -4.8770 c3        1 T12     -0.208333
     25 C6         -0.7340   -2.4190   -1.3790 c2        1 T12     -0.115000
     26 C2         -0.6200   -0.2170   -0.3600 c1        1 T12     -0.035000
     27 C1         -1.2620   -1.4680   -0.5140 c1        1 T12     -0.116000
     28 N20        -0.9030    0.8640    0.4190 n1        1 T12     -0.164000
     29 C39        -2.3380    0.9860    0.5190 c2        1 T12     -0.005000
     30 C40        -2.7920    0.5620    1.9240 c3        1 T12     -0.192000
     31 C43        -4.2770    0.1790    1.8880 c3        1 T12     -0.014000
     32 O46        -4.6260   -0.4700    3.0970 oh        1 T12     -0.322000
     33 H12         1.1220    7.7770    4.7090 ha        1 T12      0.177000
     34 H11        -0.8990    6.8620    3.8660 ha        1 T12      0.157000
     35 H10        -0.8340    5.0230    2.3710 ha        1 T12      0.166000
     36 H14         3.2690    5.0120    2.5560 ha        1 T12      0.178000
     37 HN50       -0.7580    3.2060    1.4600 hn        1 T12      0.251000
     38 H4          1.8390   -0.6900   -2.4990 ha        1 T12      0.171000
     39 H351        0.4810   -7.2060   -2.4990 hc        1 T12      0.088000
     40 H352        0.8740   -5.9410   -1.5890 hc        1 T12      0.088000
     41 H353       -0.5420   -5.9780   -2.3440 hc        1 T12      0.088000
     42 H311        2.8620   -5.6560   -4.6130 hc        1 T12      0.088000
     43 H312        3.0140   -5.7860   -3.0210 hc        1 T12      0.088000
     44 H313        2.4740   -7.0300   -3.8820 hc        1 T12      0.088000
     45 H271        0.6100   -5.4290   -5.6540 hc        1 T12      0.088000
     46 H272        0.2360   -6.8570   -5.0260 hc        1 T12      0.088000
     47 H273       -0.7080   -5.5880   -4.7530 hc        1 T12      0.088000
     48 H6         -1.1800   -3.2870   -1.4860 ha        1 T12      0.148000
     49 H1         -2.0790   -1.6640   -0.0110 ha        1 T12      0.143000
     50 H391       -2.5990    1.9190    0.3580 ha        1 T12      0.099500
     51 H392       -2.7640    0.4060   -0.1520 ha        1 T12      0.099500
     52 H401       -2.2620   -0.2110    2.2210 hc        1 T12      0.120000
     53 H402       -2.6620    1.3090    2.5500 hc        1 T12      0.120000
     54 H431       -4.8230    0.9910    1.7830 h1        1 T12      0.058000
     55 H432       -4.4410   -0.4250    1.1330 h1        1 T12      0.058000
     56 HO46       -5.4000   -0.9000    2.9910 ho        1 T12      0.200000
@<TRIPOS>BOND
     1    1    2 2   
     2    2    3 2   
     3    2    4 1   
     4    4    5 1   
     5    4    8 1   
     6    5    6 1   
     7    5   33 1   
     8    6   34 1   
     9    7    9 1   
    10    7   35 1   
    11    8   36 1   
    12    9   10 1   
    13   10   11 1   
    14   10   12 1   
    15   12   13 1   
    16   12   37 1   
    17   13   14 1   
    18   13   28 1   
    19   14   15 1   
    20   15   26 1   
    21   16   17 1   
    22   16   38 1   
    23   17   25 1   
    24   18   19 1   
    25   19   20 1   
    26   19   21 1   
    27   21   22 1   
    28   21   23 1   
    29   21   24 1   
    30   22   39 1   
    31   22   40 1   
    32   22   41 1   
    33   23   42 1   
    34   23   43 1   
    35   23   44 1   
    36   24   45 1   
    37   24   46 1   
    38   24   47 1   
    39   25   27 1   
    40   25   48 1   
    41   27   49 1   
    42   29   30 1   
    43   29   50 1   
    44   29   51 1   
    45   30   31 1   
    46   30   52 1   
    47   30   53 1   
    48   31   32 1   
    49   31   54 1   
    50   31   55 1   
    51   32   56 1   
@<TRIPOS>SUBSTRUCTURE
     1 T12         1 TEMP              0 ****  ****    0 ROOT
