@<TRIPOS>MOLECULE
T12
   56    58     1     0     0
SMALL
bcc


@<TRIPOS>ATOM
      1 O56         5.0440   14.6590    2.4330 o         1 T12     -0.201000
      2 N54         4.4530   13.7690    1.8850 no        1 T12      0.314200
      3 O55         4.4170   13.6610    0.6890 o         1 T12     -0.201000
      4 C13         3.7400   12.7620    2.7170 ca        1 T12     -0.185200
      5 C12         3.7990   12.8560    4.1170 ca        1 T12     -0.045000
      6 C11         3.1220   11.9120    4.8870 ca        1 T12     -0.145000
      7 C10         2.3990   10.8890    4.2770 ca        1 T12     -0.038000
      8 C14         3.0200   11.7340    2.0870 ca        1 T12     -0.042000
      9 C15         2.3570   10.7960    2.8790 ca        1 T12     -0.158600
     10 C51         1.5550    9.6850    2.2850 c         1 T12      0.674700
     11 O53         0.4840    9.3160    2.7990 o         1 T12     -0.565100
     12 N50         2.0470    9.1210    1.1070 n         1 T12     -0.455400
     13 C21         1.5490    7.8920    0.6090 cc        1 T12      0.453400
     14 N22         2.2890    6.7500    0.4980 nd        1 T12     -0.579100
     15 C3          1.4300    5.8120   -0.0960 ca        1 T12      0.084400
     16 C4          1.6570    4.4750   -0.4530 ca        1 T12     -0.077000
     17 C5          0.5880    3.7790   -1.0130 ca        1 T12      0.088100
     18 O23         0.8070    2.4180   -1.2380 os        1 T12     -0.366200
     19 C24         0.4870    1.8670   -2.4600 c         1 T12      0.639100
     20 O26        -0.0280    2.5760   -3.3210 o         1 T12     -0.520000
     21 C25         0.8410    0.3940   -2.5310 c3        1 T12     -0.087000
     22 C35         0.0960   -0.3510   -1.4330 c3        1 T12     -0.090433
     23 C31         0.4290   -0.1400   -3.8960 c3        1 T12     -0.090433
     24 C27         2.3430    0.2370   -2.3420 c3        1 T12     -0.090433
     25 C6         -0.6760    4.3610   -1.2460 ca        1 T12     -0.115000
     26 C2          0.1310    6.4140   -0.3330 ca        1 T12     -0.072200
     27 C1         -0.9170    5.6820   -0.9090 ca        1 T12     -0.115000
     28 N20         0.2130    7.7340    0.1310 na        1 T12     -0.138300
     29 C39        -0.8120    8.7300    0.0260 c3        1 T12      0.040300
     30 C40        -0.6660    9.6740   -1.1680 c3        1 T12     -0.109400
     31 C43        -1.8120   10.6720   -1.1540 c3        1 T12      0.134400
     32 O46        -1.6060   11.5430   -2.2540 oh        1 T12     -0.596800
     33 H12         4.3710   13.6690    4.5970 ha        1 T12      0.177000
     34 H11         3.1580   11.9810    5.9860 ha        1 T12      0.158000
     35 H10         1.8480   10.1500    4.8850 ha        1 T12      0.169000
     36 H14         2.9760   11.6910    0.9840 ha        1 T12      0.180000
     37 HN50        3.0060    9.2900    0.8790 hn        1 T12      0.339500
     38 H4          2.6300    3.9930   -0.2840 ha        1 T12      0.162000
     39 H351        0.3740    0.0580   -0.4320 hc        1 T12      0.049033
     40 H352       -1.0070   -0.2470   -1.5710 hc        1 T12      0.049033
     41 H353        0.3610   -1.4350   -1.4690 hc        1 T12      0.049033
     42 H311       -0.6700   -0.0170   -4.0440 hc        1 T12      0.049033
     43 H312        0.6890   -1.2230   -3.9680 hc        1 T12      0.049033
     44 H313        0.9580    0.4180   -4.7050 hc        1 T12      0.049033
     45 H271        2.6510    0.6520   -1.3520 hc        1 T12      0.049033
     46 H272        2.6150   -0.8450   -2.3830 hc        1 T12      0.049033
     47 H273        2.8950    0.7770   -3.1480 hc        1 T12      0.049033
     48 H6         -1.4640    3.7560   -1.7210 ha        1 T12      0.156000
     49 H1         -1.8990    6.1400   -1.0920 ha        1 T12      0.141000
     50 H391       -0.8200    9.3340    0.9810 h1        1 T12      0.073200
     51 H392       -1.8010    8.1910   -0.0520 h1        1 T12      0.073200
     52 H401       -0.6800    9.1040   -2.1320 hc        1 T12      0.069700
     53 H402        0.3080   10.2260   -1.1210 hc        1 T12      0.069700
     54 H431       -1.8160   11.2590   -0.1960 h1        1 T12      0.022700
     55 H432       -2.7980   10.1450   -1.2600 h1        1 T12      0.022700
     56 HO46       -2.3390   12.1700   -2.2500 ho        1 T12      0.403000
@<TRIPOS>BOND
     1    1    2 1   
     2    2    3 1   
     3    2    4 1   
     4    4    5 ar  
     5    4    8 ar  
     6    5    6 ar  
     7    5   33 1   
     8    6    7 ar  
     9    6   34 1   
    10    7    9 ar  
    11    7   35 1   
    12    8    9 ar  
    13    8   36 1   
    14    9   10 1   
    15   10   11 2   
    16   10   12 1   
    17   12   13 1   
    18   12   37 1   
    19   13   14 2   
    20   13   28 1   
    21   14   15 1   
    22   15   16 ar  
    23   15   26 ar  
    24   16   17 ar  
    25   16   38 1   
    26   17   18 1   
    27   17   25 ar  
    28   18   19 1   
    29   19   20 2   
    30   19   21 1   
    31   21   22 1   
    32   21   23 1   
    33   21   24 1   
    34   22   39 1   
    35   22   40 1   
    36   22   41 1   
    37   23   42 1   
    38   23   43 1   
    39   23   44 1   
    40   24   45 1   
    41   24   46 1   
    42   24   47 1   
    43   25   27 ar  
    44   25   48 1   
    45   26   27 ar  
    46   26   28 1   
    47   27   49 1   
    48   28   29 1   
    49   29   30 1   
    50   29   50 1   
    51   29   51 1   
    52   30   31 1   
    53   30   52 1   
    54   30   53 1   
    55   31   32 1   
    56   31   54 1   
    57   31   55 1   
    58   32   56 1   
@<TRIPOS>SUBSTRUCTURE
     1 T12         1 TEMP              0 ****  ****    0 ROOT
