@<TRIPOS>MOLECULE
T12
   56    58     1     0     0
SMALL
bcc


@<TRIPOS>ATOM
      1 O56        -0.1870   -1.6570   -3.2480 o         1 T12     -0.201000
      2 N54         0.9290   -1.8490   -2.8470 no        1 T12      0.314200
      3 O55         1.4170   -2.9460   -2.8040 o         1 T12     -0.201000
      4 C13         1.7370   -0.6870   -2.3880 ca        1 T12     -0.185200
      5 C12         1.1920    0.6060   -2.4610 ca        1 T12     -0.045000
      6 C11         1.9540    1.6870   -2.0230 ca        1 T12     -0.145000
      7 C10         3.2390    1.4890   -1.5200 ca        1 T12     -0.038000
      8 C14         3.0320   -0.9020   -1.8890 ca        1 T12     -0.042000
      9 C15         3.7790    0.1970   -1.4620 ca        1 T12     -0.158600
     10 C51         5.1550    0.0480   -0.9010 c         1 T12      0.674700
     11 O53         5.5410    0.7460    0.0510 o         1 T12     -0.565100
     12 N50         5.9570   -0.9420   -1.4720 ns        1 T12     -0.455400
     13 C21         7.3530   -0.9920   -1.2360 cc        1 T12      0.453400
     14 N22         8.3040   -0.8150   -2.2010 nd        1 T12     -0.579100
     15 C3          9.5300   -1.0110   -1.5480 ca        1 T12      0.084400
     16 C4         10.8400   -0.9620   -2.0460 ca        1 T12     -0.077000
     17 C5         11.8730   -1.1810   -1.1370 ca        1 T12      0.088100
     18 O23        13.1640   -0.9970   -1.6360 os        1 T12     -0.366200
     19 C24        14.1270   -1.9570   -1.4100 c         1 T12      0.639100
     20 O26        13.8450   -2.9420   -0.7330 o         1 T12     -0.520000
     21 C25        15.4470   -1.6060   -2.0690 c3        1 T12     -0.087000
     22 C35        15.9330   -0.2680   -1.5310 c3        1 T12     -0.090433
     23 C31        16.4580   -2.6960   -1.7450 c3        1 T12     -0.090433
     24 C27        15.2390   -1.5190   -3.5750 c3        1 T12     -0.090433
     25 C6         11.6530   -1.4620    0.2290 ca        1 T12     -0.115000
     26 C2          9.3010   -1.3010   -0.1430 ca        1 T12     -0.072200
     27 C1         10.3670   -1.5260    0.7380 ca        1 T12     -0.115000
     28 N20         7.9120   -1.2720    0.0470 na        1 T12     -0.138300
     29 C39         7.2220   -1.5820    1.2640 c3        1 T12      0.040300
     30 C40         6.6980   -3.0150    1.3540 c3        1 T12     -0.109400
     31 C43         5.9910   -3.2020    2.6870 c3        1 T12      0.134400
     32 O46         5.4930   -4.5300    2.7010 oh        1 T12     -0.596800
     33 H12         0.1730    0.7590   -2.8580 ha        1 T12      0.177000
     34 H11         1.5340    2.7040   -2.0710 ha        1 T12      0.158000
     35 H10         3.8380    2.3410   -1.1560 ha        1 T12      0.169000
     36 H14         3.4310   -1.9310   -1.8260 ha        1 T12      0.180000
     37 HN50        5.6860   -1.2970   -2.3670 hn        1 T12      0.339500
     38 H4         11.0430   -0.7440   -3.1030 ha        1 T12      0.162000
     39 H351       16.8980    0.0050   -2.0210 hc        1 T12      0.049033
     40 H352       15.1790    0.5290   -1.7420 hc        1 T12      0.049033
     41 H353       16.0960   -0.3270   -0.4280 hc        1 T12      0.049033
     42 H311       16.0950   -3.6830   -2.1200 hc        1 T12      0.049033
     43 H312       16.6050   -2.7720   -0.6410 hc        1 T12      0.049033
     44 H313       17.4350   -2.4580   -2.2280 hc        1 T12      0.049033
     45 H271       14.4790   -0.7370   -3.8130 hc        1 T12      0.049033
     46 H272       14.8890   -2.4990   -3.9760 hc        1 T12      0.049033
     47 H273       16.2030   -1.2520   -4.0710 hc        1 T12      0.049033
     48 H6         12.5200   -1.6540    0.8800 ha        1 T12      0.156000
     49 H1         10.1920   -1.7490    1.7990 ha        1 T12      0.141000
     50 H391        6.3590   -0.8610    1.3760 h1        1 T12      0.073200
     51 H392        7.9400   -1.4000    2.1160 h1        1 T12      0.073200
     52 H401        5.9810   -3.2300    0.5200 hc        1 T12      0.069700
     53 H402        7.5360   -3.7540    1.2710 hc        1 T12      0.069700
     54 H431        5.1430   -2.4730    2.7920 h1        1 T12      0.022700
     55 H432        6.7070   -3.0510    3.5390 h1        1 T12      0.022700
     56 HO46        5.0540   -4.6500    3.5510 ho        1 T12      0.403000
@<TRIPOS>BOND
     1    1    2 1   
     2    2    3 1   
     3    2    4 1   
     4    4    5 ar  
     5    4    8 ar  
     6    5    6 ar  
     7    5   33 1   
     8    6    7 ar  
     9    6   34 1   
    10    7    9 ar  
    11    7   35 1   
    12    8    9 ar  
    13    8   36 1   
    14    9   10 1   
    15   10   11 2   
    16   10   12 1   
    17   12   13 1   
    18   12   37 1   
    19   13   14 2   
    20   13   28 1   
    21   14   15 1   
    22   15   16 ar  
    23   15   26 ar  
    24   16   17 ar  
    25   16   38 1   
    26   17   18 1   
    27   17   25 ar  
    28   18   19 1   
    29   19   20 2   
    30   19   21 1   
    31   21   22 1   
    32   21   23 1   
    33   21   24 1   
    34   22   39 1   
    35   22   40 1   
    36   22   41 1   
    37   23   42 1   
    38   23   43 1   
    39   23   44 1   
    40   24   45 1   
    41   24   46 1   
    42   24   47 1   
    43   25   27 ar  
    44   25   48 1   
    45   26   27 ar  
    46   26   28 1   
    47   27   49 1   
    48   28   29 1   
    49   29   30 1   
    50   29   50 1   
    51   29   51 1   
    52   30   31 1   
    53   30   52 1   
    54   30   53 1   
    55   31   32 1   
    56   31   54 1   
    57   31   55 1   
    58   32   56 1   
@<TRIPOS>SUBSTRUCTURE
     1 T12         1 TEMP              0 ****  ****    0 ROOT
