@<TRIPOS>MOLECULE
T12
   56    58     1     0     0
SMALL
bcc


@<TRIPOS>ATOM
      1 O56        -0.1970   -1.7080   -3.1980 o         1 T12     -0.201000
      2 N54         0.9200   -1.8920   -2.7980 no        1 T12      0.314200
      3 O55         1.4090   -2.9880   -2.7350 o         1 T12     -0.201000
      4 C13         1.7300   -0.7200   -2.3690 ca        1 T12     -0.185200
      5 C12         1.1850    0.5710   -2.4670 ca        1 T12     -0.045000
      6 C11         1.9480    1.6610   -2.0560 ca        1 T12     -0.145000
      7 C10         3.2350    1.4750   -1.5550 ca        1 T12     -0.038000
      8 C14         3.0270   -0.9240   -1.8710 ca        1 T12     -0.042000
      9 C15         3.7760    0.1840   -1.4720 ca        1 T12     -0.158600
     10 C51         5.1540    0.0480   -0.9140 c         1 T12      0.674700
     11 O53         5.5450    0.7660    0.0210 o         1 T12     -0.565100
     12 N50         5.9550   -0.9540   -1.4670 n         1 T12     -0.455400
     13 C21         7.3520   -0.9990   -1.2370 cc        1 T12      0.453400
     14 N22         8.2980   -0.8420   -2.2090 nd        1 T12     -0.579100
     15 C3          9.5270   -1.0240   -1.5580 ca        1 T12      0.084400
     16 C4         10.8350   -0.9860   -2.0630 ca        1 T12     -0.077000
     17 C5         11.8720   -1.1850   -1.1550 ca        1 T12      0.088100
     18 O23        13.1610   -1.0120   -1.6630 os        1 T12     -0.366200
     19 C24        14.1240   -1.9660   -1.4210 c         1 T12      0.639100
     20 O26        13.8450   -2.9370   -0.7210 o         1 T12     -0.520000
     21 C25        15.4420   -1.6300   -2.0940 c3        1 T12     -0.087000
     22 C35        15.9300   -0.2810   -1.5860 c3        1 T12     -0.090433
     23 C31        16.4540   -2.7140   -1.7510 c3        1 T12     -0.090433
     24 C27        15.2270   -1.5750   -3.5990 c3        1 T12     -0.090433
     25 C6         11.6590   -1.4370    0.2180 ca        1 T12     -0.115000
     26 C2          9.3040   -1.2830   -0.1460 ca        1 T12     -0.072200
     27 C1         10.3750   -1.4890    0.7350 ca        1 T12     -0.115000
     28 N20         7.9170   -1.2510    0.0490 na        1 T12     -0.138300
     29 C39         7.2320   -1.5340    1.2760 c3        1 T12      0.040300
     30 C40         6.7090   -2.9660    1.4000 c3        1 T12     -0.109400
     31 C43         6.0080   -3.1240    2.7390 c3        1 T12      0.134400
     32 O46         5.5110   -4.4520    2.7840 oh        1 T12     -0.596800
     33 H12         0.1640    0.7160   -2.8630 ha        1 T12      0.177000
     34 H11         1.5270    2.6770   -2.1240 ha        1 T12      0.158000
     35 H10         3.8350    2.3350   -1.2120 ha        1 T12      0.169000
     36 H14         3.4270   -1.9510   -1.7880 ha        1 T12      0.180000
     37 HN50        5.6800   -1.3290   -2.3530 hn        1 T12      0.339500
     38 H4         11.0330   -0.7910   -3.1260 ha        1 T12      0.162000
     39 H351       16.8930   -0.0180   -2.0860 hc        1 T12      0.049033
     40 H352       15.1760    0.5110   -1.8100 hc        1 T12      0.049033
     41 H353       16.0980   -0.3180   -0.4830 hc        1 T12      0.049033
     42 H311       16.0890   -3.7080   -2.1040 hc        1 T12      0.049033
     43 H312       16.6060   -2.7660   -0.6460 hc        1 T12      0.049033
     44 H313       17.4280   -2.4860   -2.2440 hc        1 T12      0.049033
     45 H271       14.4650   -0.7980   -3.8510 hc        1 T12      0.049033
     46 H272       14.8740   -2.5630   -3.9790 hc        1 T12      0.049033
     47 H273       16.1880   -1.3180   -4.1060 hc        1 T12      0.049033
     48 H6         12.5280   -1.6150    0.8700 ha        1 T12      0.156000
     49 H1         10.2050   -1.6900    1.8010 ha        1 T12      0.141000
     50 H391        6.3690   -0.8120    1.3760 h1        1 T12      0.073200
     51 H392        7.9530   -1.3340    2.1210 h1        1 T12      0.073200
     52 H401        5.9880   -3.1990    0.5740 hc        1 T12      0.069700
     53 H402        7.5480   -3.7060    1.3290 hc        1 T12      0.069700
     54 H431        5.1600   -2.3940    2.8320 h1        1 T12      0.022700
     55 H432        6.7270   -2.9540    3.5850 h1        1 T12      0.022700
     56 HO46        5.0750   -4.5530    3.6380 ho        1 T12      0.403000
@<TRIPOS>BOND
     1    1    2 1   
     2    2    3 1   
     3    2    4 1   
     4    4    5 ar  
     5    4    8 ar  
     6    5    6 ar  
     7    5   33 1   
     8    6    7 ar  
     9    6   34 1   
    10    7    9 ar  
    11    7   35 1   
    12    8    9 ar  
    13    8   36 1   
    14    9   10 1   
    15   10   11 2   
    16   10   12 1   
    17   12   13 1   
    18   12   37 1   
    19   13   14 2   
    20   13   28 1   
    21   14   15 1   
    22   15   16 ar  
    23   15   26 ar  
    24   16   17 ar  
    25   16   38 1   
    26   17   18 1   
    27   17   25 ar  
    28   18   19 1   
    29   19   20 2   
    30   19   21 1   
    31   21   22 1   
    32   21   23 1   
    33   21   24 1   
    34   22   39 1   
    35   22   40 1   
    36   22   41 1   
    37   23   42 1   
    38   23   43 1   
    39   23   44 1   
    40   24   45 1   
    41   24   46 1   
    42   24   47 1   
    43   25   27 ar  
    44   25   48 1   
    45   26   27 ar  
    46   26   28 1   
    47   27   49 1   
    48   28   29 1   
    49   29   30 1   
    50   29   50 1   
    51   29   51 1   
    52   30   31 1   
    53   30   52 1   
    54   30   53 1   
    55   31   32 1   
    56   31   54 1   
    57   31   55 1   
    58   32   56 1   
@<TRIPOS>SUBSTRUCTURE
     1 T12         1 TEMP              0 ****  ****    0 ROOT
