@<TRIPOS>MOLECULE
T13
   31    32     1     0     0
SMALL
bcc


@<TRIPOS>ATOM
      1 CAA         5.8250   -1.4740    0.7480 c3        1 T13      0.110700
      2 OAN         5.1020   -1.2210   -0.4530 os        1 T13     -0.309900
      3 CAV         3.9700   -0.4460   -0.3270 ca        1 T13      0.084100
      4 CAP         3.2830   -0.1790   -1.5410 ca        1 T13      0.124900
      5 CAL         2.1140    0.5910   -1.5240 ca        1 T13     -0.171000
      6 FAD         3.7500   -0.6690   -2.7120 f         1 T13     -0.120900
      7 CAK         3.4770    0.0720    0.8710 ca        1 T13     -0.159000
      8 CAJ         2.3220    0.8490    0.8860 ca        1 T13     -0.140000
      9 CAO         1.6210    1.1110   -0.3080 ca        1 T13      0.135600
     10 NAM         0.4520    1.8970   -0.3190 nh        1 T13     -0.778500
     11 SAX        -0.7040    1.9780    0.8090 sy        1 T13      1.512200
     12 OAB        -0.1970    1.8610    2.1080 o         1 T13     -0.625800
     13 OAC        -1.5170    3.0860    0.5290 o         1 T13     -0.625800
     14 CAW        -1.6430    0.5550    0.4780 ca        1 T13     -0.388500
     15 CAT        -1.8580   -0.4380    1.4540 ca        1 T13      0.234900
     16 FAH        -1.2950   -0.3440    2.6730 f         1 T13     -0.089900
     17 CAR        -2.6750   -1.5720    1.1930 ca        1 T13      0.040900
     18 FAF        -2.8620   -2.5030    2.1530 f         1 T13     -0.095900
     19 CAQ        -3.2890   -1.7230   -0.0710 ca        1 T13      0.162900
     20 FAE        -4.0660   -2.7900   -0.3280 f         1 T13     -0.086900
     21 CAS        -3.0760   -0.7390   -1.0680 ca        1 T13      0.040900
     22 FAG        -3.6490   -0.8690   -2.2830 f         1 T13     -0.095900
     23 CAU        -2.2560    0.3790   -0.7810 ca        1 T13      0.234900
     24 FAI        -2.0660    1.2900   -1.7600 f         1 T13     -0.089900
     25 HAA         6.1830   -0.5180    1.2020 h1        1 T13      0.049700
     26 HAAA        5.1950   -2.0420    1.4740 h1        1 T13      0.049700
     27 HAAB        6.6880   -2.0960    0.4010 h1        1 T13      0.049700
     28 HAL         1.6000    0.7860   -2.4780 ha        1 T13      0.155000
     29 HAK         3.9990   -0.1220    1.8200 ha        1 T13      0.152000
     30 HAJ         1.9650    1.2480    1.8530 ha        1 T13      0.177000
     31 HNAM        0.3260    2.3880   -1.1800 hn        1 T13      0.465800
@<TRIPOS>BOND
     1    1    2 1   
     2    1   25 1   
     3    1   26 1   
     4    1   27 1   
     5    2    3 1   
     6    3    4 ar  
     7    3    7 ar  
     8    4    5 ar  
     9    4    6 1   
    10    5    9 ar  
    11    5   28 1   
    12    7    8 ar  
    13    7   29 1   
    14    8    9 ar  
    15    8   30 1   
    16    9   10 1   
    17   10   11 1   
    18   10   31 1   
    19   11   12 2   
    20   11   13 2   
    21   11   14 1   
    22   14   15 ar  
    23   14   23 ar  
    24   15   16 1   
    25   15   17 ar  
    26   17   18 1   
    27   17   19 ar  
    28   19   20 1   
    29   19   21 ar  
    30   21   22 1   
    31   21   23 ar  
    32   23   24 1   
@<TRIPOS>SUBSTRUCTURE
     1 T13         1 TEMP              0 ****  ****    0 ROOT
