@<TRIPOS>MOLECULE
T13
   32    33     1     0     0
SMALL
bcc


@<TRIPOS>ATOM
      1 CAA         0.0850   -0.2710   -0.1840 c3        1 T13      0.102700
      2 OAN         1.4450    0.1400   -0.0070 os        1 T13     -0.284900
      3 CAV         1.9530    0.0780    1.2550 ca        1 T13      0.164100
      4 CAP         3.3270    0.4560    1.3710 ca        1 T13      0.125900
      5 CAL         3.9500    0.4280    2.6210 ca        1 T13     -0.130000
      6 FAD         4.0220    0.8300    0.2780 f         1 T13     -0.090900
      7 CAK         1.2440   -0.3120    2.3970 ca        1 T13     -0.180000
      8 CAJ         1.8650   -0.3350    3.6420 ca        1 T13     -0.062000
      9 CAO         3.2120    0.0520    3.7600 ca        1 T13     -0.095400
     10 NAM         3.8640    0.0200    5.0600 n4        1 T13     -0.561300
     11 SAX         3.1730    1.2640    6.3080 sy        1 T13      1.465200
     12 OAB         1.8250    0.9910    6.3230 o         1 T13     -0.546300
     13 OAC         3.9730    0.9690    7.3900 o         1 T13     -0.546300
     14 CAW         3.5770    2.6740    5.5660 ca        1 T13     -0.523500
     15 CAT         2.5980    3.6170    5.1530 ca        1 T13      0.248900
     16 FAH         1.2920    3.3190    5.2590 f         1 T13     -0.079400
     17 CAR         2.9520    4.8910    4.6380 ca        1 T13      0.062900
     18 FAF         1.9860    5.7560    4.2740 f         1 T13     -0.064900
     19 CAQ         4.3170    5.2500    4.5100 ca        1 T13      0.224900
     20 FAE         4.6630    6.4510    4.0360 f         1 T13     -0.042900
     21 CAS         5.3200    4.3090    4.8810 ca        1 T13      0.062900
     22 FAG         6.6220    4.6210    4.7430 f         1 T13     -0.064900
     23 CAU         4.9400    3.0490    5.3840 ca        1 T13      0.248900
     24 FAI         5.9070    2.1570    5.6890 f         1 T13     -0.079400
     25 HAA        -0.0680   -0.1440   -1.2880 h1        1 T13      0.069033
     26 HAAA       -0.6000    0.3960    0.3930 h1        1 T13      0.069033
     27 HAAB       -0.0420   -1.3390    0.1160 h1        1 T13      0.069033
     28 HAL         5.0180    0.6960    2.6800 ha        1 T13      0.166000
     29 HAK         0.1860   -0.6110    2.3200 ha        1 T13      0.179000
     30 HAJ         1.2760   -0.6410    4.5260 ha        1 T13      0.176000
     31 HNAM        4.8680    0.1670    4.9310 hn        1 T13      0.459300
     32 HAM2        3.7570   -0.9250    5.4410 hn        1 T13      0.459300
@<TRIPOS>BOND
     1    1    2 1   
     2    1   25 1   
     3    1   26 1   
     4    1   27 1   
     5    2    3 1   
     6    3    4 ar  
     7    3    7 ar  
     8    4    5 ar  
     9    4    6 1   
    10    5    9 ar  
    11    5   28 1   
    12    7    8 ar  
    13    7   29 1   
    14    8    9 ar  
    15    8   30 1   
    16    9   10 1   
    17   10   11 1   
    18   10   31 1   
    19   10   32 1   
    20   11   12 2   
    21   11   13 2   
    22   11   14 1   
    23   14   15 ar  
    24   14   23 ar  
    25   15   16 1   
    26   15   17 ar  
    27   17   18 1   
    28   17   19 ar  
    29   19   20 1   
    30   19   21 ar  
    31   21   22 1   
    32   21   23 ar  
    33   23   24 1   
@<TRIPOS>SUBSTRUCTURE
     1 T13         1 TEMP              0 ****  ****    0 ROOT
