@<TRIPOS>MOLECULE
T13
   31    32     1     0     0
SMALL
bcc


@<TRIPOS>ATOM
      1 CAA         0.1320   -0.6090   -0.3640 c3        1 T13      0.110700
      2 OAN         1.5420   -0.4630   -0.2220 os        1 T13     -0.309900
      3 CAV         2.0060   -0.2700    1.0610 ca        1 T13      0.084100
      4 CAP         3.4160   -0.1590    1.1840 ca        1 T13      0.124900
      5 CAL         3.9900    0.0500    2.4430 ca        1 T13     -0.171000
      6 FAD         4.2050   -0.2510    0.0900 f         1 T13     -0.120900
      7 CAK         1.2060   -0.1780    2.2010 ca        1 T13     -0.159000
      8 CAJ         1.7780    0.0160    3.4550 ca        1 T13     -0.140000
      9 CAO         3.1750    0.1420    3.5920 ca        1 T13      0.135600
     10 NAM         3.7780    0.3360    4.8500 nh        1 T13     -0.778500
     11 SAX         3.2090    1.1810    6.1070 sy        1 T13      1.512200
     12 OAB         1.8190    1.0870    6.2330 o         1 T13     -0.625800
     13 OAC         3.9840    0.8700    7.2340 o         1 T13     -0.625800
     14 CAW         3.5890    2.8140    5.6550 ca        1 T13     -0.388500
     15 CAT         2.5960    3.8070    5.5480 ca        1 T13      0.234900
     16 FAH         1.2970    3.5100    5.7430 f         1 T13     -0.089900
     17 CAR         2.9220    5.1550    5.2340 ca        1 T13      0.040900
     18 FAF         1.9440    6.0810    5.1430 f         1 T13     -0.095900
     19 CAQ         4.2700    5.5220    5.0170 ca        1 T13      0.162900
     20 FAE         4.5900    6.7940    4.7220 f         1 T13     -0.086900
     21 CAS         5.2810    4.5350    5.1110 ca        1 T13      0.040900
     22 FAG         6.5730    4.8650    4.9010 f         1 T13     -0.095900
     23 CAU         4.9270    3.2000    5.4240 ca        1 T13      0.234900
     24 FAI         5.9180    2.2830    5.4920 f         1 T13     -0.089900
     25 HAA        -0.2320   -1.4960    0.2070 h1        1 T13      0.049700
     26 HAAA        0.0010   -0.7640   -1.4650 h1        1 T13      0.049700
     27 HAAB       -0.3940    0.3180   -0.0300 h1        1 T13      0.049700
     28 HAL         5.0860    0.1310    2.5130 ha        1 T13      0.155000
     29 HAK         0.1120   -0.2660    2.1240 ha        1 T13      0.152000
     30 HAJ         1.1140    0.0760    4.3360 ha        1 T13      0.177000
     31 HNAM        4.6990   -0.0470    4.8990 hn        1 T13      0.465800
@<TRIPOS>BOND
     1    1    2 1   
     2    1   25 1   
     3    1   26 1   
     4    1   27 1   
     5    2    3 1   
     6    3    4 ar  
     7    3    7 ar  
     8    4    5 ar  
     9    4    6 1   
    10    5    9 ar  
    11    5   28 1   
    12    7    8 ar  
    13    7   29 1   
    14    8    9 ar  
    15    8   30 1   
    16    9   10 1   
    17   10   11 1   
    18   10   31 1   
    19   11   12 2   
    20   11   13 2   
    21   11   14 1   
    22   14   15 ar  
    23   14   23 ar  
    24   15   16 1   
    25   15   17 ar  
    26   17   18 1   
    27   17   19 ar  
    28   19   20 1   
    29   19   21 ar  
    30   21   22 1   
    31   21   23 ar  
    32   23   24 1   
@<TRIPOS>SUBSTRUCTURE
     1 T13         1 TEMP              0 ****  ****    0 ROOT
