@<TRIPOS>MOLECULE
T13
   31    32     1     0     0
SMALL
bcc


@<TRIPOS>ATOM
      1 CAA         0.1220   -0.6120   -0.3580 c3        1 T13      0.110700
      2 OAN         1.5320   -0.4600   -0.2220 os        1 T13     -0.309900
      3 CAV         2.0000   -0.2680    1.0590 ca        1 T13      0.084100
      4 CAP         3.4100   -0.1510    1.1770 ca        1 T13      0.124900
      5 CAL         3.9890    0.0570    2.4340 ca        1 T13     -0.171000
      6 FAD         4.1960   -0.2370    0.0790 f         1 T13     -0.120900
      7 CAK         1.2050   -0.1820    2.2030 ca        1 T13     -0.159000
      8 CAJ         1.7810    0.0130    3.4550 ca        1 T13     -0.140000
      9 CAO         3.1790    0.1440    3.5860 ca        1 T13      0.135600
     10 NAM         3.7850    0.3380    4.8430 nu        1 T13     -0.778500
     11 SAX         3.2190    1.1770    6.1030 sy        1 T13      1.512200
     12 OAB         1.8290    1.0800    6.2340 o         1 T13     -0.625800
     13 OAC         3.9980    0.8650    7.2270 o         1 T13     -0.625800
     14 CAW         3.5950    2.8130    5.6550 ca        1 T13     -0.388500
     15 CAT         2.5990    3.8040    5.5540 ca        1 T13      0.234900
     16 FAH         1.3010    3.5040    5.7520 f         1 T13     -0.089900
     17 CAR         2.9210    5.1530    5.2430 ca        1 T13      0.040900
     18 FAF         1.9410    6.0780    5.1580 f         1 T13     -0.095900
     19 CAQ         4.2680    5.5240    5.0230 ca        1 T13      0.162900
     20 FAE         4.5850    6.7980    4.7310 f         1 T13     -0.086900
     21 CAS         5.2810    4.5380    5.1110 ca        1 T13      0.040900
     22 FAG         6.5720    4.8710    4.8980 f         1 T13     -0.095900
     23 CAU         4.9310    3.2010    5.4210 ca        1 T13      0.234900
     24 FAI         5.9230    2.2870    5.4840 f         1 T13     -0.089900
     25 HAA        -0.2360   -1.5020    0.2130 h1        1 T13      0.049700
     26 HAAA       -0.4070    0.3120   -0.0210 h1        1 T13      0.049700
     27 HAAB       -0.0120   -0.7660   -1.4590 h1        1 T13      0.049700
     28 HAL         5.0850    0.1420    2.5000 ha        1 T13      0.155000
     29 HAK         0.1110   -0.2730    2.1300 ha        1 T13      0.152000
     30 HAJ         1.1210    0.0680    4.3390 ha        1 T13      0.177000
     31 HNAM        4.7080   -0.0430    4.8870 hn        1 T13      0.465800
@<TRIPOS>BOND
     1    1    2 1   
     2    1   25 1   
     3    1   26 1   
     4    1   27 1   
     5    2    3 1   
     6    3    4 ar  
     7    3    7 ar  
     8    4    5 ar  
     9    4    6 1   
    10    5    9 ar  
    11    5   28 1   
    12    7    8 ar  
    13    7   29 1   
    14    8    9 ar  
    15    8   30 1   
    16    9   10 1   
    17   10   11 1   
    18   10   31 1   
    19   11   12 2   
    20   11   13 2   
    21   11   14 1   
    22   14   15 ar  
    23   14   23 ar  
    24   15   16 1   
    25   15   17 ar  
    26   17   18 1   
    27   17   19 ar  
    28   19   20 1   
    29   19   21 ar  
    30   21   22 1   
    31   21   23 ar  
    32   23   24 1   
@<TRIPOS>SUBSTRUCTURE
     1 T13         1 TEMP              0 ****  ****    0 ROOT
