@<TRIPOS>MOLECULE
T15
   72    64     1     0     0
SMALL
bcc


@<TRIPOS>ATOM
      1 C1         -5.4980   -6.4340   -0.7180 c1        1 T15     -0.124000
      2 C2         -5.6940   -5.2470   -1.4170 c1        1 T15     -0.104000
      3 C3         -4.6560   -4.3380   -1.5440 c1        1 T15     -0.068000
      4 C4         -3.4190   -4.6130   -0.9740 c1        1 T15     -0.124000
      5 C5         -3.2240   -5.7960   -0.2770 c1        1 T15     -0.124000
      6 C6         -4.2670   -6.7070   -0.1500 c1        1 T15     -0.124000
      7 C7         -4.8350   -3.0950   -2.4110 c3        1 T15     -0.804000
      8 S8         -5.2240   -1.6910   -1.3670 s4        1 T15      2.019800
      9 N9         -4.9170   -0.2710   -2.1730 n2        1 T15     -0.815000
     10 C10        -3.5300    1.6460   -1.1940 c1        1 T15      0.317000
     11 N11        -3.4750    2.9100   -0.4570 n2        1 T15     -0.221000
     12 C12        -4.7170    3.6260   -0.1330 c2        1 T15      0.051000
     13 C13        -6.0620    3.0080   -0.4770 c1        1 T15     -0.212000
     14 C14        -6.1180    1.6850   -1.1240 c1        1 T15     -0.093000
     15 O15        -2.5170    1.1820   -1.6760 o         1 T15     -0.403000
     16 C16        -4.6540    5.0380    0.4210 c3        1 T15     -0.203000
     17 C17        -2.1940    3.4850   -0.0990 c3        1 T15     -0.060000
     18 C18        -1.3750    2.4550    0.7040 c2        1 T15      0.285000
     19 C19        -4.8670    0.9730   -1.4490 c2        1 T15     -0.027000
     20 N20         0.0720    2.4050    0.5570 n         1 T15     -0.358000
     21 C22         2.1060    1.1780   -0.0120 c1        1 T15     -0.133500
     22 N23         3.3150    0.8230    0.4730 n2        1 T15     -0.146000
     23 C24         4.2080    0.8820   -0.5440 c1        1 T15     -0.077000
     24 N25         3.5420    1.2780   -1.6690 n2        1 T15     -0.146000
     25 C26         2.2530    1.4600   -1.3460 c1        1 T15     -0.133500
     26 C28         3.5910    0.3900    1.8080 c2        1 T15     -0.071000
     27 C29         4.9640   -0.3090    1.8480 c2        1 T15      0.291000
     28 N30         6.1130    0.3920    2.3530 n         1 T15     -0.367000
     29 C31         7.4390    0.0010    1.9360 c3        1 T15      0.087000
     30 C32         7.6500    0.3960    0.4850 c3        1 T15     -0.227333
     31 C33         8.4630    0.6940    2.8010 c3        1 T15     -0.227333
     32 C34         7.5930   -1.5040    2.0770 c3        1 T15     -0.227333
     33 O35         5.0720   -1.4600    1.4720 o         1 T15     -0.368000
     34 O36        -1.9260    1.7460    1.5210 o         1 T15     -0.387000
     35 O37        -6.5850   -1.7460   -0.9040 o         1 T15     -0.527900
     36 O38        -4.5030   -1.7510   -0.1240 o         1 T15     -0.527900
     37 C8          1.1500    1.8500   -2.2960 c2        1 T15     -0.143000
     38 C9          0.7790    1.1530    0.7650 c2        1 T15      0.040000
     39 H1         -6.2290   -7.0730   -0.6280 ha        1 T15      0.138750
     40 H2         -6.5650   -5.0540   -1.8180 ha        1 T15      0.134000
     41 H4         -2.6910   -3.9760   -1.0630 ha        1 T15      0.138750
     42 H5         -2.3570   -5.9890    0.1230 ha        1 T15      0.138750
     43 H6         -4.1300   -7.5410    0.3410 ha        1 T15      0.138750
     44 H7         -5.5670   -3.2420   -3.0460 h1        1 T15      0.158000
     45 H7A        -4.0080   -2.9170   -2.9030 h1        1 T15      0.158000
     46 HN9        -4.8100   -0.2750   -3.0780 hn        1 T15      0.269000
     47 H13        -6.8900    3.4830   -0.2610 ha        1 T15      0.159000
     48 H14        -6.9830    1.2840   -1.3470 ha        1 T15      0.185000
     49 H16        -5.5650    5.4040    0.4920 hc        1 T15      0.108667
     50 H16A       -4.1220    5.6010   -0.1790 hc        1 T15      0.108667
     51 H16B       -4.2390    5.0230    1.3060 hc        1 T15      0.108667
     52 H17        -2.3360    4.2860    0.4460 h1        1 T15      0.139000
     53 H17A       -1.7070    3.7260   -0.9120 h1        1 T15      0.139000
     54 HN20        0.5380    3.1680    0.3890 hn        1 T15      0.257000
     55 H24         5.1610    0.6780   -0.4840 DU        1 T15      0.206000
     56 H28         2.8970   -0.2380    2.0980 ha        1 T15      0.148000
     57 H28A        3.6020    1.1650    2.4080 ha        1 T15      0.148000
     58 HN30        6.0060    1.0640    2.9600 hn        1 T15      0.230000
     59 H32         8.6040    0.5800    0.3310 hc        1 T15      0.086222
     60 H32A        7.3600   -0.3370   -0.0990 hc        1 T15      0.086222
     61 H32B        7.1270    1.1990    0.2850 hc        1 T15      0.086222
     62 H33         8.3920    0.3620    3.7200 hc        1 T15      0.086222
     63 H33A        8.3000    1.6570    2.7900 hc        1 T15      0.086222
     64 H33B        9.3630    0.5100    2.4540 hc        1 T15      0.086222
     65 H34         8.5480   -1.7390    2.0610 hc        1 T15      0.086222
     66 H34A        7.1990   -1.7950    2.9270 hc        1 T15      0.086222
     67 H34B        7.1350   -1.9500    1.3360 hc        1 T15      0.086222
     68 H8          0.4420    1.1680   -2.2730 ha        1 T15      0.089000
     69 H8A         1.5090    1.9170   -3.2020 ha        1 T15      0.089000
     70 H8B         0.7780    2.7150   -2.0270 ha        1 T15      0.089000
     71 H9          0.2260    0.4070    0.4440 h4        1 T15      0.114000
     72 H9A         0.9620    1.0370    1.7180 h4        1 T15      0.114000
@<TRIPOS>BOND
     1    1    6 1   
     2    1   39 1   
     3    2    3 1   
     4    2   40 1   
     5    3    7 1   
     6    4    5 1   
     7    4   41 1   
     8    5   42 1   
     9    6   43 1   
    10    7    8 1   
    11    7   44 1   
    12    7   45 1   
    13    8   35 1   
    14    8   36 1   
    15    9   19 1   
    16    9   46 1   
    17   10   15 1   
    18   10   19 1   
    19   11   12 1   
    20   11   17 1   
    21   12   13 1   
    22   12   16 1   
    23   13   47 1   
    24   14   19 1   
    25   14   48 1   
    26   16   49 1   
    27   16   50 1   
    28   16   51 1   
    29   17   18 1   
    30   17   52 1   
    31   17   53 1   
    32   18   20 1   
    33   18   34 1   
    34   20   38 1   
    35   20   54 1   
    36   21   22 1   
    37   21   25 1   
    38   22   23 1   
    39   23   24 1   
    40   24   25 1   
    41   26   27 1   
    42   26   56 1   
    43   26   57 1   
    44   27   28 1   
    45   27   33 1   
    46   28   29 1   
    47   28   58 1   
    48   29   30 1   
    49   29   31 1   
    50   29   32 1   
    51   30   59 1   
    52   30   60 1   
    53   30   61 1   
    54   31   62 1   
    55   31   63 1   
    56   31   64 1   
    57   32   65 1   
    58   32   66 1   
    59   32   67 1   
    60   37   68 1   
    61   37   69 1   
    62   37   70 1   
    63   38   71 1   
    64   38   72 1   
@<TRIPOS>SUBSTRUCTURE
     1 T15         1 TEMP              0 ****  ****    0 ROOT
