@<TRIPOS>MOLECULE
T15
   75    76     1     0     0
SMALL
bcc


@<TRIPOS>ATOM
      1 C1         -1.1950    1.2050    0.2600 ca        1 T15     -0.111000
      2 C2         -0.0130    0.4790    0.1350 ca        1 T15     -0.092500
      3 C3          1.0400    0.7010    1.0360 ca        1 T15     -0.216300
      4 C4          0.8840    1.6210    2.0840 ca        1 T15     -0.092500
      5 C5         -0.3010    2.3420    2.2010 ca        1 T15     -0.111000
      6 C6         -1.3410    2.1370    1.2900 ca        1 T15     -0.051000
      7 C7          2.2910   -0.1130    0.9370 c3        1 T15     -0.363800
      8 S8          3.3230    0.7370   -0.0050 s4        1 T15      1.580500
      9 N9          5.0430   -0.9330    0.1090 nh        1 T15     -0.862600
     10 C10         7.3850   -0.7390   -0.7100 c         1 T15      0.703700
     11 N11         8.2660   -0.5270   -1.7940 n         1 T15     -0.337000
     12 C12         7.8120   -0.6030   -3.1160 cc        1 T15      0.101400
     13 C13         6.4680   -0.8000   -3.3630 cd        1 T15     -0.204000
     14 C14         5.5290   -0.9110   -2.3100 cd        1 T15      0.037000
     15 O15         7.8890   -0.8100    0.4420 o         1 T15     -0.734500
     16 C16         8.7680   -0.4710   -4.2540 c3        1 T15     -0.100900
     17 C17         9.6210   -0.1520   -1.4810 c3        1 T15      0.029000
     18 C18        10.4610   -1.3470   -1.0060 c         1 T15      0.517100
     19 C19         5.9520   -0.8680   -0.9970 cc        1 T15     -0.141200
     20 N20        10.7150   -1.4150    0.4790 n4        1 T15     -0.685800
     21 C22        12.9920   -1.9050    1.3250 cc        1 T15     -0.350900
     22 N23        13.4140   -1.6520    2.6620 na        1 T15     -0.242900
     23 C24        14.7000   -1.0730    2.5540 cc        1 T15      0.445400
     24 N25        15.0840   -0.9340    1.2800 nd        1 T15     -0.604000
     25 C26        14.0450   -1.4590    0.4890 cd        1 T15      0.442600
     26 C28        12.8980   -2.2260    3.8540 c3        1 T15     -0.024700
     27 C29        13.3000   -3.6970    4.0760 c         1 T15      0.502100
     28 N30        14.6930   -3.9850    4.5190 n4        1 T15     -0.682800
     29 C31        14.8220   -4.2660    6.0400 c3        1 T15      0.170200
     30 C32        14.1990   -5.6230    6.3570 c3        1 T15     -0.138767
     31 C33        16.3130   -4.2900    6.3820 c3        1 T15     -0.138767
     32 C34        14.1270   -3.1630    6.8300 c3        1 T15     -0.138767
     33 O35        12.5380   -4.6360    3.8990 o         1 T15     -0.394100
     34 O36        10.9160   -2.2220   -1.7220 o         1 T15     -0.385100
     35 O37         3.1960    0.6140   -1.3480 o         1 T15     -0.410400
     36 O38         4.1090    1.6620    0.5940 o         1 T15     -0.410400
     37 C8         14.1260   -1.5160   -0.9800 c3        1 T15     -0.166400
     38 C9         11.6930   -2.4750    0.9240 c3        1 T15      0.207100
     39 H1         -2.0210    1.0330   -0.4510 ha        1 T15      0.174000
     40 H2          0.0830   -0.2720   -0.6650 ha        1 T15      0.146000
     41 H4          1.6870    1.7700    2.8230 ha        1 T15      0.146000
     42 H5         -0.4220    3.0680    3.0220 ha        1 T15      0.174000
     43 H6         -2.2830    2.7050    1.3910 ha        1 T15      0.177000
     44 H7          2.6550   -0.3180    1.9890 h1        1 T15      0.181200
     45 H7A         2.0080   -1.1370    0.5460 h1        1 T15      0.181200
     46 HN9         5.5520   -0.7560    0.9670 hn        1 T15      0.412800
     47 H13         6.1090   -0.8640   -4.4060 ha        1 T15      0.204000
     48 H14         4.4580   -1.0180   -2.5770 ha        1 T15      0.192000
     49 H16         8.2590   -0.7590   -5.2110 hc        1 T15      0.092367
     50 H16A        9.1130    0.5900   -4.3590 hc        1 T15      0.092367
     51 H16B        9.6570   -1.1400   -4.1250 hc        1 T15      0.092367
     52 H17        10.1480    0.2600   -2.3950 h1        1 T15      0.130200
     53 H17A        9.5990    0.6540   -0.6870 h1        1 T15      0.130200
     54 HN20       11.0500   -0.4930    0.7850 hn        1 T15      0.480300
     55 H24        15.2670   -0.7120    3.4270 h5        1 T15      0.094100
     56 H28        11.7670   -2.2200    3.8330 h1        1 T15      0.122700
     57 H28A       13.2380   -1.6160    4.7450 h1        1 T15      0.122700
     58 HN30       15.3030   -3.1960    4.2880 hn        1 T15      0.465300
     59 H32        13.1200   -5.6610    6.0700 hc        1 T15      0.086144
     60 H32A       14.2730   -5.7930    7.4630 hc        1 T15      0.086144
     61 H32B       14.7460   -6.4540    5.8460 hc        1 T15      0.086144
     62 H33        16.7970   -3.3000    6.1970 hc        1 T15      0.086144
     63 H33A       16.4150   -4.5240    7.4740 hc        1 T15      0.086144
     64 H33B       16.8550   -5.0850    5.8130 hc        1 T15      0.086144
     65 H34        14.2620   -3.3790    7.9230 hc        1 T15      0.086144
     66 H34A       14.5770   -2.1610    6.6270 hc        1 T15      0.086144
     67 H34B       13.0300   -3.1380    6.6210 hc        1 T15      0.086144
     68 H8         15.0390   -2.0930   -1.2910 hc        1 T15      0.086033
     69 H8A        14.2270   -0.4850   -1.4110 hc        1 T15      0.086033
     70 H8B        13.2250   -2.0160   -1.4110 hc        1 T15      0.086033
     71 H9         11.2030   -3.0470    1.7660 hx        1 T15      0.126200
     72 H9A        11.8560   -3.1920    0.0600 hx        1 T15      0.126200
     73 H92         4.6480   -1.8620    0.1590 hn        1 T15      0.412800
     74 H202        9.7890   -1.5760    0.9190 hn        1 T15      0.480300
     75 H302       15.0360   -4.8290    4.0370 hn        1 T15      0.465300
@<TRIPOS>BOND
     1    1    2 ar  
     2    1    6 ar  
     3    1   39 1   
     4    2    3 ar  
     5    2   40 1   
     6    3    4 ar  
     7    3    7 1   
     8    4    5 ar  
     9    4   41 1   
    10    5    6 ar  
    11    5   42 1   
    12    6   43 1   
    13    7    8 1   
    14    7   44 1   
    15    7   45 1   
    16    8   35 1   
    17    8   36 1   
    18    9   19 1   
    19    9   46 1   
    20    9   73 1   
    21   10   11 1   
    22   10   15 2   
    23   10   19 1   
    24   11   12 1   
    25   11   17 1   
    26   12   13 2   
    27   12   16 1   
    28   13   14 1   
    29   13   47 1   
    30   14   19 2   
    31   14   48 1   
    32   16   49 1   
    33   16   50 1   
    34   16   51 1   
    35   17   18 1   
    36   17   52 1   
    37   17   53 1   
    38   18   20 1   
    39   18   34 2   
    40   20   38 1   
    41   20   54 1   
    42   20   74 1   
    43   21   22 1   
    44   21   25 2   
    45   21   38 1   
    46   22   23 1   
    47   22   26 1   
    48   23   24 2   
    49   23   55 1   
    50   24   25 1   
    51   25   37 1   
    52   26   27 1   
    53   26   56 1   
    54   26   57 1   
    55   27   28 1   
    56   27   33 2   
    57   28   29 1   
    58   28   58 1   
    59   28   75 1   
    60   29   30 1   
    61   29   31 1   
    62   29   32 1   
    63   30   59 1   
    64   30   60 1   
    65   30   61 1   
    66   31   62 1   
    67   31   63 1   
    68   31   64 1   
    69   32   65 1   
    70   32   66 1   
    71   32   67 1   
    72   37   68 1   
    73   37   69 1   
    74   37   70 1   
    75   38   71 1   
    76   38   72 1   
@<TRIPOS>SUBSTRUCTURE
     1 T15         1 TEMP              0 ****  ****    0 ROOT
