@<TRIPOS>MOLECULE
T15
   72    74     1     0     0
SMALL
bcc


@<TRIPOS>ATOM
      1 C1          5.9570    3.2050   -0.5340 ca        1 T15     -0.127000
      2 C2          5.1760    2.0900   -0.2380 ca        1 T15     -0.113500
      3 C3          4.0450    2.2210    0.5800 ca        1 T15     -0.077300
      4 C4          3.7050    3.4790    1.0910 ca        1 T15     -0.113500
      5 C5          4.4910    4.5910    0.7920 ca        1 T15     -0.127000
      6 C6          5.6160    4.4570   -0.0210 ca        1 T15     -0.120000
      7 C7          3.1950    1.0400    0.8690 c3        1 T15     -0.255300
      8 S8          3.9870   -0.1320    1.8670 s6        1 T15      1.447900
      9 N9          2.8190   -1.2570    2.0530 nh        1 T15     -0.766900
     10 C10         1.0020   -2.6280    1.1430 c         1 T15      0.679700
     11 N11         0.5950   -3.6680    0.2860 n         1 T15     -0.324000
     12 C12         1.4860   -4.2400   -0.6220 cc        1 T15      0.056400
     13 C13         2.8110   -3.8690   -0.6190 cd        1 T15     -0.219000
     14 C14         3.3020   -2.8900    0.2860 cd        1 T15     -0.080000
     15 O15         0.1450   -2.0790    1.8760 o         1 T15     -0.681500
     16 C16         0.9990   -5.2620   -1.5970 c3        1 T15     -0.080900
     17 C17        -0.7860   -4.0940    0.3280 c3        1 T15      0.001000
     18 C18        -1.7110   -3.3020   -0.6150 c         1 T15      0.639100
     19 C19         2.4380   -2.2500    1.1430 cc        1 T15      0.023800
     20 N20        -1.8500   -1.9540   -0.3640 n         1 T15     -0.548900
     21 C22        -4.0970   -0.9430   -0.3110 cc        1 T15     -0.279900
     22 N23        -4.2900   -0.0100    0.7250 na        1 T15     -0.210900
     23 C24        -5.6190   -0.1580    1.1490 cc        1 T15      0.414400
     24 N25        -6.2550   -1.1310    0.4690 nd        1 T15     -0.666000
     25 C26        -5.3220   -1.6390   -0.4450 cd        1 T15      0.349600
     26 C28        -3.3620    0.9710    1.1850 c3        1 T15     -0.042700
     27 C29        -3.4080    2.3520    0.4960 c         1 T15      0.639100
     28 N30        -3.6910    2.4120   -0.8440 n         1 T15     -0.554900
     29 C31        -3.8190    3.6660   -1.5890 c3        1 T15      0.121400
     30 C32        -2.4990    4.4540   -1.5920 c3        1 T15     -0.109433
     31 C33        -4.1920    3.3650   -3.0520 c3        1 T15     -0.109433
     32 C34        -4.9130    4.5740   -1.0020 c3        1 T15     -0.109433
     33 O35        -3.1150    3.3480    1.1880 o         1 T15     -0.606100
     34 O36        -2.2610   -3.8810   -1.5720 o         1 T15     -0.606100
     35 O37         5.0740   -0.6650    1.1480 o         1 T15     -0.639800
     36 O38         4.2430    0.4200    3.1340 o         1 T15     -0.639800
     37 C8         -5.6040   -2.7300   -1.3940 c3        1 T15     -0.133400
     38 C9         -2.8260   -1.1530   -1.0570 c3        1 T15      0.158300
     39 H1          6.8470    3.0940   -1.1710 ha        1 T15      0.135500
     40 H2          5.4550    1.0990   -0.6290 ha        1 T15      0.143500
     41 H4          2.8200    3.5920    1.7350 ha        1 T15      0.143500
     42 H5          4.2210    5.5760    1.2010 ha        1 T15      0.135500
     43 H6          6.2350    5.3350   -0.2560 ha        1 T15      0.134000
     44 H7          2.2380    1.3900    1.3440 h1        1 T15      0.115700
     45 H7A         2.8910    0.5870   -0.1140 h1        1 T15      0.115700
     46 HN9         2.2300   -1.2370    2.8610 hn        1 T15      0.472800
     47 H13         3.5140   -4.3340   -1.3240 ha        1 T15      0.160000
     48 H14         4.3820   -2.6490    0.2630 ha        1 T15      0.184000
     49 H16         0.0470   -4.9340   -2.0910 hc        1 T15      0.069700
     50 H16A        1.7710   -5.4250   -2.3890 hc        1 T15      0.069700
     51 H16B        0.8150   -6.2360   -1.0770 hc        1 T15      0.069700
     52 H17        -0.8620   -5.1810    0.0400 h1        1 T15      0.100200
     53 H17A       -1.1680   -3.9760    1.3860 h1        1 T15      0.100200
     54 HN20       -1.5170   -1.6090    0.5110 hn        1 T15      0.331500
     55 H24        -6.0520    0.4520    1.9500 h5        1 T15      0.068100
     56 H28        -3.5460    1.1580    2.2840 h1        1 T15      0.094200
     57 H28A       -2.3110    0.5800    1.0600 h1        1 T15      0.094200
     58 HN30       -4.0120    1.5960   -1.3110 hn        1 T15      0.318500
     59 H32        -1.6820    3.8580   -2.0620 hc        1 T15      0.047589
     60 H32A       -2.6390    5.3940   -2.1770 hc        1 T15      0.047589
     61 H32B       -2.2020    4.7190   -0.5480 hc        1 T15      0.047589
     62 H33        -5.1720    2.8340   -3.1140 hc        1 T15      0.047589
     63 H33A       -4.2780    4.3310   -3.6040 hc        1 T15      0.047589
     64 H33B       -3.4080    2.7430   -3.5450 hc        1 T15      0.047589
     65 H34        -4.6690    4.8380    0.0560 hc        1 T15      0.047589
     66 H34A       -4.9710    5.5110   -1.6030 hc        1 T15      0.047589
     67 H34B       -5.9060    4.0670   -1.0320 hc        1 T15      0.047589
     68 H8         -6.3230   -3.4680   -0.9580 hc        1 T15      0.057700
     69 H8A        -6.0550   -2.3140   -2.3300 hc        1 T15      0.057700
     70 H8B        -4.6550   -3.2650   -1.6580 hc        1 T15      0.057700
     71 H9         -2.3440   -0.1570   -1.2830 h1        1 T15      0.076200
     72 H9A        -3.0820   -1.6580   -2.0360 h1        1 T15      0.076200
@<TRIPOS>BOND
     1    1    2 ar  
     2    1    6 ar  
     3    1   39 1   
     4    2    3 ar  
     5    2   40 1   
     6    3    4 ar  
     7    3    7 1   
     8    4    5 ar  
     9    4   41 1   
    10    5    6 ar  
    11    5   42 1   
    12    6   43 1   
    13    7    8 1   
    14    7   44 1   
    15    7   45 1   
    16    8    9 1   
    17    8   35 2   
    18    8   36 2   
    19    9   19 1   
    20    9   46 1   
    21   10   11 1   
    22   10   15 2   
    23   10   19 1   
    24   11   12 1   
    25   11   17 1   
    26   12   13 2   
    27   12   16 1   
    28   13   14 1   
    29   13   47 1   
    30   14   19 2   
    31   14   48 1   
    32   16   49 1   
    33   16   50 1   
    34   16   51 1   
    35   17   18 1   
    36   17   52 1   
    37   17   53 1   
    38   18   20 1   
    39   18   34 2   
    40   20   38 1   
    41   20   54 1   
    42   21   22 1   
    43   21   25 2   
    44   21   38 1   
    45   22   23 1   
    46   22   26 1   
    47   23   24 2   
    48   23   55 1   
    49   24   25 1   
    50   25   37 1   
    51   26   27 1   
    52   26   56 1   
    53   26   57 1   
    54   27   28 1   
    55   27   33 2   
    56   28   29 1   
    57   28   58 1   
    58   29   30 1   
    59   29   31 1   
    60   29   32 1   
    61   30   59 1   
    62   30   60 1   
    63   30   61 1   
    64   31   62 1   
    65   31   63 1   
    66   31   64 1   
    67   32   65 1   
    68   32   66 1   
    69   32   67 1   
    70   37   68 1   
    71   37   69 1   
    72   37   70 1   
    73   38   71 1   
    74   38   72 1   
@<TRIPOS>SUBSTRUCTURE
     1 T15         1 TEMP              0 ****  ****    0 ROOT
