@<TRIPOS>MOLECULE
T15
   75    76     1     0     0
SMALL
bcc


@<TRIPOS>ATOM
      1 C1         -0.4630    3.2090   -1.0880 ca        1 T15     -0.111000
      2 C2          0.4620    2.3150   -0.5530 ca        1 T15     -0.092500
      3 C3          1.7600    2.7520   -0.2500 ca        1 T15     -0.217300
      4 C4          2.1110    4.0970   -0.4450 ca        1 T15     -0.092500
      5 C5          1.1810    4.9840   -0.9800 ca        1 T15     -0.111000
      6 C6         -0.1060    4.5430   -1.3030 ca        1 T15     -0.051000
      7 C7          2.7380    1.8080    0.3740 c3        1 T15     -0.363800
      8 S8          3.5750    1.1310   -0.8560 s4        1 T15      1.580500
      9 N9          4.9020   -0.2500    0.6020 nv        1 T15     -0.862600
     10 C10         6.9430   -1.5360   -0.0100 c         1 T15      0.701700
     11 N11         7.5370   -2.5490   -0.7950 n         1 T15     -0.343000
     12 C12         6.7450   -3.4670   -1.4990 cc        1 T15      0.094400
     13 C13         5.3720   -3.3380   -1.4820 cd        1 T15     -0.202000
     14 C14         4.7340   -2.2770   -0.7940 cd        1 T15      0.034000
     15 O15         7.6970   -0.8370    0.7150 o         1 T15     -0.725500
     16 C16         7.3820   -4.5770   -2.2670 c3        1 T15     -0.100900
     17 C17         8.9660   -2.5210   -0.9650 c3        1 T15      0.026000
     18 C18         9.7320   -3.2270    0.1600 c         1 T15      0.519100
     19 C19         5.4840   -1.3690   -0.0760 cc        1 T15     -0.137200
     20 N20        10.0140   -2.4180    1.3980 ny        1 T15     -0.691800
     21 C22        11.7460   -1.4520    2.8410 cc        1 T15     -0.342900
     22 N23        12.4890   -1.9100    3.9600 na        1 T15     -0.233900
     23 C24        12.4450   -0.8600    4.9050 cc        1 T15      0.469400
     24 N25        11.7270    0.1830    4.4630 nd        1 T15     -0.604000
     25 C26        11.2890   -0.1530    3.1750 cd        1 T15      0.423600
     26 C28        13.2810   -3.0840    4.0760 c3        1 T15     -0.014700
     27 C29        14.5860   -3.0260    3.2590 c         1 T15      0.509100
     28 N30        15.8800   -2.8800    3.9810 ny        1 T15     -0.681800
     29 C31        16.5640   -4.2260    4.3310 c3        1 T15      0.169200
     30 C32        16.9820   -4.9310    3.0430 c3        1 T15     -0.137767
     31 C33        17.8030   -3.9110    5.1720 c3        1 T15     -0.137767
     32 C34        15.6060   -5.1000    5.1330 c3        1 T15     -0.137767
     33 O35        14.6170   -3.0950    2.0380 o         1 T15     -0.410100
     34 O36        10.1520   -4.3710    0.1350 o         1 T15     -0.386100
     35 O37         3.0290    0.0570   -1.4760 o         1 T15     -0.410400
     36 O38         4.6660    1.7860   -1.3170 o         1 T15     -0.410400
     37 C8         10.4730    0.7350    2.3280 c3        1 T15     -0.161400
     38 C9         11.4910   -2.1820    1.5870 c3        1 T15      0.218100
     39 H1         -1.4820    2.8650   -1.3300 ha        1 T15      0.174500
     40 H2          0.1620    1.2720   -0.3630 ha        1 T15      0.146000
     41 H4          3.1130    4.4600   -0.1680 ha        1 T15      0.146000
     42 H5          1.4570    6.0400   -1.1370 ha        1 T15      0.174500
     43 H6         -0.8440    5.2510   -1.7190 ha        1 T15      0.177000
     44 H7          3.3600    2.3950    1.1170 h1        1 T15      0.182700
     45 H7A         2.1570    1.0850    1.0220 h1        1 T15      0.182700
     46 HN9         5.6400    0.3420    0.9620 hn        1 T15      0.413800
     47 H13         4.7480   -4.0690   -2.0280 ha        1 T15      0.204000
     48 H14         3.6310   -2.1970   -0.8660 ha        1 T15      0.194000
     49 H16         6.6130   -5.3570   -2.5100 hc        1 T15      0.091700
     50 H16A        7.7960   -4.1930   -3.2350 hc        1 T15      0.091700
     51 H16B        8.2010   -5.0710   -1.6860 hc        1 T15      0.091700
     52 H17         9.2630   -3.0480   -1.9240 h1        1 T15      0.135700
     53 H17A        9.3120   -1.4440   -1.0290 h1        1 T15      0.135700
     54 HN20        9.5230   -1.5040    1.3400 hn        1 T15      0.480300
     55 H24        12.9150   -0.9290    5.8990 h5        1 T15      0.096100
     56 H28        12.7180   -3.9800    3.6700 h1        1 T15      0.119700
     57 H28A       13.5010   -3.2750    5.1690 h1        1 T15      0.119700
     58 HN30       15.7390   -2.3620    4.8540 hn        1 T15      0.467800
     59 H32        16.1070   -5.1340    2.3800 hc        1 T15      0.085589
     60 H32A       17.4500   -5.9130    3.3160 hc        1 T15      0.085589
     61 H32B       17.7420   -4.3360    2.4790 hc        1 T15      0.085589
     62 H33        17.5340   -3.4190    6.1380 hc        1 T15      0.085589
     63 H33A       18.3160   -4.8790    5.4100 hc        1 T15      0.085589
     64 H33B       18.5300   -3.2710    4.6140 hc        1 T15      0.085589
     65 H34        16.1360   -6.0540    5.3910 hc        1 T15      0.085589
     66 H34A       15.3040   -4.6120    6.0920 hc        1 T15      0.085589
     67 H34B       14.6970   -5.3630    4.5400 hc        1 T15      0.085589
     68 H8         10.6450    1.8120    2.5930 hc        1 T15      0.078700
     69 H8A         9.3820    0.5190    2.4730 hc        1 T15      0.078700
     70 H8B        10.7360    0.5900    1.2510 hc        1 T15      0.078700
     71 H9         12.0140   -3.1820    1.5490 hx        1 T15      0.118200
     72 H9A        11.8390   -1.5560    0.7100 hx        1 T15      0.118200
     73 H92         4.3520   -0.5840    1.3810 hn        1 T15      0.413800
     74 H202        9.6480   -2.9180    2.2180 hn        1 T15      0.480300
     75 H302       16.5430   -2.3600    3.3860 hn        1 T15      0.467800
@<TRIPOS>BOND
     1    1    2 ar  
     2    1    6 ar  
     3    1   39 1   
     4    2    3 ar  
     5    2   40 1   
     6    3    4 ar  
     7    3    7 1   
     8    4    5 ar  
     9    4   41 1   
    10    5    6 ar  
    11    5   42 1   
    12    6   43 1   
    13    7    8 1   
    14    7   44 1   
    15    7   45 1   
    16    8   35 1   
    17    8   36 1   
    18    9   19 1   
    19    9   46 1   
    20    9   73 1   
    21   10   11 1   
    22   10   15 2   
    23   10   19 1   
    24   11   12 1   
    25   11   17 1   
    26   12   13 2   
    27   12   16 1   
    28   13   14 1   
    29   13   47 1   
    30   14   19 2   
    31   14   48 1   
    32   16   49 1   
    33   16   50 1   
    34   16   51 1   
    35   17   18 1   
    36   17   52 1   
    37   17   53 1   
    38   18   20 1   
    39   18   34 2   
    40   20   38 1   
    41   20   54 1   
    42   20   74 1   
    43   21   22 1   
    44   21   25 2   
    45   21   38 1   
    46   22   23 1   
    47   22   26 1   
    48   23   24 2   
    49   23   55 1   
    50   24   25 1   
    51   25   37 1   
    52   26   27 1   
    53   26   56 1   
    54   26   57 1   
    55   27   28 1   
    56   27   33 2   
    57   28   29 1   
    58   28   58 1   
    59   28   75 1   
    60   29   30 1   
    61   29   31 1   
    62   29   32 1   
    63   30   59 1   
    64   30   60 1   
    65   30   61 1   
    66   31   62 1   
    67   31   63 1   
    68   31   64 1   
    69   32   65 1   
    70   32   66 1   
    71   32   67 1   
    72   37   68 1   
    73   37   69 1   
    74   37   70 1   
    75   38   71 1   
    76   38   72 1   
@<TRIPOS>SUBSTRUCTURE
     1 T15         1 TEMP              0 ****  ****    0 ROOT
