@<TRIPOS>MOLECULE
T18
   57    61     1     0     0
SMALL
bcc


@<TRIPOS>ATOM
      1 C1         -4.3160    1.4960    0.1710 ca        1 T18     -0.077000
      2 C2         -5.1140    0.3490    0.4150 ca        1 T18      0.096600
      3 C3         -2.9510    1.3770    0.0030 ca        1 T18     -0.174000
      4 C4         -4.4780   -0.8980    0.4950 ca        1 T18     -0.030000
      5 C5         -2.3190    0.1090    0.0790 ca        1 T18      0.243600
      6 C6         -3.0950   -1.0410    0.3270 ca        1 T18     -0.360500
      7 S7         -2.4870   -2.6230    0.4290 sy        1 T18      1.475200
      8 C8         -0.8880   -2.3210    0.3580 ce        1 T18     -0.590100
      9 C9         -0.2380   -1.1480    0.1060 cf        1 T18      0.382000
     10 N10        -0.9360    0.0270   -0.1180 nh        1 T18     -0.614400
     11 N11        -6.5050    0.4540    0.5970 nh        1 T18     -0.785500
     12 S12        -7.5310    1.3830   -0.2550 s6        1 T18      1.469900
     13 C13        -7.6380    0.5920   -1.7530 c3        1 T18     -0.372300
     14 O14        -8.7920    1.3190    0.3730 o         1 T18     -0.652800
     15 O15        -6.9960    2.6670   -0.4800 o         1 T18     -0.652800
     16 O16        -2.8530   -3.1820    1.6610 o         1 T18     -0.668300
     17 O17        -2.9230   -3.3520   -0.6850 o         1 T18     -0.668300
     18 C18         5.5580   -2.9930   -1.2780 ca        1 T18      0.100900
     19 C19         6.2250   -1.9440   -0.6010 ca        1 T18     -0.096000
     20 C20         5.4980   -0.9790    0.0590 ca        1 T18     -0.155000
     21 C21         4.1660   -3.0400   -1.2840 ca        1 T18     -0.120000
     22 C22         3.4100   -2.0590   -0.6170 ca        1 T18     -0.165800
     23 C23         4.0730   -1.0110    0.0830 ca        1 T18      0.122600
     24 N24         3.3430   -0.0440    0.7720 n         1 T18     -0.342000
     25 C25         1.9350    0.0130    0.6770 c         1 T18      0.723700
     26 C26         1.2350   -1.0990    0.0270 cd        1 T18     -0.262200
     27 C27         1.9590   -2.0860   -0.6050 cc        1 T18      0.277900
     28 O29         1.2550   -3.0850   -1.2100 oh        1 T18     -0.455100
     29 C30         4.0210    0.9460    1.5980 c3        1 T18      0.129300
     30 O31         1.3530    1.0100    1.1570 o         1 T18     -0.652500
     31 C32         4.6130    2.1080    0.8560 ca        1 T18     -0.134300
     32 C33         3.7940    2.9360    0.0810 ca        1 T18     -0.090500
     33 C34         5.6950    4.3290   -0.4490 ca        1 T18      0.137900
     34 C35         6.5220    3.5080    0.3410 ca        1 T18     -0.165500
     35 C36         4.3230    4.0410   -0.5770 ca        1 T18     -0.165500
     36 C37         5.9740    2.4040    0.9860 ca        1 T18     -0.090500
     37 F38         6.2220    5.4010   -1.0860 f         1 T18     -0.134900
     38 H1         -4.7830    2.4970    0.1080 ha        1 T18      0.178000
     39 H3         -2.3540    2.2840   -0.1840 ha        1 T18      0.147000
     40 H4         -5.0680   -1.8090    0.7070 ha        1 T18      0.154000
     41 HN10       -0.4230    0.8870   -0.1230 hn        1 T18      0.469800
     42 HN11       -6.8500   -0.1470    1.3130 hn        1 T18      0.462800
     43 H13        -8.1620   -0.3940   -1.6940 h1        1 T18      0.119367
     44 H13A       -8.2220    1.2120   -2.4810 h1        1 T18      0.119367
     45 H13B       -6.6510    0.3970   -2.2390 h1        1 T18      0.119367
     46 H19         7.3260   -1.9100   -0.6150 ha        1 T18      0.163000
     47 H20         6.0400   -0.1560    0.5550 ha        1 T18      0.159000
     48 H21         3.6830   -3.8690   -1.8240 ha        1 T18      0.149000
     49 HO29        1.8470   -3.6400   -1.7390 ho        1 T18      0.439000
     50 H30         3.2600    1.3540    2.3320 h1        1 T18      0.084200
     51 H30A        4.8200    0.4170    2.1940 h1        1 T18      0.084200
     52 H33         2.7160    2.7140    0.0060 ha        1 T18      0.145000
     53 H35         7.5900    3.7480    0.4430 ha        1 T18      0.154000
     54 H36         3.6830    4.6930   -1.1880 ha        1 T18      0.154000
     55 H37         6.6220    1.7720    1.6120 ha        1 T18      0.145000
     56 H8         -0.2430   -3.2080    0.5150 h4        1 T18      0.197000
     57 F28         6.2770   -3.9430   -1.9200 f         1 T18     -0.127900
@<TRIPOS>BOND
     1    1    2 ar  
     2    1    3 ar  
     3    1   38 1   
     4    2    4 ar  
     5    2   11 1   
     6    3    5 ar  
     7    3   39 1   
     8    4    6 ar  
     9    4   40 1   
    10    5    6 ar  
    11    5   10 1   
    12    6    7 1   
    13    7    8 1   
    14    7   16 2   
    15    7   17 2   
    16    8    9 2   
    17    8   56 1   
    18    9   10 1   
    19    9   26 1   
    20   10   41 1   
    21   11   12 1   
    22   11   42 1   
    23   12   13 1   
    24   12   14 2   
    25   12   15 2   
    26   13   43 1   
    27   13   44 1   
    28   13   45 1   
    29   18   19 ar  
    30   18   21 ar  
    31   18   57 1   
    32   19   20 ar  
    33   19   46 1   
    34   20   23 ar  
    35   20   47 1   
    36   21   22 ar  
    37   21   48 1   
    38   22   23 ar  
    39   22   27 1   
    40   23   24 1   
    41   24   25 1   
    42   24   29 1   
    43   25   26 1   
    44   25   30 2   
    45   26   27 2   
    46   27   28 1   
    47   28   49 1   
    48   29   31 1   
    49   29   50 1   
    50   29   51 1   
    51   31   32 ar  
    52   31   36 ar  
    53   32   35 ar  
    54   32   52 1   
    55   33   34 ar  
    56   33   35 ar  
    57   33   37 1   
    58   34   36 ar  
    59   34   53 1   
    60   35   54 1   
    61   36   55 1   
@<TRIPOS>SUBSTRUCTURE
     1 T18         1 TEMP              0 ****  ****    0 ROOT
