@<TRIPOS>MOLECULE
T18
   58    57     1     0     0
SMALL
bcc


@<TRIPOS>ATOM
      1 C1         -0.1360   -0.0520    0.6640 c3        1 T18     -0.144000
      2 C2          0.2560   -1.4050    0.1210 c2        1 T18     -0.009000
      3 C3         -1.1330   -0.1370    1.8330 c3        1 T18     -0.174000
      4 C4          1.0500    0.6890    1.2150 c2        1 T18      0.181000
      5 C5         -0.4660    0.6450    2.9430 c2        1 T18      0.261000
      6 C6          0.8470    1.0970    2.5080 c2        1 T18     -0.899000
      7 S7          1.9200    1.9900    3.4860 s6        1 T18      2.917000
      8 C8          1.0030    2.0080    4.8730 c2        1 T18     -0.938000
      9 C9         -0.2560    1.5920    5.1490 c2        1 T18      0.262000
     10 N10        -0.9950    0.9030    4.1280 n3        1 T18     -0.129000
     11 N11         0.8170   -1.5250   -1.0210 n2        1 T18     -0.292000
     12 S12         1.2880    0.6450   -2.6030 s4        1 T18      2.104800
     13 C13         1.7450    0.1100   -3.8230 c2        1 T18     -1.484000
     14 O14        -0.0460    0.9310   -2.3510 o         1 T18     -0.550900
     15 O15         2.1390    1.0110   -1.5690 o         1 T18     -0.550900
     16 O16         3.0770    1.2470    3.6670 o         1 T18     -0.897000
     17 O17         2.0350    3.2690    2.9600 o         1 T18     -0.897000
     18 C18        -2.8770    3.2740   10.6010 c3        1 T18      0.196000
     19 C19        -4.1680    2.7260    9.9820 c2        1 T18     -0.119000
     20 C20        -4.1270    2.3500    8.7360 c1        1 T18     -0.181000
     21 C21        -1.8590    3.1770    9.5570 c1        1 T18     -0.030000
     22 C22        -1.2450    2.9710    8.5460 c1        1 T18     -0.221000
     23 C23        -3.7860    2.0410    7.5030 c2        1 T18      0.023000
     24 N24        -3.2100    0.8130    7.1400 n         1 T18     -0.361000
     25 C25        -1.9040    0.6420    6.7610 c2        1 T18      0.331000
     26 C26        -0.9510    1.7550    6.4300 c2        1 T18     -0.241000
     27 C27        -0.6220    2.7650    7.3000 c2        1 T18      0.317000
     28 O29         0.3290    3.6730    6.9220 oh        1 T18     -0.235000
     29 O31        -1.5080   -0.5330    6.5500 o         1 T18     -0.399000
     30 C32        -5.1460   -2.3590    7.4160 c2        1 T18     -0.549000
     31 C33        -5.4310   -2.6500    3.7680 c1        1 T18     -0.141000
     32 C34        -5.1470   -0.0760    3.4090 c2        1 T18      0.135000
     33 C35        -6.1970    0.7630    3.3140 c2        1 T18     -0.195000
     34 C36        -5.2840   -1.4730    3.6070 c1        1 T18     -0.180000
     35 C37        -5.6900   -3.4850    7.8730 c1        1 T18      0.398000
     36 F38        -3.8640    0.3880    3.3070 f         1 T18     -0.153000
     37 H1         -2.1240    0.3160    1.5630 hc        1 T18      0.162000
     38 H3         -1.3210   -1.1940    2.1620 hc        1 T18      0.162000
     39 H4          0.0090   -2.2520    0.7990 h4        1 T18      0.124000
     40 HN10       -1.9050    0.5320    4.3730 hn        1 T18      0.307000
     41 HN11        1.0490   -2.4510   -1.3150 hn        1 T18      0.194000
     42 H13         2.7880   -0.1120   -4.1150 h4        1 T18      0.236500
     43 H13A        1.9460    0.8740    0.5880 ha        1 T18      0.243000
     44 H13B        1.1430   -0.1730   -4.7050 h4        1 T18      0.236500
     45 H19        -5.0390    2.6780   10.6490 ha        1 T18      0.178000
     46 H20        -3.9980    2.7350    6.6640 h4        1 T18      0.154000
     47 H21        -2.5870    2.5990   11.4670 h1        1 T18      0.143000
     48 HO29        0.4200    4.3590    7.6070 ho        1 T18      0.263000
     49 H30        -4.3010   -1.6080    9.2480 ha        1 T18      0.074000
     50 H30A       -3.7110   -0.0670    7.4960 hn        1 T18      0.325000
     51 H33        -5.2450   -2.1280    6.3240 ha        1 T18      0.215000
     52 H35        -7.2280    0.3930    3.3900 ha        1 T18      0.151000
     53 H36        -5.5670   -3.6970    3.8870 ha        1 T18      0.239000
     54 H37        -6.0720    1.8420    3.1540 ha        1 T18      0.151000
     55 H8          1.5580    2.4570    5.7290 h4        1 T18      0.230000
     56 F28        -3.0400    4.5560   11.0930 f         1 T18     -0.128000
     57 H112       -0.5840    0.5760   -0.1750 hc        1 T18      0.216000
     58 C30        -4.4430   -1.4110    8.1750 c1        1 T18     -0.034000
@<TRIPOS>BOND
     1    1    2 1   
     2    1    3 1   
     3    1    4 1   
     4    1   57 1   
     5    2   11 1   
     6    2   39 1   
     7    3    5 1   
     8    3   37 1   
     9    3   38 1   
    10    4    6 1   
    11    4   43 1   
    12    5    6 1   
    13    5   10 1   
    14    6    7 1   
    15    7    8 1   
    16    7   16 1   
    17    7   17 1   
    18    8    9 1   
    19    8   55 1   
    20    9   10 1   
    21    9   26 1   
    22   10   40 1   
    23   11   41 1   
    24   12   13 1   
    25   12   14 1   
    26   12   15 1   
    27   13   42 1   
    28   13   44 1   
    29   18   19 1   
    30   18   21 1   
    31   18   47 1   
    32   18   56 1   
    33   19   20 1   
    34   19   45 1   
    35   20   23 1   
    36   21   22 1   
    37   22   27 1   
    38   23   24 1   
    39   23   46 1   
    40   24   25 1   
    41   24   50 1   
    42   25   26 1   
    43   25   29 1   
    44   26   27 1   
    45   27   28 1   
    46   28   48 1   
    47   30   35 1   
    48   30   51 1   
    49   30   58 1   
    50   31   34 1   
    51   31   53 1   
    52   32   33 1   
    53   32   34 1   
    54   32   36 1   
    55   33   52 1   
    56   33   54 1   
    57   49   58 1   
@<TRIPOS>SUBSTRUCTURE
     1 T18         1 TEMP              0 ****  ****    0 ROOT
