@<TRIPOS>MOLECULE
T18
   57    59     1     0     0
SMALL
bcc


@<TRIPOS>ATOM
      1 C1         -0.1290   -0.0150   -0.1420 c2        1 T18     -0.021000
      2 C2          1.2510   -0.1180   -0.0110 c2        1 T18     -0.045000
      3 C3         -0.9600    0.1950    0.9900 c2        1 T18     -0.227000
      4 C4          1.8470   -0.0920    1.2790 c1        1 T18     -0.113000
      5 C5         -0.4330    0.2530    2.2620 c2        1 T18      0.112000
      6 C6          1.0160   -0.0200    2.4620 c3        1 T18     -0.754000
      7 S7          1.8940    0.9880    3.6320 s6        1 T18      2.922000
      8 C8          0.6920    1.0650    4.7380 c2        1 T18     -1.063000
      9 C9         -0.6530    0.8840    4.5950 c2        1 T18      0.311000
     10 N10        -1.2180    0.5560    3.3720 n7        1 T18     -0.255000
     11 N11         2.1040   -0.2750   -1.1190 n7        1 T18     -0.814000
     12 S12         1.9580    0.4260   -2.5740 s6        1 T18      2.816000
     13 C13         2.5360    2.0030   -2.3300 c3        1 T18     -0.952000
     14 O14         2.8260   -0.2250   -3.4750 o         1 T18     -0.936500
     15 O15         0.6000    0.5150   -2.9550 o         1 T18     -0.936500
     16 O16         2.9590    0.2580    4.1510 o         1 T18     -0.919000
     17 O17         2.1630    2.2360    3.0810 o         1 T18     -0.919000
     18 C18        -3.1020    3.4830    9.7050 c2        1 T18      0.071000
     19 C19        -3.9820    2.3480   10.1060 c3        1 T18     -0.212000
     20 C20        -3.9820    1.1960    9.2380 c1        1 T18     -0.035000
     21 C21        -2.2990    3.4040    8.6050 c2        1 T18     -0.194000
     22 C22        -2.3190    2.2480    7.7510 c2        1 T18     -0.116000
     23 C23        -3.2500    1.2270    7.9920 c2        1 T18      0.033000
     24 N24        -3.4250    0.1810    7.1000 n         1 T18     -0.190000
     25 C25        -2.6450    0.0830    5.9310 c2        1 T18      0.352000
     26 C26        -1.5720    1.0660    5.7370 c2        1 T18     -0.226000
     27 C27        -1.4270    2.1180    6.6210 c2        1 T18      0.203000
     28 O29        -0.4270    3.0120    6.3780 oh        1 T18     -0.213000
     29 C30        -4.5080   -0.7750    7.3290 c3        1 T18      0.066000
     30 O31        -2.8850   -0.8410    5.1220 o         1 T18     -0.390000
     31 C32        -5.7880   -0.3410    6.8280 c1        1 T18     -0.161000
     32 C33        -3.1380   -3.9540    4.7490 c2        1 T18     -0.537000
     33 C34        -8.7060    1.5650    6.0750 c2        1 T18      0.021000
     34 C35        -8.1340    0.3470    5.9520 c2        1 T18     -0.116000
     35 C36        -3.7040   -3.7430    5.9020 c1        1 T18      0.143000
     36 C37        -6.8670   -0.0070    6.4260 c1        1 T18     -0.100000
     37 F38        -8.1300    2.6220    6.6790 f         1 T18     -0.111000
     38 H1         -2.0380    0.3340    0.8090 ha        1 T18      0.149000
     39 H3         -0.6260   -0.0440   -1.1330 ha        1 T18      0.179000
     40 H4          1.0960   -1.0900    2.8660 h1        1 T18      0.243000
     41 HN10       -2.2020    0.3890    3.3240 hn        1 T18      0.268000
     42 HN11        2.9440   -0.7540   -0.8690 hn        1 T18      0.268000
     43 H13         3.6330    2.0410   -2.1190 h1        1 T18      0.158000
     44 H13A        2.3730    2.6260   -3.2460 h1        1 T18      0.158000
     45 H13B        2.0360    2.5490   -1.4930 h1        1 T18      0.158000
     46 H19        -5.0580    2.6970   10.2020 hc        1 T18      0.194000
     47 H20        -3.6950    1.9900   11.1440 hc        1 T18      0.194000
     48 H21        -1.6570    4.2600    8.3480 ha        1 T18      0.151000
     49 HO29       -0.4060    3.6840    7.0760 ho        1 T18      0.240000
     50 H30        -4.5920   -0.9480    8.4480 h1        1 T18      0.162500
     51 H30A       -4.2230   -1.7570    6.8290 h1        1 T18      0.162500
     52 H33        -2.7770   -3.1000    4.1420 ha        1 T18      0.197500
     53 H35        -8.6960   -0.4530    5.4370 ha        1 T18      0.160000
     54 H36        -9.7120    1.7860    5.6750 h4        1 T18      0.150000
     55 H37        -2.9660   -4.9320    4.2800 ha        1 T18      0.197500
     56 H8          1.0290    1.3360    5.7590 h4        1 T18      0.198000
     57 F28        -3.1430    4.5910   10.4720 f         1 T18     -0.088000
@<TRIPOS>BOND
     1    1    2 1   
     2    1    3 1   
     3    1   39 1   
     4    2    4 1   
     5    2   11 1   
     6    3    5 1   
     7    3   38 1   
     8    4    6 1   
     9    5    6 1   
    10    5   10 1   
    11    6    7 1   
    12    6   40 1   
    13    7    8 1   
    14    7   16 1   
    15    7   17 1   
    16    8    9 1   
    17    8   56 1   
    18    9   10 1   
    19    9   26 1   
    20   10   41 1   
    21   11   12 1   
    22   11   42 1   
    23   12   13 1   
    24   12   14 1   
    25   12   15 1   
    26   13   43 1   
    27   13   44 1   
    28   13   45 1   
    29   18   19 1   
    30   18   21 1   
    31   18   57 1   
    32   19   20 1   
    33   19   46 1   
    34   19   47 1   
    35   20   23 1   
    36   21   22 1   
    37   21   48 1   
    38   22   23 1   
    39   22   27 1   
    40   23   24 1   
    41   24   25 1   
    42   24   29 1   
    43   25   26 1   
    44   25   30 1   
    45   26   27 1   
    46   27   28 1   
    47   28   49 1   
    48   29   31 1   
    49   29   50 1   
    50   29   51 1   
    51   31   36 1   
    52   32   35 1   
    53   32   52 1   
    54   32   55 1   
    55   33   34 1   
    56   33   37 1   
    57   33   54 1   
    58   34   36 1   
    59   34   53 1   
@<TRIPOS>SUBSTRUCTURE
     1 T18         1 TEMP              0 ****  ****    0 ROOT
