@<TRIPOS>MOLECULE
T1D
   36    38     1     0     0
SMALL
bcc


@<TRIPOS>ATOM
      1 O           0.1920   -0.8710    0.1800 o         1 T1D     -0.565500
      2 C           1.3420   -0.4460    0.0570 c         1 T1D      0.690500
      3 N           2.0600    0.2380    1.0420 n         1 T1D     -0.680300
      4 S           3.5960    0.6770    0.5630 s6        1 T1D      1.596500
      5 O1          3.7200    2.0720    0.5290 o         1 T1D     -0.635800
      6 O2          4.5530    0.0280    1.3460 o         1 T1D     -0.635800
      7 N1          3.4680    0.0460   -0.9660 nh        1 T1D     -0.679900
      8 C1          2.1970   -0.5960   -1.2220 c3        1 T1D      0.134800
      9 C2          4.4760    0.0160   -1.9440 ca        1 T1D      0.115600
     10 C3          4.9950    1.2280   -2.4410 ca        1 T1D     -0.101000
     11 C4          6.0210    1.2420   -3.3930 cp        1 T1D     -0.051000
     12 C5          6.5290    0.0300   -3.8750 ca        1 T1D     -0.081000
     13 C6          6.0240   -1.1810   -3.4160 ca        1 T1D     -0.195000
     14 C7          5.0050   -1.2040   -2.4560 ca        1 T1D      0.129100
     15 O3          4.4390   -2.3700   -1.9800 os        1 T1D     -0.331900
     16 C8          5.1060   -3.5830   -2.3200 c3        1 T1D      0.113700
     17 C9          6.5530    2.5150   -3.8780 cp        1 T1D     -0.042000
     18 C10         6.8670    2.6800   -5.2340 ca        1 T1D     -0.117500
     19 C11         7.3750    3.8930   -5.6960 ca        1 T1D     -0.129500
     20 C12         7.5760    4.9510   -4.8100 ca        1 T1D     -0.124000
     21 C13         7.2660    4.7940   -3.4590 ca        1 T1D     -0.129500
     22 C14         6.7560    3.5840   -2.9930 ca        1 T1D     -0.117500
     23 H           1.6340    0.4040    1.9190 hn        1 T1D      0.361500
     24 H1          1.6570   -0.1080   -2.0800 h1        1 T1D      0.100200
     25 H11A        2.3250   -1.6920   -1.4500 h1        1 T1D      0.100200
     26 H3          4.5950    2.1870   -2.0670 ha        1 T1D      0.163000
     27 H5          7.3390    0.0340   -4.6210 ha        1 T1D      0.143000
     28 H6          6.4380   -2.1210   -3.8100 ha        1 T1D      0.144000
     29 H8C1        5.0170   -3.7820   -3.4160 h1        1 T1D      0.049033
     30 H8C2        4.5460   -4.3560   -1.7330 h1        1 T1D      0.049033
     31 H8C3        6.1770   -3.5500   -2.0090 h1        1 T1D      0.049033
     32 H10         6.7030    1.8510   -5.9380 ha        1 T1D      0.137000
     33 H11         7.6150    4.0150   -6.7620 ha        1 T1D      0.134500
     34 H12         7.9780    5.9070   -5.1760 ha        1 T1D      0.133000
     35 H13         7.4240    5.6260   -2.7570 ha        1 T1D      0.134500
     36 H14         6.5170    3.4640   -1.9250 ha        1 T1D      0.137000
@<TRIPOS>BOND
     1    1    2 2   
     2    2    3 1   
     3    2    8 1   
     4    3    4 1   
     5    3   23 1   
     6    4    5 2   
     7    4    6 2   
     8    4    7 1   
     9    7    8 1   
    10    7    9 1   
    11    8   24 1   
    12    8   25 1   
    13    9   10 ar  
    14    9   14 ar  
    15   10   11 ar  
    16   10   26 1   
    17   11   12 ar  
    18   11   17 1   
    19   12   13 ar  
    20   12   27 1   
    21   13   14 ar  
    22   13   28 1   
    23   14   15 1   
    24   15   16 1   
    25   16   29 1   
    26   16   30 1   
    27   16   31 1   
    28   17   18 ar  
    29   17   22 ar  
    30   18   19 ar  
    31   18   32 1   
    32   19   20 ar  
    33   19   33 1   
    34   20   21 ar  
    35   20   34 1   
    36   21   22 ar  
    37   21   35 1   
    38   22   36 1   
@<TRIPOS>SUBSTRUCTURE
     1 T1D         1 TEMP              0 ****  ****    0 ROOT
