@<TRIPOS>MOLECULE
T1D
   36    38     1     0     0
SMALL
bcc


@<TRIPOS>ATOM
      1 O          -4.6340   -1.0840    1.8390 o         1 T1D     -0.565500
      2 C          -3.6640   -0.9690    1.0870 c         1 T1D      0.690500
      3 N          -3.5230   -1.6020   -0.1520 n         1 T1D     -0.680300
      4 S          -2.0940   -1.2330   -0.9280 s6        1 T1D      1.596500
      5 O1         -1.3010   -2.3800   -1.0670 o         1 T1D     -0.635800
      6 O2         -2.3520   -0.5570   -2.1230 o         1 T1D     -0.635800
      7 N1         -1.5160   -0.2420    0.2700 nh        1 T1D     -0.679900
      8 C1         -2.4250   -0.0950    1.3860 c3        1 T1D      0.134800
      9 C2         -0.3180    0.4890    0.2430 ca        1 T1D      0.115600
     10 C3          0.9100   -0.1960    0.1590 ca        1 T1D     -0.101000
     11 C4          2.1250    0.4950    0.0990 cp        1 T1D     -0.051000
     12 C5          2.1230    1.8940    0.1420 ca        1 T1D     -0.081000
     13 C6          0.9280    2.5970    0.2420 ca        1 T1D     -0.195000
     14 C7         -0.2920    1.9130    0.2920 ca        1 T1D      0.129100
     15 O3         -1.5110    2.5490    0.4220 os        1 T1D     -0.331900
     16 C8         -1.5110    3.9630    0.2530 c3        1 T1D      0.113700
     17 C9          3.3840   -0.2420   -0.0060 cp        1 T1D     -0.042000
     18 C10         4.5110    0.1750    0.7150 ca        1 T1D     -0.117500
     19 C11         5.7100   -0.5270    0.6140 ca        1 T1D     -0.129500
     20 C12         5.7980   -1.6510   -0.2080 ca        1 T1D     -0.124000
     21 C13         4.6800   -2.0720   -0.9280 ca        1 T1D     -0.129500
     22 C14         3.4780   -1.3740   -0.8290 ca        1 T1D     -0.117500
     23 H          -4.2470   -2.1940   -0.4740 hn        1 T1D      0.361500
     24 H1         -2.7540    0.9760    1.5140 h1        1 T1D      0.100200
     25 H11A       -1.9560   -0.4470    2.3460 h1        1 T1D      0.100200
     26 H3          0.9180   -1.3010    0.1290 ha        1 T1D      0.163000
     27 H5          3.0760    2.4450    0.0900 ha        1 T1D      0.143000
     28 H6          0.9510    3.6960    0.2750 ha        1 T1D      0.144000
     29 H8C1       -1.0600    4.2470   -0.7280 h1        1 T1D      0.049033
     30 H8C2       -2.5990    4.2250    0.2790 h1        1 T1D      0.049033
     31 H8C3       -0.9680    4.4560    1.0960 h1        1 T1D      0.049033
     32 H10         4.4450    1.0560    1.3710 ha        1 T1D      0.137000
     33 H11         6.5890   -0.1940    1.1860 ha        1 T1D      0.134500
     34 H12         6.7450   -2.2040   -0.2870 ha        1 T1D      0.133000
     35 H13         4.7450   -2.9570   -1.5780 ha        1 T1D      0.134500
     36 H14         2.6000   -1.7090   -1.4030 ha        1 T1D      0.137000
@<TRIPOS>BOND
     1    1    2 2   
     2    2    3 1   
     3    2    8 1   
     4    3    4 1   
     5    3   23 1   
     6    4    5 2   
     7    4    6 2   
     8    4    7 1   
     9    7    8 1   
    10    7    9 1   
    11    8   24 1   
    12    8   25 1   
    13    9   10 ar  
    14    9   14 ar  
    15   10   11 ar  
    16   10   26 1   
    17   11   12 ar  
    18   11   17 1   
    19   12   13 ar  
    20   12   27 1   
    21   13   14 ar  
    22   13   28 1   
    23   14   15 1   
    24   15   16 1   
    25   16   29 1   
    26   16   30 1   
    27   16   31 1   
    28   17   18 ar  
    29   17   22 ar  
    30   18   19 ar  
    31   18   32 1   
    32   19   20 ar  
    33   19   33 1   
    34   20   21 ar  
    35   20   34 1   
    36   21   22 ar  
    37   21   35 1   
    38   22   36 1   
@<TRIPOS>SUBSTRUCTURE
     1 T1D         1 TEMP              0 ****  ****    0 ROOT
