@<TRIPOS>MOLECULE
T1D
   36    38     1     0     0
SMALL
bcc


@<TRIPOS>ATOM
      1 O           0.2140   -0.8860    0.2170 o         1 T1D     -0.565500
      2 C           1.3640   -0.4640    0.0860 c         1 T1D      0.690500
      3 N           2.0960    0.2070    1.0720 n         1 T1D     -0.680300
      4 S           3.6280    0.6450    0.5810 s6        1 T1D      1.596500
      5 O1          3.7570    2.0390    0.5610 o         1 T1D     -0.635800
      6 O2          4.5910   -0.0180    1.3470 o         1 T1D     -0.635800
      7 N1          3.4820    0.0310   -0.9540 nh        1 T1D     -0.679900
      8 C1          2.2050   -0.6040   -1.2030 c3        1 T1D      0.134800
      9 C2          4.4790    0.0060   -1.9420 ca        1 T1D      0.115600
     10 C3          4.9980    1.2210   -2.4320 ca        1 T1D     -0.101000
     11 C4          6.0140    1.2410   -3.3940 cp        1 T1D     -0.051000
     12 C5          6.5120    0.0310   -3.8940 ca        1 T1D     -0.081000
     13 C6          6.0070   -1.1820   -3.4420 ca        1 T1D     -0.195000
     14 C7          4.9980   -1.2110   -2.4720 ca        1 T1D      0.129100
     15 O3          4.4320   -2.3790   -2.0020 os        1 T1D     -0.331900
     16 C8          5.0900   -3.5910   -2.3600 c3        1 T1D      0.113700
     17 C9          6.5460    2.5160   -3.8710 cp        1 T1D     -0.042000
     18 C10         6.8480    2.6940   -5.2290 ca        1 T1D     -0.117500
     19 C11         7.3560    3.9090   -5.6840 ca        1 T1D     -0.129500
     20 C12         7.5710    4.9580   -4.7890 ca        1 T1D     -0.124000
     21 C13         7.2730    4.7880   -3.4370 ca        1 T1D     -0.129500
     22 C14         6.7630    3.5750   -2.9780 ca        1 T1D     -0.117500
     23 H           1.6790    0.3650    1.9550 hn        1 T1D      0.361500
     24 H1          2.3260   -1.6980   -1.4450 h1        1 T1D      0.100200
     25 H11A        1.6580   -0.1030   -2.0490 h1        1 T1D      0.100200
     26 H3          4.6060    2.1780   -2.0450 ha        1 T1D      0.163000
     27 H5          7.3150    0.0400   -4.6480 ha        1 T1D      0.143000
     28 H6          6.4130   -2.1190   -3.8490 ha        1 T1D      0.144000
     29 H8C1        6.1650   -3.5650   -2.0590 h1        1 T1D      0.049033
     30 H8C2        4.5340   -4.3670   -1.7750 h1        1 T1D      0.049033
     31 H8C3        4.9900   -3.7790   -3.4570 h1        1 T1D      0.049033
     32 H10         6.6730    1.8720   -5.9400 ha        1 T1D      0.137000
     33 H11         7.5870    4.0400   -6.7510 ha        1 T1D      0.134500
     34 H12         7.9720    5.9160   -5.1490 ha        1 T1D      0.133000
     35 H13         7.4410    5.6120   -2.7290 ha        1 T1D      0.134500
     36 H14         6.5340    3.4460   -1.9090 ha        1 T1D      0.137000
@<TRIPOS>BOND
     1    1    2 2   
     2    2    3 1   
     3    2    8 1   
     4    3    4 1   
     5    3   23 1   
     6    4    5 2   
     7    4    6 2   
     8    4    7 1   
     9    7    8 1   
    10    7    9 1   
    11    8   24 1   
    12    8   25 1   
    13    9   10 ar  
    14    9   14 ar  
    15   10   11 ar  
    16   10   26 1   
    17   11   12 ar  
    18   11   17 1   
    19   12   13 ar  
    20   12   27 1   
    21   13   14 ar  
    22   13   28 1   
    23   14   15 1   
    24   15   16 1   
    25   16   29 1   
    26   16   30 1   
    27   16   31 1   
    28   17   18 ar  
    29   17   22 ar  
    30   18   19 ar  
    31   18   32 1   
    32   19   20 ar  
    33   19   33 1   
    34   20   21 ar  
    35   20   34 1   
    36   21   22 ar  
    37   21   35 1   
    38   22   36 1   
@<TRIPOS>SUBSTRUCTURE
     1 T1D         1 TEMP              0 ****  ****    0 ROOT
