@<TRIPOS>MOLECULE
T1N
   30    31     1     0     0
SMALL
bcc


@<TRIPOS>ATOM
      1 CAA         5.6780    0.7750   -0.4310 c3        1 T1N     -0.056000
      2 CAB        -3.9550    0.3020    1.8040 c3        1 T1N     -0.062100
      3 OAD        -4.4480   -1.4360   -0.4820 o         1 T1N     -0.832800
      4 CAE         2.7360    1.3480    0.0460 ca        1 T1N     -0.151000
      5 CAF        -1.6280   -1.1920    0.3020 ca        1 T1N     -0.093000
      6 CAG         1.4190    1.7320    0.0970 ca        1 T1N     -0.105000
      7 CAH        -0.3140   -1.5780    0.2390 ca        1 T1N     -0.151000
      8 CAI         2.0930   -0.9800    0.1170 ca        1 T1N     -0.096000
      9 CAJ        -0.9890    1.1410    0.2370 ca        1 T1N     -0.160000
     10 SAK         4.6930   -0.5940    0.0370 ss        1 T1N     -0.219000
     11 CAL        -4.3010   -0.1890   -0.6240 c         1 T1N      0.923600
     12 CAM         3.0870   -0.0240    0.0580 ca        1 T1N     -0.023100
     13 CAN        -1.9850    0.1890    0.3140 ca        1 T1N      0.003700
     14 CAO         0.7270   -0.6100    0.1790 ca        1 T1N     -0.040000
     15 CAP         0.3790    0.7670    0.1700 ca        1 T1N     -0.032000
     16 CAQ        -3.4190    0.5750    0.4140 c3        1 T1N     -0.173400
     17 HAA         5.7300    1.5500    0.3660 h1        1 T1N      0.059700
     18 HAAA        6.7000    0.3640   -0.6020 h1        1 T1N      0.059700
     19 HAAB        5.3180    1.2570   -1.3670 h1        1 T1N      0.059700
     20 HAB        -3.9560   -0.7980    1.9990 hc        1 T1N      0.022367
     21 HABA       -3.3390    0.8110    2.5830 hc        1 T1N      0.022367
     22 HABB       -5.0050    0.6730    1.8780 hc        1 T1N      0.022367
     23 HAE         3.5300    2.1070   -0.0040 ha        1 T1N      0.114000
     24 HAF        -2.4580   -1.9260    0.3080 ha        1 T1N      0.193000
     25 HAG         1.1470    2.7980    0.0820 ha        1 T1N      0.124000
     26 HAH        -0.0420   -2.6430    0.2240 ha        1 T1N      0.119000
     27 HAI         2.3490   -2.0510    0.1150 ha        1 T1N      0.131000
     28 HAJ        -1.2420    2.2120    0.2220 ha        1 T1N      0.125000
     29 HAQ        -3.5220    1.6730    0.1900 hc        1 T1N      0.047700
     30 OAC        -4.8380    0.5000   -1.5310 o         1 T1N     -0.832800
@<TRIPOS>BOND
     1    1   10 1   
     2    1   17 1   
     3    1   18 1   
     4    1   19 1   
     5    2   16 1   
     6    2   20 1   
     7    2   21 1   
     8    2   22 1   
     9    3   11 1   
    10    4    6 ar  
    11    4   12 ar  
    12    4   23 1   
    13    5    7 ar  
    14    5   13 ar  
    15    5   24 1   
    16    6   15 ar  
    17    6   25 1   
    18    7   14 ar  
    19    7   26 1   
    20    8   12 ar  
    21    8   14 ar  
    22    8   27 1   
    23    9   13 ar  
    24    9   15 ar  
    25    9   28 1   
    26   10   12 1   
    27   11   16 1   
    28   11   30 1   
    29   13   16 1   
    30   14   15 ar  
    31   16   29 1   
@<TRIPOS>SUBSTRUCTURE
     1 T1N         1 TEMP              0 ****  ****    0 ROOT
