@<TRIPOS>MOLECULE
T1N
   30    28     1     0     0
SMALL
bcc


@<TRIPOS>ATOM
      1 CAA        -0.0060   -0.0200   -1.3680 c3        1 T1N     -0.390000
      2 CAB         6.4340    1.3960    8.3550 c3        1 T1N     -0.188000
      3 OAD         7.3510   -1.4500    8.2060 o         1 T1N     -0.555000
      4 CAE         0.2000    0.2640    1.5630 c1        1 T1N     -0.634000
      5 CAF         5.7100   -0.5700    6.0590 c2        1 T1N     -0.392000
      6 CAG        -0.9070    0.6060    2.0560 c1        1 T1N      0.087000
      7 CAH         5.5900   -0.5660    4.7660 c1        1 T1N      0.033000
      8 CAI         2.5970   -0.3310    1.7230 c2        1 T1N     -0.256000
      9 CAJ         3.5690    0.0450    7.0440 c1        1 T1N      0.097000
     10 SAK         1.5550   -0.3300   -0.6380 ss        1 T1N      0.297000
     11 CAL         6.4120   -1.0350    8.9500 c2        1 T1N      0.343000
     12 CAM         1.3690   -0.0980    1.0150 c2        1 T1N      0.098000
     13 CAN         4.8790   -0.1120    7.1520 c2        1 T1N     -0.247000
     14 CAO         2.7790   -0.2380    3.0580 c2        1 T1N      0.008000
     15 CAP         1.7560    0.1180    4.0480 c3        1 T1N     -0.233000
     16 CAQ         5.5530    0.1720    8.4680 c3        1 T1N     -0.125000
     17 HAA        -0.7450    0.3970   -0.6410 h1        1 T1N      0.122000
     18 HAAA       -0.4150   -0.9680   -1.7840 h1        1 T1N      0.122000
     19 HAAB        0.1370    0.7100   -2.1970 h1        1 T1N      0.122000
     20 HAB         5.8510    2.2840    8.0130 hc        1 T1N      0.066667
     21 HABA        7.2610    1.2020    7.6290 hc        1 T1N      0.066667
     22 HABB        6.8830    1.6220    9.3520 hc        1 T1N      0.066667
     23 HAE         0.9000   -0.6060    4.0030 hc        1 T1N      0.115333
     24 HAF         6.6810   -1.0450    6.4570 ha        1 T1N      0.302000
     25 HAG         2.1730    0.1230    5.0880 hc        1 T1N      0.115333
     26 HAH         3.7970   -0.4480    3.4600 ha        1 T1N      0.168000
     27 HAI         3.4630   -0.6130    1.0920 ha        1 T1N      0.140000
     28 HAJ         1.3310    1.1320    3.8220 hc        1 T1N      0.115333
     29 HAQ         4.7660    0.3500    9.2520 hc        1 T1N      0.093000
     30 OAC         6.1400   -1.5110   10.0820 o         1 T1N     -0.555000
@<TRIPOS>BOND
     1    1   10 1   
     2    1   17 1   
     3    1   18 1   
     4    1   19 1   
     5    2   16 1   
     6    2   20 1   
     7    2   21 1   
     8    2   22 1   
     9    3   11 1   
    10    4    6 1   
    11    4   12 1   
    12    5    7 1   
    13    5   13 1   
    14    5   24 1   
    15    8   12 1   
    16    8   14 1   
    17    8   27 1   
    18    9   13 1   
    19   10   12 1   
    20   11   16 1   
    21   11   30 1   
    22   13   16 1   
    23   14   15 1   
    24   14   26 1   
    25   15   23 1   
    26   15   25 1   
    27   15   28 1   
    28   16   29 1   
@<TRIPOS>SUBSTRUCTURE
     1 T1N         1 TEMP              0 ****  ****    0 ROOT
