@<TRIPOS>MOLECULE
T1N
   30    29     1     0     0
SMALL
bcc


@<TRIPOS>ATOM
      1 CAA        -0.2740   -0.3080   -1.1830 c3        1 T1N     -0.373000
      2 CAB         7.1760    0.9030    7.0290 c3        1 T1N     -0.203000
      3 OAD         6.4990   -1.6310    9.6140 os        1 T1N     -0.163000
      4 CAE         1.1910   -0.8700    1.2920 c2        1 T1N     -0.420000
      5 CAF         4.6180   -1.5650    8.1680 c2        1 T1N     -0.435000
      6 CAG         1.2620   -1.7850    0.3510 c1        1 T1N      0.143000
      7 CAH         5.3120   -2.1350    9.1870 c1        1 T1N     -0.139000
      8 CAI         0.8340    1.3520    2.2860 c2        1 T1N     -0.101000
      9 CAJ         4.5010    0.0250    6.3560 c1        1 T1N     -0.032000
     10 SAK        -0.3500    0.9870   -0.0100 ss        1 T1N      0.185000
     11 CAL         7.0200   -0.4840    9.0840 c2        1 T1N      0.254000
     12 CAM         0.6410    0.4640    1.2880 c2        1 T1N     -0.197000
     13 CAN         5.0900   -0.3800    7.4680 c2        1 T1N     -0.258000
     14 CAO         1.6100    1.1480    3.4910 c2        1 T1N     -0.177000
     15 CAP         2.8210    0.5900    3.5570 c2        1 T1N     -0.194000
     16 CAQ         6.2450    0.3460    8.0880 c3        1 T1N     -0.066000
     17 HAA        -0.7190   -1.2580   -0.8030 h1        1 T1N      0.116000
     18 HAAA        0.7670   -0.5110   -1.5310 h1        1 T1N      0.116000
     19 HAAB       -0.8750    0.0370   -2.0570 h1        1 T1N      0.116000
     20 HAB         6.6210    1.6090    6.3640 hc        1 T1N      0.075667
     21 HABA        7.5910    0.0770    6.4020 hc        1 T1N      0.075667
     22 HABB        8.0260    1.4400    7.5140 hc        1 T1N      0.075667
     23 HAE         1.6370   -1.1790    2.2760 ha        1 T1N      0.223000
     24 HAF         3.6760   -2.0090    7.8330 ha        1 T1N      0.115000
     25 HAG         3.3530    0.2270    2.6660 ha        1 T1N      0.146000
     26 HAH         1.1260    1.5320    4.4070 ha        1 T1N      0.130000
     27 HAI         0.3440    2.3420    2.2190 ha        1 T1N      0.130000
     28 HAJ         3.3690    0.4740    4.5140 ha        1 T1N      0.146000
     29 HAQ         5.8160    1.2060    8.6850 hc        1 T1N      0.106000
     30 OAC         8.1330   -0.1640    9.5280 o         1 T1N     -0.395000
@<TRIPOS>BOND
     1    1   10 1   
     2    1   17 1   
     3    1   18 1   
     4    1   19 1   
     5    2   16 1   
     6    2   20 1   
     7    2   21 1   
     8    2   22 1   
     9    3    7 1   
    10    3   11 1   
    11    4    6 1   
    12    4   12 1   
    13    4   23 1   
    14    5    7 1   
    15    5   13 1   
    16    5   24 1   
    17    8   12 1   
    18    8   14 1   
    19    8   27 1   
    20    9   13 1   
    21   10   12 1   
    22   11   16 1   
    23   11   30 1   
    24   13   16 1   
    25   14   15 1   
    26   14   26 1   
    27   15   25 1   
    28   15   28 1   
    29   16   29 1   
@<TRIPOS>SUBSTRUCTURE
     1 T1N         1 TEMP              0 ****  ****    0 ROOT
