@<TRIPOS>MOLECULE
T1P
   48    49     1     0     0
SMALL
bcc


@<TRIPOS>ATOM
      1 O33        -2.0720    1.8390   -1.4040 o         1 T1P     -0.929500
      2 P          -1.6110    1.0860   -0.2000 p5        1 T1P      1.356900
      3 O31        -0.3020    1.4590    0.4610 o         1 T1P     -0.929500
      4 O32        -2.6140    0.7420    0.8770 o         1 T1P     -0.929500
      5 O27        -1.1710   -0.4740   -0.7640 os        1 T1P     -0.596200
      6 C17        -1.1510   -0.6900   -2.1220 c3        1 T1P      0.200400
      7 C16         0.2660   -0.8660   -2.6780 c3        1 T1P     -0.133400
      8 C15         1.0000   -2.1110   -2.1920 c3        1 T1P      0.075000
      9 N5          1.5120   -2.1190   -0.8300 n         1 T1P     -0.250000
     10 C6          0.5580   -2.4820    0.2100 c         1 T1P      0.789500
     11 O6         -0.0780   -3.5480    0.2490 o         1 T1P     -0.635500
     12 C9          2.1010   -0.9060   -0.3410 cc        1 T1P     -0.301600
     13 C4          3.1380   -0.1220   -0.9660 c         1 T1P      0.769700
     14 O4          3.6920   -0.3330   -2.0670 o         1 T1P     -0.691500
     15 N3          3.5830    0.9740   -0.1970 n         1 T1P     -0.595500
     16 C2          2.9590    1.3900    0.9960 c         1 T1P      0.813500
     17 O2          3.3970    2.4170    1.5670 o         1 T1P     -0.678500
     18 C8          1.5190   -0.5250    0.8940 cd        1 T1P      0.254200
     19 N1          1.9540    0.5920    1.6170 n         1 T1P     -0.381100
     20 N7          0.6400   -1.5440    1.3340 n         1 T1P     -0.315000
     21 C10        -0.5780   -1.3930    2.1010 c3        1 T1P      0.019000
     22 C11        -0.5080   -0.7610    3.4960 c3        1 T1P      0.115100
     23 O19         0.6750   -1.0330    4.2270 oh        1 T1P     -0.627800
     24 C12        -0.7930    0.7540    3.4430 c3        1 T1P      0.018100
     25 O21         0.2550    1.4660    4.0770 oh        1 T1P     -0.599800
     26 C13        -2.1420    1.0720    4.1070 c3        1 T1P      0.117100
     27 O23        -3.1720    0.2170    3.6560 oh        1 T1P     -0.668800
     28 C14        -2.5300    2.5290    3.8330 c3        1 T1P      0.093400
     29 O26        -3.7530    2.8450    4.4820 oh        1 T1P     -0.640800
     30 H171       -1.6390    0.1720   -2.6650 h1        1 T1P      0.010200
     31 H172       -1.7270   -1.6370   -2.3490 h1        1 T1P      0.010200
     32 H161        0.8750    0.0440   -2.4360 hc        1 T1P      0.036200
     33 H162        0.1940   -0.9410   -3.7950 hc        1 T1P      0.036200
     34 H151        1.9110   -2.2590   -2.8410 h1        1 T1P      0.043700
     35 H152        0.3250   -3.0070   -2.2920 h1        1 T1P      0.043700
     36 H3          4.2200    1.6140   -0.6110 hn        1 T1P      0.322500
     37 H1          1.1920    1.1590    1.9980 hn        1 T1P      0.404500
     38 H101       -0.9680   -2.4470    2.2240 h1        1 T1P      0.113200
     39 H102       -1.3500   -0.7920    1.4980 h1        1 T1P      0.113200
     40 H11        -1.3150   -1.2650    4.1090 h1        1 T1P      0.073700
     41 H19         1.4060   -0.5840    3.7850 ho        1 T1P      0.414000
     42 H12        -0.8220    1.1340    2.3530 h1        1 T1P      0.212700
     43 H21         0.3230    1.1280    4.9790 ho        1 T1P      0.377000
     44 H13        -2.0850    0.8940    5.2180 h1        1 T1P      0.023700
     45 H23        -3.1770    0.2550    2.6730 ho        1 T1P      0.497000
     46 H141       -2.6330    2.6850    2.7240 h1        1 T1P      0.070200
     47 H142       -1.7690    3.2280    4.2630 h1        1 T1P      0.070200
     48 H26        -4.3830    2.1710    4.1960 ho        1 T1P      0.408000
@<TRIPOS>BOND
     1    1    2 1   
     2    2    3 1   
     3    2    4 1   
     4    2    5 1   
     5    5    6 1   
     6    6    7 1   
     7    6   30 1   
     8    6   31 1   
     9    7    8 1   
    10    7   32 1   
    11    7   33 1   
    12    8    9 1   
    13    8   34 1   
    14    8   35 1   
    15    9   10 1   
    16    9   12 1   
    17   10   11 2   
    18   10   20 1   
    19   12   13 1   
    20   12   18 2   
    21   13   14 2   
    22   13   15 1   
    23   15   16 1   
    24   15   36 1   
    25   16   17 2   
    26   16   19 1   
    27   18   19 1   
    28   18   20 1   
    29   19   37 1   
    30   20   21 1   
    31   21   22 1   
    32   21   38 1   
    33   21   39 1   
    34   22   23 1   
    35   22   24 1   
    36   22   40 1   
    37   23   41 1   
    38   24   25 1   
    39   24   26 1   
    40   24   42 1   
    41   25   43 1   
    42   26   27 1   
    43   26   28 1   
    44   26   44 1   
    45   27   45 1   
    46   28   29 1   
    47   28   46 1   
    48   28   47 1   
    49   29   48 1   
@<TRIPOS>SUBSTRUCTURE
     1 T1P         1 TEMP              0 ****  ****    0 ROOT
