@<TRIPOS>MOLECULE
T1P
   48    49     1     0     0
SMALL
bcc


@<TRIPOS>ATOM
      1 O33         5.1360    3.6110   -5.7970 o         1 T1P     -0.931833
      2 P           4.5970    4.3800   -4.6050 p5        1 T1P      1.360900
      3 O31         5.5500    5.1270   -3.7410 o         1 T1P     -0.931833
      4 O32         3.3690    5.0920   -5.1540 o         1 T1P     -0.931833
      5 O27         3.9520    3.2370   -3.5200 os        1 T1P     -0.568200
      6 C17         2.8360    2.5340   -3.9050 c3        1 T1P      0.238400
      7 C16         1.5790    2.9970   -3.1590 c3        1 T1P     -0.141400
      8 C15         0.2700    2.6140   -3.8450 c3        1 T1P      0.053000
      9 N5         -0.0730    3.2990   -5.0890 n         1 T1P     -0.242000
     10 C6          0.6320    2.8010   -6.2680 c         1 T1P      0.743500
     11 O6          0.5410    1.6440   -6.7090 o         1 T1P     -0.624500
     12 C9          0.1900    4.7110   -5.1210 cc        1 T1P     -0.323600
     13 C4         -0.2940    5.7080   -4.2000 c         1 T1P      0.774700
     14 O4         -1.0180    5.5290   -3.1970 o         1 T1P     -0.688500
     15 N3          0.0760    7.0320   -4.5260 n         1 T1P     -0.589500
     16 C2          0.9730    7.3540   -5.5610 c         1 T1P      0.814500
     17 O2          1.2920    8.5540   -5.7340 o         1 T1P     -0.683500
     18 C8          1.0650    5.0420   -6.1850 cd        1 T1P      0.288200
     19 N1          1.3930    6.3610   -6.4910 n         1 T1P     -0.373100
     20 N7          1.2980    3.8930   -6.9970 n         1 T1P     -0.313000
     21 C10         2.5990    3.5170   -7.5200 c3        1 T1P     -0.019000
     22 C11         3.2810    4.4740   -8.5060 c3        1 T1P      0.150100
     23 O19         3.8480    5.5900   -7.8590 oh        1 T1P     -0.674800
     24 C12         4.3520    3.6650   -9.2730 c3        1 T1P      0.104100
     25 O21         4.9250    2.5980   -8.5510 oh        1 T1P     -0.659800
     26 C13         5.4690    4.5540   -9.8520 c3        1 T1P      0.088100
     27 O23         6.1940    3.7950  -10.8160 oh        1 T1P     -0.630800
     28 C14         6.4340    5.1040   -8.7900 c3        1 T1P      0.101400
     29 O26         6.3870    6.5180   -8.7700 oh        1 T1P     -0.630800
     30 H171        2.9950    1.4390   -3.6700 h1        1 T1P     -0.017800
     31 H172        2.6780    2.6220   -5.0150 h1        1 T1P     -0.017800
     32 H161        1.5740    2.5390   -2.1370 hc        1 T1P      0.051200
     33 H162        1.6180    4.1110   -3.0260 hc        1 T1P      0.051200
     34 H151       -0.5790    2.8520   -3.1420 h1        1 T1P      0.048200
     35 H152        0.2660    1.5100   -4.0680 h1        1 T1P      0.048200
     36 H3         -0.1160    7.7520   -3.8660 hn        1 T1P      0.325500
     37 H1          2.3380    6.5010   -6.8320 hn        1 T1P      0.387500
     38 H101        2.4470    2.5250   -8.0350 h1        1 T1P      0.122200
     39 H102        3.3460    3.3860   -6.6530 h1        1 T1P      0.122200
     40 H11         2.5600    4.9060   -9.2550 h1        1 T1P      0.040700
     41 H19         4.1510    5.3010   -6.9580 ho        1 T1P      0.495000
     42 H12         3.8360    3.1570  -10.1430 h1        1 T1P      0.039700
     43 H21         5.1250    2.8970   -7.6360 ho        1 T1P      0.497000
     44 H13         5.0170    5.4030  -10.4330 h1        1 T1P      0.067700
     45 H23         6.4550    2.9780  -10.3700 ho        1 T1P      0.406000
     46 H141        6.2040    4.6790   -7.7720 h1        1 T1P      0.073200
     47 H142        7.4910    4.8560   -9.0770 h1        1 T1P      0.073200
     48 H26         5.5910    6.7630   -8.2800 ho        1 T1P      0.424000
@<TRIPOS>BOND
     1    1    2 1   
     2    2    3 1   
     3    2    4 1   
     4    2    5 1   
     5    5    6 1   
     6    6    7 1   
     7    6   30 1   
     8    6   31 1   
     9    7    8 1   
    10    7   32 1   
    11    7   33 1   
    12    8    9 1   
    13    8   34 1   
    14    8   35 1   
    15    9   10 1   
    16    9   12 1   
    17   10   11 2   
    18   10   20 1   
    19   12   13 1   
    20   12   18 2   
    21   13   14 2   
    22   13   15 1   
    23   15   16 1   
    24   15   36 1   
    25   16   17 2   
    26   16   19 1   
    27   18   19 1   
    28   18   20 1   
    29   19   37 1   
    30   20   21 1   
    31   21   22 1   
    32   21   38 1   
    33   21   39 1   
    34   22   23 1   
    35   22   24 1   
    36   22   40 1   
    37   23   41 1   
    38   24   25 1   
    39   24   26 1   
    40   24   42 1   
    41   25   43 1   
    42   26   27 1   
    43   26   28 1   
    44   26   44 1   
    45   27   45 1   
    46   28   29 1   
    47   28   46 1   
    48   28   47 1   
    49   29   48 1   
@<TRIPOS>SUBSTRUCTURE
     1 T1P         1 TEMP              0 ****  ****    0 ROOT
