@<TRIPOS>MOLECULE
T1P
   48    49     1     0     0
SMALL
bcc


@<TRIPOS>ATOM
      1 O33         5.1440    3.8130   -5.4990 o         1 T1P     -0.936167
      2 P           4.4390    4.1310   -4.1950 p5        1 T1P      1.356900
      3 O31         5.2740    4.4920   -3.0130 o         1 T1P     -0.936167
      4 O32         3.2270    4.9780   -4.5340 o         1 T1P     -0.936167
      5 O27         3.7210    2.6470   -3.7280 os        1 T1P     -0.567200
      6 C17         2.7790    2.1320   -4.5860 c3        1 T1P      0.238400
      7 C16         1.3710    2.1930   -3.9810 c3        1 T1P     -0.141400
      8 C15         0.2410    2.0370   -4.9950 c3        1 T1P      0.052000
      9 N5          0.0020    3.1390   -5.9260 n         1 T1P     -0.241000
     10 C6          0.9440    3.1850   -7.0480 c         1 T1P      0.743500
     11 O6          1.0800    2.2870   -7.8940 o         1 T1P     -0.627500
     12 C9          0.0960    4.4570   -5.3610 cc        1 T1P     -0.315600
     13 C4         -0.5920    4.9760   -4.2030 c         1 T1P      0.774700
     14 O4         -1.4430    4.3880   -3.5010 o         1 T1P     -0.689500
     15 N3         -0.2760    6.3160   -3.8850 ns        1 T1P     -0.587500
     16 C2          0.7480    7.0460   -4.5220 c         1 T1P      0.821500
     17 O2          1.0070    8.2040   -4.1160 o         1 T1P     -0.685500
     18 C8          1.0740    5.2250   -6.0360 cd        1 T1P      0.268200
     19 N1          1.3580    6.5470   -5.7060 ns        1 T1P     -0.352100
     20 N7          1.5630    4.5090   -7.1690 n         1 T1P     -0.299000
     21 C10         2.9810    4.5210   -7.4640 c3        1 T1P     -0.011000
     22 C11         3.4930    5.5640   -8.4640 c3        1 T1P      0.132100
     23 O19         2.9290    6.8370   -8.1760 oh        1 T1P     -0.607800
     24 C12         5.0290    5.6480   -8.2920 c3        1 T1P      0.086100
     25 O21         5.4520    6.9630   -8.6560 oh        1 T1P     -0.628800
     26 C13         5.8210    4.6560   -9.1480 c3        1 T1P      0.121100
     27 O23         5.3130    4.6680  -10.4800 oh        1 T1P     -0.615800
     28 C14         5.7680    3.2480   -8.5360 c3        1 T1P      0.043400
     29 O26         7.0190    2.6080   -8.7390 oh        1 T1P     -0.641800
     30 H171        2.8040    2.6790   -5.5710 h1        1 T1P     -0.019800
     31 H172        3.0180    1.0450   -4.7920 h1        1 T1P     -0.019800
     32 H161        1.2530    3.1660   -3.4350 hc        1 T1P      0.049700
     33 H162        1.2650    1.3720   -3.2270 hc        1 T1P      0.049700
     34 H151       -0.7280    1.9240   -4.4290 h1        1 T1P      0.047200
     35 H152        0.4130    1.1150   -5.6180 h1        1 T1P      0.047200
     36 H3         -0.6000    6.6790   -3.0180 hn        1 T1P      0.324500
     37 H1          2.3310    6.8040   -5.8180 hn        1 T1P      0.383500
     38 H101        3.5670    4.6360   -6.4720 h1        1 T1P      0.137700
     39 H102        3.2500    3.5140   -7.8980 h1        1 T1P      0.137700
     40 H11         3.2330    5.2790   -9.5210 h1        1 T1P      0.039700
     41 H19         3.2660    7.4370   -8.8540 ho        1 T1P      0.394000
     42 H12         5.3050    5.4410   -7.2090 h1        1 T1P      0.140700
     43 H21         5.3120    7.5050   -7.8700 ho        1 T1P      0.404000
     44 H13         6.8940    5.0060   -9.1850 h1        1 T1P      0.038700
     45 H23         5.6780    3.8860  -10.9090 ho        1 T1P      0.390000
     46 H141        5.0160    2.6190   -9.0840 h1        1 T1P      0.113200
     47 H142        5.5010    3.2920   -7.4310 h1        1 T1P      0.113200
     48 H26         7.5060    2.7040   -7.9120 ho        1 T1P      0.411000
@<TRIPOS>BOND
     1    1    2 1   
     2    2    3 1   
     3    2    4 1   
     4    2    5 1   
     5    5    6 1   
     6    6    7 1   
     7    6   30 1   
     8    6   31 1   
     9    7    8 1   
    10    7   32 1   
    11    7   33 1   
    12    8    9 1   
    13    8   34 1   
    14    8   35 1   
    15    9   10 1   
    16    9   12 1   
    17   10   11 2   
    18   10   20 1   
    19   12   13 1   
    20   12   18 2   
    21   13   14 2   
    22   13   15 1   
    23   15   16 1   
    24   15   36 1   
    25   16   17 2   
    26   16   19 1   
    27   18   19 1   
    28   18   20 1   
    29   19   37 1   
    30   20   21 1   
    31   21   22 1   
    32   21   38 1   
    33   21   39 1   
    34   22   23 1   
    35   22   24 1   
    36   22   40 1   
    37   23   41 1   
    38   24   25 1   
    39   24   26 1   
    40   24   42 1   
    41   25   43 1   
    42   26   27 1   
    43   26   28 1   
    44   26   44 1   
    45   27   45 1   
    46   28   29 1   
    47   28   46 1   
    48   28   47 1   
    49   29   48 1   
@<TRIPOS>SUBSTRUCTURE
     1 T1P         1 TEMP              0 ****  ****    0 ROOT
