@<TRIPOS>MOLECULE
T1Q
   57    58     1     0     0
SMALL
bcc


@<TRIPOS>ATOM
      1 N1         -0.0160   -1.3460    0.3940 nb        1 T1Q     -0.691000
      2 C2          1.2630   -0.8660    0.5930 ca        1 T1Q      0.763900
      3 N3          1.7870   -0.3160    1.7170 nb        1 T1Q     -0.717000
      4 C4          0.9340   -0.2380    2.8080 ca        1 T1Q      0.606200
      5 C5         -0.4190   -0.7230    2.7000 ca        1 T1Q     -0.327400
      6 C6         -0.8270   -1.2630    1.4580 ca        1 T1Q      0.526200
      7 N7          1.3890    0.3070    4.0010 n         1 T1Q     -0.400300
      8 C8          0.5310    0.3930    5.1300 c         1 T1Q      0.720700
      9 C9         -0.8480   -0.1360    5.0080 cc        1 T1Q     -0.109400
     10 C10        -1.2890   -0.6600    3.8370 cd        1 T1Q      0.010800
     11 C11         2.7550    0.7820    4.1090 c3        1 T1Q      0.057300
     12 O12         0.9670    0.9080    6.1750 o         1 T1Q     -0.613500
     13 C13        -1.6680   -0.0900    6.2150 ca        1 T1Q     -0.112800
     14 C14        -1.8140    1.1120    6.9430 ca        1 T1Q      0.171900
     15 C15        -2.4910    1.1330    8.1920 ca        1 T1Q     -0.065400
     16 C16        -3.1080   -0.0480    8.6530 ca        1 T1Q     -0.048000
     17 C17        -3.0200   -1.2210    7.9230 ca        1 T1Q     -0.145000
     18 C18        -2.3010   -1.2550    6.7110 ca        1 T1Q      0.201900
     19 F19        -2.2160   -2.4160    6.0300 f         1 T1Q     -0.102900
     20 F20        -1.2930    2.2640    6.4570 f         1 T1Q     -0.120900
     21 N21        -2.5230    2.3310    8.9800 nh        1 T1Q     -0.876200
     22 N22         2.1870   -0.9680   -0.5800 n4        1 T1Q     -0.746700
     23 S23        -0.7590    2.4790   10.4520 s4        1 T1Q      1.601500
     24 C24         0.4250    2.5520    9.3480 c3        1 T1Q     -0.500100
     25 O25        -1.1930    3.6640   10.9470 o         1 T1Q     -0.408900
     26 O26        -0.9930    1.2870   11.0530 o         1 T1Q     -0.408900
     27 C27         1.7610    2.0350    9.8960 c3        1 T1Q     -0.045400
     28 C28         2.8330    2.0970    8.8390 c3        1 T1Q     -0.102100
     29 C29         1.8680    0.0750   -1.6120 c3        1 T1Q      0.114800
     30 C30         2.8570    0.0270   -2.7660 c3        1 T1Q     -0.128400
     31 C31         2.4850    1.0950   -3.7920 c3        1 T1Q      0.145400
     32 O32         3.5630    1.1190   -4.7080 oh        1 T1Q     -0.588800
     33 H6         -1.8570   -1.6520    1.3090 h4        1 T1Q      0.080100
     34 H10        -2.3120   -1.0650    3.7350 ha        1 T1Q      0.181000
     35 H11         3.4690   -0.0600    3.9010 h1        1 T1Q      0.081367
     36 H11A        2.9390    1.1680    5.1480 h1        1 T1Q      0.081367
     37 H11B        2.9280    1.6120    3.3730 h1        1 T1Q      0.081367
     38 H16        -3.6630   -0.0530    9.6090 ha        1 T1Q      0.179000
     39 H17        -3.5080   -2.1440    8.2860 ha        1 T1Q      0.196000
     40 HN21       -3.3610    2.3500    9.5480 hn        1 T1Q      0.428300
     41 HN22        2.0860   -1.9050   -0.9980 hn        1 T1Q      0.479300
     42 H24         0.6230    3.5990    8.9570 h1        1 T1Q      0.193700
     43 H24A        0.2480    1.9620    8.3890 h1        1 T1Q      0.193700
     44 H27         1.6320    0.9730   10.2400 hc        1 T1Q      0.072200
     45 H27A        2.0720    2.6610   10.7750 hc        1 T1Q      0.072200
     46 H28         3.0260    3.1530    8.5310 hc        1 T1Q      0.063700
     47 H28A        3.7820    1.6680    9.2450 hc        1 T1Q      0.063700
     48 H28B        2.5340    1.5120    7.9340 hc        1 T1Q      0.063700
     49 H29         0.8190   -0.1120   -1.9840 hx        1 T1Q      0.115700
     50 H29A        1.9040    1.0820   -1.1040 hx        1 T1Q      0.115700
     51 H30         2.8480   -0.9750   -3.2710 hc        1 T1Q      0.087700
     52 H30A        3.9050    0.2230   -2.4140 hc        1 T1Q      0.087700
     53 H31         1.5250    0.8280   -4.3090 h1        1 T1Q      0.039200
     54 H31A        2.3760    2.0990   -3.3000 h1        1 T1Q      0.039200
     55 HO32        3.3040    1.6960   -5.4390 ho        1 T1Q      0.434000
     56 H212       -2.5310    3.1450    8.3790 hn        1 T1Q      0.428300
     57 H222        3.1620   -0.8510   -0.2650 hn        1 T1Q      0.479300
@<TRIPOS>BOND
     1    1    2 ar  
     2    1    6 ar  
     3    2    3 ar  
     4    2   22 1   
     5    3    4 ar  
     6    4    5 ar  
     7    4    7 1   
     8    5    6 ar  
     9    5   10 1   
    10    6   33 1   
    11    7    8 1   
    12    7   11 1   
    13    8    9 1   
    14    8   12 2   
    15    9   10 2   
    16    9   13 1   
    17   10   34 1   
    18   11   35 1   
    19   11   36 1   
    20   11   37 1   
    21   13   14 ar  
    22   13   18 ar  
    23   14   15 ar  
    24   14   20 1   
    25   15   16 ar  
    26   15   21 1   
    27   16   17 ar  
    28   16   38 1   
    29   17   18 ar  
    30   17   39 1   
    31   18   19 1   
    32   21   40 1   
    33   21   56 1   
    34   22   29 1   
    35   22   41 1   
    36   22   57 1   
    37   23   24 1   
    38   23   25 1   
    39   23   26 1   
    40   24   27 1   
    41   24   42 1   
    42   24   43 1   
    43   27   28 1   
    44   27   44 1   
    45   27   45 1   
    46   28   46 1   
    47   28   47 1   
    48   28   48 1   
    49   29   30 1   
    50   29   49 1   
    51   29   50 1   
    52   30   31 1   
    53   30   51 1   
    54   30   52 1   
    55   31   32 1   
    56   31   53 1   
    57   31   54 1   
    58   32   55 1   
@<TRIPOS>SUBSTRUCTURE
     1 T1Q         1 TEMP              0 ****  ****    0 ROOT
