@<TRIPOS>MOLECULE
T1Q
   55    57     1     0     0
SMALL
bcc


@<TRIPOS>ATOM
      1 N1         -0.1270   -0.0190   -0.1480 nb        1 T1Q     -0.766000
      2 C2          1.2800    0.0350   -0.1000 ca        1 T1Q      0.936900
      3 N3          2.0370    0.0410    1.0580 nb        1 T1Q     -0.819000
      4 C4          1.3530    0.0080    2.2470 ca        1 T1Q      0.632200
      5 C5         -0.0850   -0.0390    2.2760 ca        1 T1Q     -0.435400
      6 C6         -0.7460   -0.0520    1.0240 ca        1 T1Q      0.525200
      7 N7          2.0630    0.0190    3.4490 n         1 T1Q     -0.423300
      8 C8          1.3900   -0.0130    4.6980 c         1 T1Q      0.718700
      9 C9         -0.0850   -0.0620    4.6920 cc        1 T1Q     -0.169400
     10 C10        -0.7740   -0.0740    3.5220 cd        1 T1Q      0.041800
     11 C11         3.5080    0.0630    3.4250 c3        1 T1Q      0.070300
     12 O12         2.0730    0.0000    5.7380 o         1 T1Q     -0.617500
     13 C13        -0.7530   -0.1020    5.9920 ca        1 T1Q     -0.077800
     14 C14        -0.9360    1.0790    6.7410 ca        1 T1Q      0.138900
     15 C15        -1.5660    1.0530    8.0220 ca        1 T1Q      0.104600
     16 C16        -2.0260   -0.1860    8.5140 ca        1 T1Q     -0.121000
     17 C17        -1.8470   -1.3520    7.7870 ca        1 T1Q     -0.157000
     18 C18        -1.2130   -1.3220    6.5320 ca        1 T1Q      0.150900
     19 F19        -1.0540   -2.4790    5.8490 f         1 T1Q     -0.127900
     20 F20        -0.5210    2.2640    6.2310 f         1 T1Q     -0.129900
     21 N21        -1.7290    2.2400    8.7510 nh        1 T1Q     -0.774500
     22 N22         1.9780    0.1080   -1.2920 nh        1 T1Q     -0.851900
     23 S23        -1.6670    2.4330   10.3710 s6        1 T1Q      1.457900
     24 C24         0.0030    2.2580   10.7130 c3        1 T1Q     -0.329600
     25 O25        -2.0570    3.7580   10.6500 o         1 T1Q     -0.646300
     26 O26        -2.3700    1.4080   11.0320 o         1 T1Q     -0.646300
     27 C27         0.2660    2.4040   12.1970 c3        1 T1Q     -0.055400
     28 C28         1.7290    2.2520   12.5190 c3        1 T1Q     -0.087100
     29 C29         1.3270    0.0080   -2.5720 c3        1 T1Q      0.223800
     30 C30         2.3160    0.0570   -3.7350 c3        1 T1Q     -0.104400
     31 C31         1.5490   -0.0390   -5.0440 c3        1 T1Q      0.135400
     32 O32         2.5140   -0.0040   -6.0830 oh        1 T1Q     -0.599800
     33 H6         -1.8530   -0.0930    0.9850 h4        1 T1Q      0.031100
     34 H10        -1.8770   -0.1130    3.5070 ha        1 T1Q      0.146000
     35 H11         3.8530    0.9930    2.8990 h1        1 T1Q      0.063700
     36 H11A        3.9050    0.0660    4.4760 h1        1 T1Q      0.063700
     37 H11B        3.9080   -0.8350    2.8830 h1        1 T1Q      0.063700
     38 H16        -2.5360   -0.2410    9.4950 ha        1 T1Q      0.184000
     39 H17        -2.2020   -2.3140    8.1880 ha        1 T1Q      0.161000
     40 HN21       -1.8270    3.0430    8.1650 hn        1 T1Q      0.464800
     41 HN22        2.9720    0.0840   -1.2620 hn        1 T1Q      0.455800
     42 H24         0.6240    3.0200   10.1710 h1        1 T1Q      0.117700
     43 H24A        0.4020    1.2620   10.3820 h1        1 T1Q      0.117700
     44 H27        -0.0900    3.4140   12.5370 hc        1 T1Q      0.059700
     45 H27A       -0.3250    1.6280   12.7550 hc        1 T1Q      0.059700
     46 H28         2.1000    1.2460   12.2060 hc        1 T1Q      0.038367
     47 H28A        1.8930    2.3640   13.6180 hc        1 T1Q      0.038367
     48 H28B        2.3330    3.0280   11.9890 hc        1 T1Q      0.038367
     49 H29         0.7400   -0.9560   -2.6270 h1        1 T1Q      0.056200
     50 H29A        0.5910    0.8590   -2.6750 h1        1 T1Q      0.056200
     51 H30         3.0470   -0.7910   -3.6750 hc        1 T1Q      0.064700
     52 H30A        2.9040    1.0110   -3.7220 hc        1 T1Q      0.064700
     53 H31         0.9660   -0.9980   -5.0930 h1        1 T1Q      0.026200
     54 H31A        0.8380    0.8240   -5.1500 h1        1 T1Q      0.026200
     55 HO32        2.0260   -0.0580   -6.9130 ho        1 T1Q      0.405000
@<TRIPOS>BOND
     1    1    2 ar  
     2    1    6 ar  
     3    2    3 ar  
     4    2   22 1   
     5    3    4 ar  
     6    4    5 ar  
     7    4    7 1   
     8    5    6 ar  
     9    5   10 1   
    10    6   33 1   
    11    7    8 1   
    12    7   11 1   
    13    8    9 1   
    14    8   12 2   
    15    9   10 2   
    16    9   13 1   
    17   10   34 1   
    18   11   35 1   
    19   11   36 1   
    20   11   37 1   
    21   13   14 ar  
    22   13   18 ar  
    23   14   15 ar  
    24   14   20 1   
    25   15   16 ar  
    26   15   21 1   
    27   16   17 ar  
    28   16   38 1   
    29   17   18 ar  
    30   17   39 1   
    31   18   19 1   
    32   21   23 1   
    33   21   40 1   
    34   22   29 1   
    35   22   41 1   
    36   23   24 1   
    37   23   25 2   
    38   23   26 2   
    39   24   27 1   
    40   24   42 1   
    41   24   43 1   
    42   27   28 1   
    43   27   44 1   
    44   27   45 1   
    45   28   46 1   
    46   28   47 1   
    47   28   48 1   
    48   29   30 1   
    49   29   49 1   
    50   29   50 1   
    51   30   31 1   
    52   30   51 1   
    53   30   52 1   
    54   31   32 1   
    55   31   53 1   
    56   31   54 1   
    57   32   55 1   
@<TRIPOS>SUBSTRUCTURE
     1 T1Q         1 TEMP              0 ****  ****    0 ROOT
