@<TRIPOS>MOLECULE
T1Q
   55    57     1     0     0
SMALL
bcc


@<TRIPOS>ATOM
      1 N1         -4.7950    1.3090    0.1440 nb        1 T1Q     -0.766000
      2 C2         -5.0350   -0.0430   -0.1730 ca        1 T1Q      0.936900
      3 N3         -4.0730   -1.0370   -0.2000 nb        1 T1Q     -0.819000
      4 C4         -2.7860   -0.6630    0.0890 ca        1 T1Q      0.632200
      5 C5         -2.4620    0.7010    0.4140 ca        1 T1Q     -0.435400
      6 C6         -3.5370    1.6250    0.4200 ca        1 T1Q      0.525200
      7 N7         -1.7710   -1.6220    0.0720 n         1 T1Q     -0.423300
      8 C8         -0.4280   -1.2720    0.3660 c         1 T1Q      0.718700
      9 C9         -0.1310    0.1350    0.6950 cc        1 T1Q     -0.169400
     10 C10        -1.1190    1.0670    0.7140 cd        1 T1Q      0.041800
     11 C11        -2.0910   -2.9950   -0.2510 c3        1 T1Q      0.070300
     12 O12         0.4370   -2.1670    0.3350 o         1 T1Q     -0.617500
     13 C13         1.2600    0.4670    1.0010 ca        1 T1Q     -0.077800
     14 C14         2.1990    0.6440   -0.0360 ca        1 T1Q      0.138900
     15 C15         3.5660    0.9460    0.2470 ca        1 T1Q      0.104600
     16 C16         3.9530    1.0870    1.5950 ca        1 T1Q     -0.121000
     17 C17         3.0370    0.9100    2.6210 ca        1 T1Q     -0.157000
     18 C18         1.6960    0.5990    2.3360 ca        1 T1Q      0.150900
     19 F19         0.8290    0.4320    3.3620 f         1 T1Q     -0.127900
     20 F20         1.7960    0.5450   -1.3270 f         1 T1Q     -0.128900
     21 N21         4.4830    1.1100   -0.8020 nh        1 T1Q     -0.774500
     22 N22        -6.3220   -0.4220   -0.5080 nh        1 T1Q     -0.851900
     23 S23         6.0640    0.7000   -0.8190 s6        1 T1Q      1.457900
     24 C24         6.0130   -1.0100   -0.9070 c3        1 T1Q     -0.329600
     25 O25         6.6140    1.2060   -2.0140 o         1 T1Q     -0.646300
     26 O26         6.6970    1.0690    0.3820 o         1 T1Q     -0.646300
     27 C27         7.4120   -1.5890   -0.9290 c3        1 T1Q     -0.055400
     28 C28         7.3890   -3.0930   -1.0030 c3        1 T1Q     -0.087100
     29 C29        -7.4390    0.4830   -0.4170 c3        1 T1Q      0.223800
     30 C30        -8.7630   -0.1860   -0.7800 c3        1 T1Q     -0.104400
     31 C31        -9.8820    0.8370   -0.6740 c3        1 T1Q      0.135400
     32 O32       -11.0840    0.1590   -1.0060 oh        1 T1Q     -0.599800
     33 H6         -3.3490    2.6880    0.6690 h4        1 T1Q      0.031100
     34 H10        -0.9080    2.1200    0.9610 ha        1 T1Q      0.146000
     35 H11        -2.5350   -3.0510   -1.2800 h1        1 T1Q      0.063700
     36 H11A       -1.1580   -3.6190   -0.2180 h1        1 T1Q      0.063700
     37 H11B       -2.8300   -3.3990    0.4910 h1        1 T1Q      0.063700
     38 H16         4.9990    1.3390    1.8510 ha        1 T1Q      0.184000
     39 H17         3.3550    1.0130    3.6700 ha        1 T1Q      0.161000
     40 HN21        4.0590    1.4610   -1.6350 hn        1 T1Q      0.464800
     41 HN22       -6.5060   -1.3870   -0.6700 hn        1 T1Q      0.455800
     42 H24         5.4590   -1.4640   -0.0430 h1        1 T1Q      0.117700
     43 H24A        5.4720   -1.3670   -1.8240 h1        1 T1Q      0.117700
     44 H27         7.9680   -1.1780   -1.8160 hc        1 T1Q      0.059700
     45 H27A        7.9600   -1.2660   -0.0030 hc        1 T1Q      0.059700
     46 H28         6.8580   -3.5240   -0.1200 hc        1 T1Q      0.038367
     47 H28A        6.8660   -3.4360   -1.9290 hc        1 T1Q      0.038367
     48 H28B        8.4330   -3.4910   -1.0180 hc        1 T1Q      0.038367
     49 H29        -7.5100    0.8970    0.6310 h1        1 T1Q      0.056200
     50 H29A       -7.2600    1.3530   -1.1140 h1        1 T1Q      0.056200
     51 H30        -8.7340   -0.5930   -1.8240 hc        1 T1Q      0.064700
     52 H30A       -8.9810   -1.0430   -0.0910 hc        1 T1Q      0.064700
     53 H31        -9.9480    1.2450    0.3700 h1        1 T1Q      0.026200
     54 H31A       -9.7100    1.6870   -1.3870 h1        1 T1Q      0.026200
     55 HO32      -11.7920    0.8100   -0.9460 ho        1 T1Q      0.405000
@<TRIPOS>BOND
     1    1    2 ar  
     2    1    6 ar  
     3    2    3 ar  
     4    2   22 1   
     5    3    4 ar  
     6    4    5 ar  
     7    4    7 1   
     8    5    6 ar  
     9    5   10 1   
    10    6   33 1   
    11    7    8 1   
    12    7   11 1   
    13    8    9 1   
    14    8   12 2   
    15    9   10 2   
    16    9   13 1   
    17   10   34 1   
    18   11   35 1   
    19   11   36 1   
    20   11   37 1   
    21   13   14 ar  
    22   13   18 ar  
    23   14   15 ar  
    24   14   20 1   
    25   15   16 ar  
    26   15   21 1   
    27   16   17 ar  
    28   16   38 1   
    29   17   18 ar  
    30   17   39 1   
    31   18   19 1   
    32   21   23 1   
    33   21   40 1   
    34   22   29 1   
    35   22   41 1   
    36   23   24 1   
    37   23   25 2   
    38   23   26 2   
    39   24   27 1   
    40   24   42 1   
    41   24   43 1   
    42   27   28 1   
    43   27   44 1   
    44   27   45 1   
    45   28   46 1   
    46   28   47 1   
    47   28   48 1   
    48   29   30 1   
    49   29   49 1   
    50   29   50 1   
    51   30   31 1   
    52   30   51 1   
    53   30   52 1   
    54   31   32 1   
    55   31   53 1   
    56   31   54 1   
    57   32   55 1   
@<TRIPOS>SUBSTRUCTURE
     1 T1Q         1 TEMP              0 ****  ****    0 ROOT
