@<TRIPOS>MOLECULE
T1Q
   55    57     1     0     0
SMALL
bcc


@<TRIPOS>ATOM
      1 N1         -0.1280   -0.0270   -0.1500 nb        1 T1Q     -0.766000
      2 C2          1.2790    0.0370   -0.1010 ca        1 T1Q      0.936900
      3 N3          2.0350    0.0510    1.0570 nb        1 T1Q     -0.819000
      4 C4          1.3510    0.0180    2.2460 ca        1 T1Q      0.632200
      5 C5         -0.0870   -0.0390    2.2750 ca        1 T1Q     -0.435400
      6 C6         -0.7480   -0.0600    1.0220 ca        1 T1Q      0.525200
      7 N7          2.0600    0.0360    3.4480 n         1 T1Q     -0.423300
      8 C8          1.3870    0.0030    4.6970 c         1 T1Q      0.718700
      9 C9         -0.0880   -0.0550    4.6900 cc        1 T1Q     -0.169400
     10 C10        -0.7760   -0.0750    3.5200 cd        1 T1Q      0.041800
     11 C11         3.5050    0.0900    3.4250 c3        1 T1Q      0.070300
     12 O12         2.0690    0.0220    5.7370 o         1 T1Q     -0.617500
     13 C13        -0.7560   -0.0950    5.9900 ca        1 T1Q     -0.077800
     14 C14        -0.9350    1.0850    6.7410 ca        1 T1Q      0.138900
     15 C15        -1.5660    1.0590    8.0230 ca        1 T1Q      0.104600
     16 C16        -2.0300   -0.1790    8.5120 ca        1 T1Q     -0.121000
     17 C17        -1.8550   -1.3440    7.7830 ca        1 T1Q     -0.157000
     18 C18        -1.2200   -1.3140    6.5280 ca        1 T1Q      0.150900
     19 F19        -1.0650   -2.4710    5.8430 f         1 T1Q     -0.127900
     20 F20        -0.5170    2.2700    6.2330 f         1 T1Q     -0.129900
     21 N21        -1.7240    2.2450    8.7540 nu        1 T1Q     -0.774500
     22 N22         1.9770    0.1130   -1.2930 nu        1 T1Q     -0.851900
     23 S23        -1.6620    2.4340   10.3740 s6        1 T1Q      1.457900
     24 C24         0.0070    2.2500   10.7160 c3        1 T1Q     -0.329600
     25 O25        -2.0450    3.7610   10.6550 o         1 T1Q     -0.646300
     26 O26        -2.3700    1.4120   11.0330 o         1 T1Q     -0.646300
     27 C27         0.2710    2.3920   12.2000 c3        1 T1Q     -0.055400
     28 C28         1.7330    2.2300   12.5230 c3        1 T1Q     -0.087100
     29 C29         1.3270    0.0010   -2.5730 c3        1 T1Q      0.223800
     30 C30         2.3160    0.0550   -3.7360 c3        1 T1Q     -0.104400
     31 C31         1.5510   -0.0550   -5.0450 c3        1 T1Q      0.135400
     32 O32         2.5160   -0.0150   -6.0830 oh        1 T1Q     -0.599800
     33 H6         -1.8530   -0.1100    0.9820 h4        1 T1Q      0.031100
     34 H10        -1.8780   -0.1210    3.5060 ha        1 T1Q      0.146000
     35 H11         3.8440    1.0210    2.8960 h1        1 T1Q      0.063700
     36 H11A        3.9120   -0.8070    2.8860 h1        1 T1Q      0.063700
     37 H11B        3.9010    0.1000    4.4750 h1        1 T1Q      0.063700
     38 H16        -2.5400   -0.2340    9.4920 ha        1 T1Q      0.184000
     39 H17        -2.2130   -2.3060    8.1820 ha        1 T1Q      0.161000
     40 HN21       -1.8190    3.0490    8.1690 hn        1 T1Q      0.464800
     41 HN22        2.9710    0.0940   -1.2620 hn        1 T1Q      0.455800
     42 H24         0.6320    3.0100   10.1750 h1        1 T1Q      0.117700
     43 H24A        0.4020    1.2530   10.3830 h1        1 T1Q      0.117700
     44 H27        -0.3250    1.6180   12.7570 hc        1 T1Q      0.059700
     45 H27A       -0.0800    3.4040   12.5430 hc        1 T1Q      0.059700
     46 H28         2.3420    3.0030   11.9950 hc        1 T1Q      0.038367
     47 H28A        1.8970    2.3390   13.6220 hc        1 T1Q      0.038367
     48 H28B        2.0970    1.2220   12.2080 hc        1 T1Q      0.038367
     49 H29         0.5830    0.8440   -2.6790 h1        1 T1Q      0.056200
     50 H29A        0.7500   -0.9690   -2.6240 h1        1 T1Q      0.056200
     51 H30         3.0570   -0.7840   -3.6710 hc        1 T1Q      0.064700
     52 H30A        2.8940    1.0150   -3.7270 hc        1 T1Q      0.064700
     53 H31         0.8300    0.8000   -5.1550 h1        1 T1Q      0.026200
     54 H31A        0.9790   -1.0210   -5.0890 h1        1 T1Q      0.026200
     55 HO32        2.0290   -0.0770   -6.9130 ho        1 T1Q      0.405000
@<TRIPOS>BOND
     1    1    2 ar  
     2    1    6 ar  
     3    2    3 ar  
     4    2   22 1   
     5    3    4 ar  
     6    4    5 ar  
     7    4    7 1   
     8    5    6 ar  
     9    5   10 1   
    10    6   33 1   
    11    7    8 1   
    12    7   11 1   
    13    8    9 1   
    14    8   12 2   
    15    9   10 2   
    16    9   13 1   
    17   10   34 1   
    18   11   35 1   
    19   11   36 1   
    20   11   37 1   
    21   13   14 ar  
    22   13   18 ar  
    23   14   15 ar  
    24   14   20 1   
    25   15   16 ar  
    26   15   21 1   
    27   16   17 ar  
    28   16   38 1   
    29   17   18 ar  
    30   17   39 1   
    31   18   19 1   
    32   21   23 1   
    33   21   40 1   
    34   22   29 1   
    35   22   41 1   
    36   23   24 1   
    37   23   25 2   
    38   23   26 2   
    39   24   27 1   
    40   24   42 1   
    41   24   43 1   
    42   27   28 1   
    43   27   44 1   
    44   27   45 1   
    45   28   46 1   
    46   28   47 1   
    47   28   48 1   
    48   29   30 1   
    49   29   49 1   
    50   29   50 1   
    51   30   31 1   
    52   30   51 1   
    53   30   52 1   
    54   31   32 1   
    55   31   53 1   
    56   31   54 1   
    57   32   55 1   
@<TRIPOS>SUBSTRUCTURE
     1 T1Q         1 TEMP              0 ****  ****    0 ROOT
