@<TRIPOS>MOLECULE
T21
   28    30     1     0     0
SMALL
bcc


@<TRIPOS>ATOM
      1 C1          0.1420   -0.0740   -0.0510 cc        1 T21      0.031600
      2 C6          2.1670    0.0350    3.6070 cc        1 T21     -0.159300
      3 C5          1.5180   -0.0820    0.0210 cd        1 T21     -0.336800
      4 C3          1.2650    0.0040    2.4880 cc        1 T21     -0.314900
      5 C14         8.4220   -0.0370    2.6120 c3        1 T21      0.688200
      6 C11         7.2980    0.0370    4.8720 ca        1 T21     -0.078000
      7 C10         6.1510    0.0770    5.6630 ca        1 T21     -0.132000
      8 C9          4.8880    0.0680    5.0750 ca        1 T21     -0.088000
      9 C8          4.7600    0.0180    3.6770 ca        1 T21     -0.121500
     10 F3          8.8870    1.2080    2.2610 f         1 T21     -0.236300
     11 F1          8.2730   -0.6890    1.4120 f         1 T21     -0.236300
     12 F2          9.5080   -0.6460    3.1930 f         1 T21     -0.236300
     13 C12         7.1710   -0.0120    3.4820 ca        1 T21     -0.166300
     14 C13         5.9140   -0.0230    2.8790 ca        1 T21     -0.063000
     15 C7          3.4490    0.0070    3.0810 cd        1 T21      0.279200
     16 C2         -0.1790    0.0110    2.3840 c         1 T21      0.732100
     17 O2         -1.0000    0.0490    3.3170 o         1 T21     -0.625500
     18 N          -0.6740   -0.0300    1.0540 ns        1 T21     -0.450100
     19 O1          3.4040   -0.0400    1.6590 os        1 T21     -0.342800
     20 C4          2.0630   -0.0420    1.3290 cd        1 T21      0.402500
     21 H1         -0.3750   -0.1030   -1.0280 h4        1 T21      0.158000
     22 H2          1.8750    0.0720    4.6550 ha        1 T21      0.178000
     23 H3          2.1540   -0.1170   -0.8690 ha        1 T21      0.171000
     24 H5          8.2980    0.0390    5.3340 ha        1 T21      0.154000
     25 H6          6.2440    0.1160    6.7600 ha        1 T21      0.146000
     26 H7          3.9860    0.1010    5.7060 ha        1 T21      0.144000
     27 H8          5.8240   -0.0670    1.7810 ha        1 T21      0.166000
     28 H4         -1.6630   -0.0270    0.9320 hn        1 T21      0.336500
@<TRIPOS>BOND
     1    1    3 2   
     2    1   18 1   
     3    1   21 1   
     4    2    4 1   
     5    2   15 2   
     6    2   22 1   
     7    3   20 1   
     8    3   23 1   
     9    4   16 1   
    10    4   20 2   
    11    5   10 1   
    12    5   11 1   
    13    5   12 1   
    14    5   13 1   
    15    6    7 ar  
    16    6   13 ar  
    17    6   24 1   
    18    7    8 ar  
    19    7   25 1   
    20    8    9 ar  
    21    8   26 1   
    22    9   14 ar  
    23    9   15 1   
    24   13   14 ar  
    25   14   27 1   
    26   15   19 1   
    27   16   17 2   
    28   16   18 1   
    29   18   28 1   
    30   19   20 1   
@<TRIPOS>SUBSTRUCTURE
     1 T21         1 TEMP              0 ****  ****    0 ROOT
