@<TRIPOS>MOLECULE
T22
   47    49     1     0     0
SMALL
bcc


@<TRIPOS>ATOM
      1 O26        -0.2270    0.4410   -0.1500 o         1 T22     -0.598500
      2 C25         1.0110    0.3120   -0.2160 c         1 T22      0.808500
      3 N2          1.8200    0.4690    0.9240 n         1 T22     -0.469400
      4 C1          1.1450    0.5990    2.1980 c3        1 T22      0.073300
      5 N15         1.6150    0.0440   -1.4900 n         1 T22     -0.371000
      6 C16         0.7410   -0.2740   -2.6040 c3        1 T22      0.139300
      7 C17         0.7740   -1.6830   -3.1250 ca        1 T22     -0.069300
      8 C22         0.7690   -2.8200   -2.2990 ca        1 T22     -0.007000
      9 C23         0.8210   -2.7100   -0.8820 cg        1 T22      0.224800
     10 N24         0.8700   -2.6260    0.2770 n1        1 T22     -0.348800
     11 C21         0.7040   -4.1040   -2.8650 ca        1 T22     -0.086000
     12 C20         0.6420   -4.2570   -4.2470 ca        1 T22     -0.124000
     13 C19         0.6460   -3.1320   -5.0710 ca        1 T22     -0.104000
     14 C18         0.7150   -1.8580   -4.5140 ca        1 T22     -0.132000
     15 C6          3.0110    0.0020   -1.5930 cc        1 T22      0.261600
     16 C5          3.7960    0.1810   -0.4830 cd        1 T22     -0.359200
     17 C3          3.2220    0.3950    0.8500 c         1 T22      0.718700
     18 O4          3.9280    0.5380    1.8620 o         1 T22     -0.593500
     19 N7          3.5770   -0.1970   -2.9120 nh        1 T22     -0.627400
     20 C14         4.0490    1.0160   -3.5310 c3        1 T22      0.180800
     21 C11         5.5160    1.3770   -3.1420 c3        1 T22      0.057500
     22 N13         5.9510    2.6540   -3.7990 n4        1 T22     -0.832600
     23 C10         6.4290    0.2070   -3.5170 c3        1 T22     -0.100400
     24 C9          5.9590   -1.0450   -2.8030 c3        1 T22     -0.114400
     25 C8          4.4780   -1.3300   -3.0500 c3        1 T22      0.170800
     26 H1          1.9060    0.7950    2.9990 h1        1 T22      0.074367
     27 H1A         0.5860   -0.3480    2.4260 h1        1 T22      0.074367
     28 H1B         0.4140    1.4500    2.1440 h1        1 T22      0.074367
     29 H16         0.9920    0.4370   -3.4450 h1        1 T22      0.089200
     30 H16A       -0.3270   -0.0590   -2.2830 h1        1 T22      0.089200
     31 H21         0.6910   -4.9890   -2.2080 ha        1 T22      0.157000
     32 H20         0.5800   -5.2660   -4.6850 ha        1 T22      0.153000
     33 H19         0.5870   -3.2510   -6.1650 ha        1 T22      0.147000
     34 H18         0.7070   -0.9770   -5.1740 ha        1 T22      0.135000
     35 H5          4.8910    0.1390   -0.5100 ha        1 T22      0.161000
     36 H14         3.3620    1.8660   -3.2620 h1        1 T22      0.078200
     37 H14A        4.0080    0.8490   -4.6470 h1        1 T22      0.078200
     38 H11         5.5720    1.5590   -2.0240 hx        1 T22      0.125700
     39 HN13        5.9080    2.5570   -4.8180 hn        1 T22      0.460467
     40 HN1A        6.9150    2.8700   -3.5270 hn        1 T22      0.460467
     41 H10         7.4900    0.4240   -3.2240 hc        1 T22      0.069700
     42 H10A        6.4010    0.0370   -4.6270 hc        1 T22      0.069700
     43 H9          4.3490   -1.6960   -4.1110 h1        1 T22      0.090200
     44 H9A         6.1630   -0.9580   -1.7040 hc        1 T22      0.083700
     45 H8          4.1410   -2.1500   -2.3540 h1        1 T22      0.090200
     46 H8A         6.5530   -1.9210   -3.1790 hc        1 T22      0.083700
     47 H133        5.3350    3.4200   -3.5100 hn        1 T22      0.460467
@<TRIPOS>BOND
     1    1    2 2   
     2    2    3 1   
     3    2    5 1   
     4    3    4 1   
     5    3   17 1   
     6    4   26 1   
     7    4   27 1   
     8    4   28 1   
     9    5    6 1   
    10    5   15 1   
    11    6    7 1   
    12    6   29 1   
    13    6   30 1   
    14    7    8 ar  
    15    7   14 ar  
    16    8    9 1   
    17    8   11 ar  
    18    9   10 3   
    19   11   12 ar  
    20   11   31 1   
    21   12   13 ar  
    22   12   32 1   
    23   13   14 ar  
    24   13   33 1   
    25   14   34 1   
    26   15   16 2   
    27   15   19 1   
    28   16   17 1   
    29   16   35 1   
    30   17   18 2   
    31   19   20 1   
    32   19   25 1   
    33   20   21 1   
    34   20   36 1   
    35   20   37 1   
    36   21   22 1   
    37   21   23 1   
    38   21   38 1   
    39   22   39 1   
    40   22   40 1   
    41   22   47 1   
    42   23   24 1   
    43   23   41 1   
    44   23   42 1   
    45   24   25 1   
    46   24   44 1   
    47   24   46 1   
    48   25   43 1   
    49   25   45 1   
@<TRIPOS>SUBSTRUCTURE
     1 T22         1 TEMP              0 ****  ****    0 ROOT
