@<TRIPOS>MOLECULE
T22
   47    49     1     0     0
SMALL
bcc


@<TRIPOS>ATOM
      1 O26        -0.1980    0.4350   -0.2110 o         1 T22     -0.598500
      2 C25         1.0420    0.3240   -0.2740 c         1 T22      0.808500
      3 N2          1.8480    0.5150    0.8630 n         1 T22     -0.469400
      4 C1          1.1710    0.6600    2.1330 c3        1 T22      0.073300
      5 N15         1.6500    0.0400   -1.5430 n         1 T22     -0.371000
      6 C16         0.7810   -0.3130   -2.6500 c3        1 T22      0.139300
      7 C17         0.8360   -1.7320   -3.1430 ca        1 T22     -0.069300
      8 C22         0.8480   -2.8530   -2.2950 ca        1 T22     -0.007000
      9 C23         0.8990   -2.7140   -0.8800 cg        1 T22      0.224800
     10 N24         0.9450   -2.6060    0.2770 n1        1 T22     -0.348800
     11 C21         0.8030   -4.1480   -2.8350 ca        1 T22     -0.086000
     12 C20         0.7440   -4.3300   -4.2140 ca        1 T22     -0.124000
     13 C19         0.7310   -3.2210   -5.0610 ca        1 T22     -0.104000
     14 C18         0.7800   -1.9350   -4.5280 ca        1 T22     -0.132000
     15 C6          3.0470    0.0170   -1.6450 cc        1 T22      0.261600
     16 C5          3.8280    0.2300   -0.5390 cd        1 T22     -0.359200
     17 C3          3.2500    0.4610    0.7900 c         1 T22      0.718700
     18 O4          3.9540    0.6340    1.7990 o         1 T22     -0.593500
     19 N7          3.6150   -0.1990   -2.9600 nh        1 T22     -0.627400
     20 C14         4.0670    1.0080   -3.6040 c3        1 T22      0.180800
     21 C11         5.5290    1.4010   -3.2220 c3        1 T22      0.057500
     22 N13         5.9430    2.6710   -3.9040 nz        1 T22     -0.832600
     23 C10         6.4610    0.2390   -3.5740 c3        1 T22     -0.100400
     24 C9          6.0110   -1.0060   -2.8350 c3        1 T22     -0.114400
     25 C8          4.5340   -1.3200   -3.0760 c3        1 T22      0.170800
     26 H1          1.9280    0.8830    2.9300 h1        1 T22      0.074367
     27 H1A         0.4270    1.4980    2.0630 h1        1 T22      0.074367
     28 H1B         0.6260   -0.2910    2.3810 h1        1 T22      0.074367
     29 H16        -0.2900   -0.1090   -2.3330 h1        1 T22      0.089200
     30 H16A        1.0210    0.3850   -3.5050 h1        1 T22      0.089200
     31 H21         0.8040   -5.0200   -2.1610 ha        1 T22      0.157000
     32 H20         0.6990   -5.3480   -4.6320 ha        1 T22      0.153000
     33 H19         0.6740   -3.3620   -6.1510 ha        1 T22      0.147000
     34 H18         0.7580   -1.0680   -5.2060 ha        1 T22      0.135000
     35 H5          4.9240    0.2050   -0.5650 ha        1 T22      0.161000
     36 H14         3.3670    1.8530   -3.3510 h1        1 T22      0.078200
     37 H14A        4.0290    0.8190   -4.7160 h1        1 T22      0.078200
     38 H11         5.5820    1.6060   -2.1080 hx        1 T22      0.125700
     39 HN13        5.9010    2.5540   -4.9210 hn        1 T22      0.460467
     40 HN1A        5.3160    3.4330   -3.6290 hn        1 T22      0.460467
     41 H10         6.4350    0.0470   -4.6800 hc        1 T22      0.069700
     42 H10A        7.5180    0.4790   -3.2860 hc        1 T22      0.069700
     43 H9          6.2140   -0.8940   -1.7380 hc        1 T22      0.083700
     44 H9A         6.6190   -1.8800   -3.1940 hc        1 T22      0.083700
     45 H8          4.4110   -1.7090   -4.1290 h1        1 T22      0.090200
     46 H8A         4.2110   -2.1310   -2.3640 h1        1 T22      0.090200
     47 H133        6.9040    2.9080   -3.6370 hn        1 T22      0.460467
@<TRIPOS>BOND
     1    1    2 2   
     2    2    3 1   
     3    2    5 1   
     4    3    4 1   
     5    3   17 1   
     6    4   26 1   
     7    4   27 1   
     8    4   28 1   
     9    5    6 1   
    10    5   15 1   
    11    6    7 1   
    12    6   29 1   
    13    6   30 1   
    14    7    8 ar  
    15    7   14 ar  
    16    8    9 1   
    17    8   11 ar  
    18    9   10 3   
    19   11   12 ar  
    20   11   31 1   
    21   12   13 ar  
    22   12   32 1   
    23   13   14 ar  
    24   13   33 1   
    25   14   34 1   
    26   15   16 2   
    27   15   19 1   
    28   16   17 1   
    29   16   35 1   
    30   17   18 2   
    31   19   20 1   
    32   19   25 1   
    33   20   21 1   
    34   20   36 1   
    35   20   37 1   
    36   21   22 1   
    37   21   23 1   
    38   21   38 1   
    39   22   39 1   
    40   22   40 1   
    41   22   47 1   
    42   23   24 1   
    43   23   41 1   
    44   23   42 1   
    45   24   25 1   
    46   24   43 1   
    47   24   44 1   
    48   25   45 1   
    49   25   46 1   
@<TRIPOS>SUBSTRUCTURE
     1 T22         1 TEMP              0 ****  ****    0 ROOT
