@<TRIPOS>MOLECULE
T22
   46    44     1     0     0
SMALL
bcc


@<TRIPOS>ATOM
      1 O26        -2.2520   -0.5280    1.8910 o         1 T22     -0.369000
      2 C25        -1.1070   -0.3030    1.9530 c1        1 T22      0.392000
      3 N2         -0.4410   -0.2120    3.2720 n2        1 T22     -0.314000
      4 C1         -1.2460   -0.0420    4.4850 c3        1 T22     -0.076000
      5 N15        -0.3200   -0.1990    0.7350 n3        1 T22     -0.257000
      6 C16        -0.9810    0.0270   -0.5380 c3        1 T22      0.017000
      7 C17        -2.4070    0.6170   -0.2880 c2        1 T22     -0.050000
      8 C22        -3.5040   -0.1900   -0.3500 c2        1 T22     -0.009000
      9 C23        -3.3600   -1.6420   -0.7560 c1        1 T22     -0.086000
     10 N24        -3.2550   -2.7860   -1.0730 n1        1 T22     -0.056000
     11 C21        -4.7940    0.3500   -0.1080 c1        1 T22     -0.089000
     12 C20        -4.9430    1.7200    0.1980 c1        1 T22     -0.116500
     13 C19        -3.8310    2.5410    0.2620 c1        1 T22     -0.116500
     14 C18        -2.5600    2.0150    0.0240 c1        1 T22     -0.122000
     15 C6          1.1160   -0.2560    0.7980 c2        1 T22      0.204000
     16 C5          1.8000   -0.2630    2.1330 c1        1 T22     -0.339000
     17 C3          0.9980   -0.2680    3.3580 c1        1 T22      0.361000
     18 O4          1.5750   -0.2730    4.5020 o         1 T22     -0.338000
     19 N7          1.8770   -0.4240   -0.3980 n3        1 T22     -0.245000
     20 C14         2.7520    0.6570   -0.8590 c3        1 T22     -0.062000
     21 C11         3.0710    0.5650   -2.3640 c3        1 T22     -0.024000
     22 N13         1.8570    0.8600   -3.1300 n3        1 T22     -0.335000
     23 C10         3.5760   -0.7760   -2.7540 c3        1 T22     -0.200000
     24 C9          2.6850   -1.8740   -2.2860 c3        1 T22     -0.162000
     25 C8          2.3730   -1.7690   -0.7800 c3        1 T22     -0.064000
     26 H1         -0.8930   -0.5960    5.1820 h1        1 T22      0.102000
     27 H1A        -2.2410   -0.3180    4.2880 h1        1 T22      0.102000
     28 H1B        -1.2190    0.8250    4.7470 h1        1 T22      0.102000
     29 H16        -0.4440    0.6800   -1.0850 h1        1 T22      0.130500
     30 H16A       -1.0590   -0.8600   -1.0450 h1        1 T22      0.130500
     31 H21        -5.5660   -0.2160   -0.1520 ha        1 T22      0.145000
     32 H20        -5.8190    2.0840    0.3630 ha        1 T22      0.141500
     33 H19        -3.9380    3.5030    0.4750 ha        1 T22      0.141500
     34 H18        -1.7200    2.6360    0.0710 ha        1 T22      0.153000
     35 H5          2.8060   -0.3030    2.1860 ha        1 T22      0.179000
     36 H14         3.6060    0.6180   -0.3460 h1        1 T22      0.093000
     37 H14A        2.2940    1.5600   -0.6690 h1        1 T22      0.093000
     38 H11         3.7350    1.2170   -2.5770 h1        1 T22      0.104000
     39 HN13        1.9190    0.5150   -3.9000 hn        1 T22      0.149500
     40 HN1A        1.7530    1.8450   -3.2180 hn        1 T22      0.149500
     41 H10         4.4980   -0.9070   -2.3520 hc        1 T22      0.088500
     42 H10A        3.6530   -0.8200   -3.8260 hc        1 T22      0.088500
     43 H9          3.1590   -2.8100   -2.4750 hc        1 T22      0.097000
     44 H9A         1.8880   -1.8380   -2.7620 hc        1 T22      0.097000
     45 H8          1.7270   -2.4020   -0.5610 h1        1 T22      0.083500
     46 H8A         3.1840   -1.9600   -0.2720 h1        1 T22      0.083500
@<TRIPOS>BOND
     1    1    2 1   
     2    2    5 1   
     3    3    4 1   
     4    3   17 1   
     5    4   26 1   
     6    4   27 1   
     7    4   28 1   
     8    5    6 1   
     9    5   15 1   
    10    6    7 1   
    11    6   29 1   
    12    6   30 1   
    13    7    8 1   
    14    7   14 1   
    15    8    9 1   
    16    8   11 1   
    17    9   10 1   
    18   11   31 1   
    19   12   13 1   
    20   12   32 1   
    21   13   33 1   
    22   14   34 1   
    23   15   16 1   
    24   15   19 1   
    25   16   35 1   
    26   17   18 1   
    27   19   20 1   
    28   19   25 1   
    29   20   21 1   
    30   20   36 1   
    31   20   37 1   
    32   21   22 1   
    33   21   23 1   
    34   21   38 1   
    35   22   39 1   
    36   22   40 1   
    37   23   24 1   
    38   23   41 1   
    39   23   42 1   
    40   24   25 1   
    41   24   43 1   
    42   24   44 1   
    43   25   45 1   
    44   25   46 1   
@<TRIPOS>SUBSTRUCTURE
     1 T22         1 TEMP              0 ****  ****    0 ROOT
