@<TRIPOS>MOLECULE
T22
   46    48     1     0     0
SMALL
bcc


@<TRIPOS>ATOM
      1 O26        -2.4720   -1.2970    1.7980 o         1 T22     -0.634500
      2 C25        -1.5800   -1.4600    0.9360 c         1 T22      0.811500
      3 N2         -1.5450   -2.6280    0.1530 n         1 T22     -0.479400
      4 C1         -2.6420   -3.5530    0.3030 c3        1 T22      0.078300
      5 N15        -0.5780   -0.4590    0.7650 n         1 T22     -0.378000
      6 C16        -0.7790    0.8190    1.4190 c3        1 T22      0.139300
      7 C17        -0.9630    2.0060    0.5140 ca        1 T22     -0.053300
      8 C22        -1.9720    2.0670   -0.4620 ca        1 T22     -0.002000
      9 C23        -2.8410    0.9670   -0.7000 cg        1 T22      0.227800
     10 N24        -3.5540    0.0710   -0.9080 n1        1 T22     -0.352800
     11 C21        -2.1420    3.2300   -1.2300 ca        1 T22     -0.093000
     12 C20        -1.3150    4.3300   -1.0240 ca        1 T22     -0.132000
     13 C19        -0.3110    4.2740   -0.0570 ca        1 T22     -0.111000
     14 C18        -0.1350    3.1200    0.7020 ca        1 T22     -0.118000
     15 C6          0.5160   -0.7040   -0.0890 cc        1 T22      0.294600
     16 C5          0.5590   -1.8660   -0.8200 cd        1 T22     -0.365200
     17 C3         -0.5060   -2.8630   -0.7710 c         1 T22      0.725700
     18 O4         -0.5170   -3.8890   -1.4750 o         1 T22     -0.618500
     19 N7          1.5280    0.3110   -0.1750 nh        1 T22     -0.650400
     20 C14         2.4770    0.3310    0.9240 c3        1 T22      0.187800
     21 C11         3.7510   -0.5320    0.7030 c3        1 T22      0.133500
     22 N13         4.6150   -0.4740    1.8630 n3        1 T22     -0.899800
     23 C10         4.4020   -0.0980   -0.6200 c3        1 T22     -0.118400
     24 C9          3.4250   -0.2450   -1.7630 c3        1 T22     -0.107400
     25 C8          2.1210    0.5020   -1.4870 c3        1 T22      0.183800
     26 H1         -3.6110   -3.0290    0.0840 h1        1 T22      0.064367
     27 H1A        -2.5020   -4.4100   -0.4070 h1        1 T22      0.064367
     28 H1B        -2.6700   -3.9330    1.3590 h1        1 T22      0.064367
     29 H16        -1.7000    0.7410    2.0760 h1        1 T22      0.086200
     30 H16A        0.1050    1.0060    2.0970 h1        1 T22      0.086200
     31 H21        -2.9360    3.2690   -1.9920 ha        1 T22      0.147000
     32 H20        -1.4540    5.2420   -1.6250 ha        1 T22      0.141000
     33 H19         0.3450    5.1430    0.1060 ha        1 T22      0.138000
     34 H18         0.6680    3.0790    1.4540 ha        1 T22      0.138000
     35 H5          1.4010   -2.1150   -1.4800 ha        1 T22      0.175000
     36 H14         2.7820    1.4090    1.0510 h1        1 T22      0.063700
     37 H14A        1.9720   -0.0100    1.8710 h1        1 T22      0.063700
     38 H11         3.4280   -1.6120    0.5930 h1        1 T22      0.070700
     39 HN13        5.3970   -1.0870    1.7400 hn        1 T22      0.350800
     40 HN1A        4.9500    0.4570    2.0130 hn        1 T22      0.350800
     41 H10         4.7350    0.9710   -0.5430 hc        1 T22      0.044700
     42 H10A        5.3110   -0.7220   -0.8210 hc        1 T22      0.044700
     43 H9          3.8740    0.1700   -2.7030 hc        1 T22      0.053700
     44 H9A         3.2210   -1.3330   -1.9450 hc        1 T22      0.053700
     45 H8          1.3670    0.2360   -2.2800 h1        1 T22      0.063700
     46 H8A         2.3260    1.6110   -1.5580 h1        1 T22      0.063700
@<TRIPOS>BOND
     1    1    2 2   
     2    2    3 1   
     3    2    5 1   
     4    3    4 1   
     5    3   17 1   
     6    4   26 1   
     7    4   27 1   
     8    4   28 1   
     9    5    6 1   
    10    5   15 1   
    11    6    7 1   
    12    6   29 1   
    13    6   30 1   
    14    7    8 ar  
    15    7   14 ar  
    16    8    9 1   
    17    8   11 ar  
    18    9   10 3   
    19   11   12 ar  
    20   11   31 1   
    21   12   13 ar  
    22   12   32 1   
    23   13   14 ar  
    24   13   33 1   
    25   14   34 1   
    26   15   16 2   
    27   15   19 1   
    28   16   17 1   
    29   16   35 1   
    30   17   18 2   
    31   19   20 1   
    32   19   25 1   
    33   20   21 1   
    34   20   36 1   
    35   20   37 1   
    36   21   22 1   
    37   21   23 1   
    38   21   38 1   
    39   22   39 1   
    40   22   40 1   
    41   23   24 1   
    42   23   41 1   
    43   23   42 1   
    44   24   25 1   
    45   24   43 1   
    46   24   44 1   
    47   25   45 1   
    48   25   46 1   
@<TRIPOS>SUBSTRUCTURE
     1 T22         1 TEMP              0 ****  ****    0 ROOT
