@<TRIPOS>MOLECULE
T22
   47    49     1     0     0
SMALL
bcc


@<TRIPOS>ATOM
      1 O26        -0.2470    0.4640   -0.1100 o         1 T22     -0.598500
      2 C25         0.9920    0.3530   -0.1830 c         1 T22      0.808500
      3 N2          1.8060    0.5370    0.9490 n         1 T22     -0.469400
      4 C1          1.1380    0.6720    2.2260 c3        1 T22      0.073300
      5 N15         1.5910    0.0790   -1.4580 n         1 T22     -0.371000
      6 C16         0.7140   -0.2660   -2.5610 c3        1 T22      0.139300
      7 C17         0.7650   -1.6810   -3.0650 ca        1 T22     -0.069300
      8 C22         0.7830   -2.8080   -2.2250 ca        1 T22     -0.007000
      9 C23         0.8450   -2.6800   -0.8110 cg        1 T22      0.224800
     10 N24         0.9000   -2.5810    0.3470 n1        1 T22     -0.348800
     11 C21         0.7340   -4.0990   -2.7750 ca        1 T22     -0.086000
     12 C20         0.6650   -4.2710   -4.1540 ca        1 T22     -0.124000
     13 C19         0.6460   -3.1560   -4.9930 ca        1 T22     -0.104000
     14 C18         0.6990   -1.8740   -4.4520 ca        1 T22     -0.132000
     15 C6          2.9870    0.0560   -1.5710 cc        1 T22      0.261600
     16 C5          3.7760    0.2620   -0.4690 cd        1 T22     -0.359200
     17 C3          3.2080    0.4830    0.8660 c         1 T22      0.718700
     18 O4          3.9190    0.6490    1.8710 o         1 T22     -0.593500
     19 N7          3.5460   -0.1500   -2.8910 nh        1 T22     -0.627400
     20 C14         3.9950    1.0620   -3.5280 c3        1 T22      0.180800
     21 C11         5.4600    1.4490   -3.1540 c3        1 T22      0.057500
     22 N13         5.8710    2.7240   -3.8300 n4        1 T22     -0.832600
     23 C10         6.3880    0.2890   -3.5210 c3        1 T22     -0.100400
     24 C9          5.9410   -0.9620   -2.7890 c3        1 T22     -0.114400
     25 C8          4.4620   -1.2710   -3.0220 c3        1 T22      0.170800
     26 H1          1.9020    0.8910    3.0180 h1        1 T22      0.074367
     27 H1A         0.3930    1.5100    2.1670 h1        1 T22      0.074367
     28 H1B         0.5960   -0.2810    2.4710 h1        1 T22      0.074367
     29 H16         0.9480    0.4380   -3.4130 h1        1 T22      0.089200
     30 H16A       -0.3550   -0.0640   -2.2350 h1        1 T22      0.089200
     31 H21         0.7400   -4.9760   -2.1070 ha        1 T22      0.157000
     32 H20         0.6160   -5.2860   -4.5800 ha        1 T22      0.153000
     33 H19         0.5800   -3.2890   -6.0840 ha        1 T22      0.147000
     34 H18         0.6710   -1.0020   -5.1220 ha        1 T22      0.135000
     35 H5          4.8720    0.2360   -0.5030 ha        1 T22      0.161000
     36 H14         3.2980    1.9050   -3.2640 h1        1 T22      0.078200
     37 H14A        3.9490    0.8810   -4.6420 h1        1 T22      0.078200
     38 H11         5.5210    1.6460   -2.0390 hx        1 T22      0.125700
     39 HN13        5.2470    3.4850   -3.5450 hn        1 T22      0.460467
     40 HN1A        5.8220    2.6140   -4.8470 hn        1 T22      0.460467
     41 H10         6.3540    0.1050   -4.6280 hc        1 T22      0.069700
     42 H10A        7.4480    0.5250   -3.2390 hc        1 T22      0.069700
     43 H9          6.5450   -1.8330   -3.1580 hc        1 T22      0.083700
     44 H9A         6.1510   -0.8580   -1.6920 hc        1 T22      0.083700
     45 H8          4.3310   -1.6520   -4.0770 h1        1 T22      0.090200
     46 H8A         4.1430   -2.0880   -2.3140 h1        1 T22      0.090200
     47 H133        6.8340    2.9580   -3.5670 hn        1 T22      0.460467
@<TRIPOS>BOND
     1    1    2 2   
     2    2    3 1   
     3    2    5 1   
     4    3    4 1   
     5    3   17 1   
     6    4   26 1   
     7    4   27 1   
     8    4   28 1   
     9    5    6 1   
    10    5   15 1   
    11    6    7 1   
    12    6   29 1   
    13    6   30 1   
    14    7    8 ar  
    15    7   14 ar  
    16    8    9 1   
    17    8   11 ar  
    18    9   10 3   
    19   11   12 ar  
    20   11   31 1   
    21   12   13 ar  
    22   12   32 1   
    23   13   14 ar  
    24   13   33 1   
    25   14   34 1   
    26   15   16 2   
    27   15   19 1   
    28   16   17 1   
    29   16   35 1   
    30   17   18 2   
    31   19   20 1   
    32   19   25 1   
    33   20   21 1   
    34   20   36 1   
    35   20   37 1   
    36   21   22 1   
    37   21   23 1   
    38   21   38 1   
    39   22   39 1   
    40   22   40 1   
    41   22   47 1   
    42   23   24 1   
    43   23   41 1   
    44   23   42 1   
    45   24   25 1   
    46   24   43 1   
    47   24   44 1   
    48   25   45 1   
    49   25   46 1   
@<TRIPOS>SUBSTRUCTURE
     1 T22         1 TEMP              0 ****  ****    0 ROOT
