@<TRIPOS>MOLECULE
T23
   40    40     1     0     0
SMALL
bcc


@<TRIPOS>ATOM
      1 P           0.3250    5.2740    1.2440 p4        1 T23      1.712200
      2 OP1         1.7670    5.1250    1.6680 o         1 T23     -0.842000
      3 OP2        -0.5230    5.5950    2.4510 os        1 T23     -0.820000
      4 OP3         0.2100    6.3910    0.2360 o         1 T23     -0.890800
      5 O5'        -0.1750    3.9230    0.5940 os        1 T23     -0.580200
      6 N1          0.4370   -0.7170   -1.1510 n         1 T23     -0.324000
      7 C6          0.3090   -1.7280   -2.1400 cc        1 T23     -0.150400
      8 C2          1.7640   -0.3040   -0.6950 c         1 T23      0.757500
      9 O2          1.8720    0.5240    0.1880 o         1 T23     -0.738500
     10 N3          2.9620   -0.8850   -1.3010 n         1 T23     -0.596500
     11 C4          2.8400   -1.9360   -2.2440 c         1 T23      0.712700
     12 O4          3.8360   -2.4460   -2.7170 o         1 T23     -0.758500
     13 C5          1.5110   -2.3560   -2.7060 cd        1 T23     -0.437400
     14 C5M         1.3820   -3.3470   -3.8420 c3        1 T23      0.045100
     15 C2'        -0.9250   -0.6890    0.7740 c3        1 T23      0.107100
     16 O2'        -2.3960   -1.0120    0.9190 os        1 T23     -0.429600
     17 C2M        -2.6640   -2.3850    1.0950 c3        1 T23      0.122700
     18 C5'         0.0690    2.7170    1.2800 c3        1 T23      0.189400
     19 C4'        -0.7890    1.6100    0.6800 c3        1 T23      0.122100
     20 O4'        -0.4000    1.3480   -0.4940 os        1 T23     -0.426600
     21 C1'        -0.6310   -0.1450   -0.6590 c3        1 T23      0.306500
     22 C3'        -0.6110    0.2400    1.5380 c3        1 T23     -0.082700
     23 C3M        -1.5850    0.2570    2.8080 c3        1 T23     -0.085100
     24 H6         -0.5770   -2.0040   -2.4440 h4        1 T23      0.220000
     25 H3          3.7870   -0.5820   -1.0600 hn        1 T23      0.301500
     26 H5A1        1.8470   -3.0000   -4.6320 hc        1 T23     -0.000633
     27 H5A2        0.4350   -3.4810   -4.0530 hc        1 T23     -0.000633
     28 H5A3        1.7820   -4.2020   -3.5770 hc        1 T23     -0.000633
     29 H2'        -0.3800   -1.4810    0.9570 h1        1 T23      0.107700
     30 H2M1       -3.4550   -2.4940    1.6660 h1        1 T23      0.024700
     31 H2M2       -2.8320   -2.8000    0.2220 h1        1 T23      0.024700
     32 H2M3       -1.8920   -2.8180    1.5200 h1        1 T23      0.024700
     33 H5'        -0.1570    2.8290    2.2260 h1        1 T23      0.040700
     34 H5''        1.0150    2.4790    1.1960 h1        1 T23      0.040700
     35 H4'        -1.7280    1.8800    0.6700 h1        1 T23      0.058700
     36 H1'        -1.3980   -0.3040   -1.2430 h2        1 T23      0.066700
     37 H3'         0.3190    0.1400    1.8270 hc        1 T23      0.061700
     38 H3M1       -2.4850    0.5220    2.5250 hc        1 T23      0.038700
     39 H3M2       -1.2490    0.8980    3.4690 hc        1 T23      0.038700
     40 H3M3       -1.6180   -0.6370    3.2070 hc        1 T23      0.038700
@<TRIPOS>BOND
     1    1    2 1   
     2    1    4 2   
     3    1    5 1   
     4    5   18 1   
     5    6    7 1   
     6    6    8 1   
     7    6   21 1   
     8    7   13 2   
     9    7   24 1   
    10    8    9 2   
    11    8   10 1   
    12   10   11 1   
    13   10   25 1   
    14   11   12 2   
    15   11   13 1   
    16   13   14 1   
    17   14   26 1   
    18   14   27 1   
    19   14   28 1   
    20   15   16 1   
    21   15   21 1   
    22   15   22 1   
    23   15   29 1   
    24   16   17 1   
    25   17   30 1   
    26   17   31 1   
    27   17   32 1   
    28   18   19 1   
    29   18   33 1   
    30   18   34 1   
    31   19   20 1   
    32   19   22 1   
    33   19   35 1   
    34   20   21 1   
    35   21   36 1   
    36   22   23 1   
    37   22   37 1   
    38   23   38 1   
    39   23   39 1   
    40   23   40 1   
@<TRIPOS>SUBSTRUCTURE
     1 T23         1 TEMP              0 ****  ****    0 ROOT
