@<TRIPOS>MOLECULE
T23
   40    41     1     0     0
SMALL
bcc


@<TRIPOS>ATOM
      1 P           0.3340    2.9700   -3.6610 p5        1 T23      1.429800
      2 OP1        -1.1280    2.7460   -3.5990 o         1 T23     -0.842000
      3 OP2         1.0290    4.0070   -4.4450 o         1 T23     -0.842000
      4 OP3         0.8740    1.4790   -4.0790 oh        1 T23     -0.787400
      5 O5'         0.9120    3.0270   -2.1190 os        1 T23     -0.580200
      6 N1          0.5890    0.0460    2.7900 n         1 T23     -0.321400
      7 C6         -0.5550   -0.7050    2.6760 c1        1 T23     -0.089900
      8 C2          0.9450    0.6970    4.0020 c         1 T23      0.721100
      9 O2          2.0210    1.3320    4.1720 o         1 T23     -0.702100
     10 N3          0.0680    0.5660    5.0900 n         1 T23     -0.596500
     11 C4         -1.1290   -0.1910    5.0260 c         1 T23      0.676300
     12 O4         -1.8210   -0.2150    6.0770 o         1 T23     -0.722100
     13 C5         -1.3980   -0.8500    3.7680 ce        1 T23     -0.500500
     14 C5M        -2.6120   -1.6780    3.6730 c3        1 T23      0.045100
     15 C2'         1.3620   -0.8630    0.5610 c3        1 T23      0.107100
     16 O2'         2.5640   -1.6380    0.5770 os        1 T23     -0.429600
     17 C2M         2.6020   -2.5690    1.6440 c3        1 T23      0.122700
     18 C5'         0.2790    2.2420   -1.1540 c3        1 T23      0.189400
     19 C4'         1.3210    1.3650   -0.4410 c3        1 T23      0.122100
     20 O4'         1.1170    1.5040    0.9750 os        1 T23     -0.426600
     21 C1'         1.4460    0.2630    1.6400 c3        1 T23      0.306500
     22 C3'         1.2450   -0.1320   -0.7840 c3        1 T23     -0.082700
     23 C3M         2.2910   -0.5290   -1.7940 c3        1 T23     -0.085100
     24 H6          0.1900    0.8250   -3.9890 ho        1 T23      0.421000
     25 H3          0.3030    1.0460    5.9260 hn        1 T23      0.301500
     26 H5A1       -2.5140   -2.6070    4.2920 hc        1 T23     -0.000633
     27 H5A2       -3.5050   -1.1190    4.0510 hc        1 T23     -0.000633
     28 H5A3       -2.7980   -1.9790    2.6130 hc        1 T23     -0.000633
     29 H2'         0.4710   -1.5280    0.7380 h1        1 T23      0.107700
     30 H2M1        3.5800   -3.0970    1.5200 h1        1 T23      0.024700
     31 H2M2        2.5620   -2.0450    2.6300 h1        1 T23      0.024700
     32 H2M3        1.7540   -3.2940    1.5670 h1        1 T23      0.024700
     33 H5'        -0.5270    1.6180   -1.6280 h1        1 T23      0.040700
     34 H5''       -0.1870    2.9220   -0.3840 h1        1 T23      0.040700
     35 H4'         2.3500    1.7640   -0.6650 h1        1 T23      0.058700
     36 H1'         2.5110    0.3740    2.0090 h2        1 T23      0.066700
     37 H3'         0.2280   -0.3630   -1.2060 hc        1 T23      0.061700
     38 H3M1        2.1490    0.0540   -2.7390 hc        1 T23      0.038700
     39 H3M2        3.3160   -0.3300   -1.3980 hc        1 T23      0.038700
     40 H3M3        2.2120   -1.6200   -2.0180 hc        1 T23      0.038700
@<TRIPOS>BOND
     1    1    2 1   
     2    1    3 1   
     3    1    4 1   
     4    1    5 1   
     5    4   24 1   
     6    5   18 1   
     7    6    7 2   
     8    6    8 1   
     9    6   21 1   
    10    7   13 2   
    11    8    9 2   
    12    8   10 1   
    13   10   11 1   
    14   10   25 1   
    15   11   12 2   
    16   11   13 1   
    17   13   14 1   
    18   14   26 1   
    19   14   27 1   
    20   14   28 1   
    21   15   16 1   
    22   15   21 1   
    23   15   22 1   
    24   15   29 1   
    25   16   17 1   
    26   17   30 1   
    27   17   31 1   
    28   17   32 1   
    29   18   19 1   
    30   18   33 1   
    31   18   34 1   
    32   19   20 1   
    33   19   22 1   
    34   19   35 1   
    35   20   21 1   
    36   21   36 1   
    37   22   23 1   
    38   22   37 1   
    39   23   38 1   
    40   23   39 1   
    41   23   40 1   
@<TRIPOS>SUBSTRUCTURE
     1 T23         1 TEMP              0 ****  ****    0 ROOT
