@<TRIPOS>MOLECULE
T24
   50    49     1     0     0
SMALL
bcc


@<TRIPOS>ATOM
      1 CAR         0.8060   -3.6010    2.3790 c3        1 T24     -0.090100
      2 CAQ         1.3970   -2.8660    1.2020 c3        1 T24     -0.051200
      3 CAP         1.6580   -1.4370    1.4980 c2        1 T24     -0.176200
      4 CAO         2.2820   -0.6050    0.6580 c2        1 T24     -0.167200
      5 CAN         2.8030   -1.0120   -0.6660 c3        1 T24     -0.051200
      6 CAM         3.1920    0.1910   -1.5300 c3        1 T24      0.183300
      7 OAS         3.3170   -0.3010   -2.8620 oh        1 T24     -0.609800
      8 CAL         4.4140    0.8750   -1.0120 c2        1 T24     -0.226200
      9 CAK         5.6910    0.5290   -1.2260 ce        1 T24     -0.098000
     10 CAJ         6.1440   -0.6070   -1.9990 ce        1 T24     -0.189000
     11 CAI         7.4210   -0.8230   -2.3480 c2        1 T24     -0.120200
     12 CAH         8.5570    0.0670   -2.0150 c3        1 T24     -0.062200
     13 CAG         9.8640   -0.4210   -2.6070 c3        1 T24     -0.078400
     14 CAF        11.0050    0.5080   -2.2530 c3        1 T24     -0.079400
     15 CAE        12.3130    0.0250   -2.8430 c3        1 T24     -0.079400
     16 CAD        13.4550    0.9550   -2.4920 c3        1 T24     -0.078400
     17 CAC        14.7660    0.4670   -3.0730 c3        1 T24     -0.065400
     18 CAB        15.9080    1.3970   -2.7440 c3        1 T24     -0.194400
     19 CAA        17.2590    0.7950   -3.1710 c         1 T24      0.907600
     20 OAU        18.0740    1.5510   -3.7740 o         1 T24     -0.852800
     21 OAT        17.5000   -0.4140   -2.8850 o         1 T24     -0.852800
     22 HAR1        0.6280   -4.6710    2.1140 hc        1 T24      0.032367
     23 HAR2        1.4980   -3.5640    3.2550 hc        1 T24      0.032367
     24 HAR3       -0.1670   -3.1450    2.6810 hc        1 T24      0.032367
     25 HAQ1        2.3570   -3.3630    0.8910 hc        1 T24      0.048700
     26 HAQ2        0.6980   -2.9380    0.3230 hc        1 T24      0.048700
     27 HAP         1.3020   -1.0750    2.4770 ha        1 T24      0.119000
     28 HAO         2.4490    0.4490    0.9380 ha        1 T24      0.120000
     29 HAN1        3.7010   -1.6760   -0.5360 hc        1 T24      0.063700
     30 HAN2        2.0310   -1.6100   -1.2230 hc        1 T24      0.063700
     31 HAM         2.3380    0.9330   -1.5360 h1        1 T24      0.037700
     32 HOAS        3.9800    0.2370   -3.3090 ho        1 T24      0.411000
     33 HAL         4.1910    1.7480   -0.3760 ha        1 T24      0.123000
     34 HAK         6.4920    1.1470   -0.7770 ha        1 T24      0.125000
     35 HAJ         5.3630   -1.3320   -2.2930 ha        1 T24      0.137000
     36 HAI         7.6780   -1.7260   -2.9300 ha        1 T24      0.126000
     37 HAH1        8.3450    1.1060   -2.3890 hc        1 T24      0.051700
     38 HAH2        8.6600    0.1380   -0.8970 hc        1 T24      0.051700
     39 HAG1       10.0880   -1.4530   -2.2280 hc        1 T24      0.041200
     40 HAG2        9.7690   -0.4920   -3.7230 hc        1 T24      0.041200
     41 HAF1       10.7810    1.5400   -2.6320 hc        1 T24      0.035200
     42 HAF2       11.1000    0.5790   -1.1380 hc        1 T24      0.035200
     43 HAE1       12.2190   -0.0480   -3.9580 hc        1 T24      0.037700
     44 HAE2       12.5400   -1.0050   -2.4620 hc        1 T24      0.037700
     45 HAD1       13.5460    1.0330   -1.3760 hc        1 T24      0.026700
     46 HAD2       13.2320    1.9850   -2.8770 hc        1 T24      0.026700
     47 HAC1       14.6690    0.3740   -4.1860 hc        1 T24      0.044200
     48 HAC2       15.0080   -0.5550   -2.6760 hc        1 T24      0.044200
     49 HAB1       15.9480    1.5770   -1.6400 hc        1 T24      0.018700
     50 HAB2       15.7650    2.3840   -3.2490 hc        1 T24      0.018700
@<TRIPOS>BOND
     1    1    2 1   
     2    1   22 1   
     3    1   23 1   
     4    1   24 1   
     5    2    3 1   
     6    2   25 1   
     7    2   26 1   
     8    3    4 2   
     9    3   27 1   
    10    4    5 1   
    11    4   28 1   
    12    5    6 1   
    13    5   29 1   
    14    5   30 1   
    15    6    7 1   
    16    6    8 1   
    17    6   31 1   
    18    7   32 1   
    19    8    9 2   
    20    8   33 1   
    21    9   10 1   
    22    9   34 1   
    23   10   11 2   
    24   10   35 1   
    25   11   12 1   
    26   11   36 1   
    27   12   13 1   
    28   12   37 1   
    29   12   38 1   
    30   13   14 1   
    31   13   39 1   
    32   13   40 1   
    33   14   15 1   
    34   14   41 1   
    35   14   42 1   
    36   15   16 1   
    37   15   43 1   
    38   15   44 1   
    39   16   17 1   
    40   16   45 1   
    41   16   46 1   
    42   17   18 1   
    43   17   47 1   
    44   17   48 1   
    45   18   19 1   
    46   18   49 1   
    47   18   50 1   
    48   19   20 1   
    49   19   21 1   
@<TRIPOS>SUBSTRUCTURE
     1 T24         1 TEMP              0 ****  ****    0 ROOT
