@<TRIPOS>MOLECULE
T24
   50    49     1     0     0
SMALL
bcc


@<TRIPOS>ATOM
      1 CAR         0.7870   -3.6830    2.3090 c3        1 T24     -0.090100
      2 CAQ         1.3830   -2.9190    1.1540 c3        1 T24     -0.051200
      3 CAP         1.6580   -1.5020    1.4930 c2        1 T24     -0.176200
      4 CAO         2.2900   -0.6510    0.6780 c2        1 T24     -0.167200
      5 CAN         2.8070   -1.0230   -0.6580 c3        1 T24     -0.051200
      6 CAM         3.2000    0.2030   -1.4870 c3        1 T24      0.183300
      7 OAS         3.3190   -0.2520   -2.8330 oh        1 T24     -0.609800
      8 CAL         4.4260    0.8660   -0.9540 c2        1 T24     -0.226200
      9 CAK         5.7000    0.5230   -1.1810 ce        1 T24     -0.098000
     10 CAJ         6.1470   -0.5920   -1.9890 ce        1 T24     -0.189000
     11 CAI         7.4220   -0.8010   -2.3510 c2        1 T24     -0.120200
     12 CAH         8.5620    0.0770   -1.9980 c3        1 T24     -0.062200
     13 CAG         9.8640   -0.3950   -2.6140 c3        1 T24     -0.078400
     14 CAF        11.0090    0.5220   -2.2390 c3        1 T24     -0.079400
     15 CAE        12.3120    0.0570   -2.8530 c3        1 T24     -0.079400
     16 CAD        13.4580    0.9740   -2.4810 c3        1 T24     -0.078400
     17 CAC        14.7630    0.5030   -3.0870 c3        1 T24     -0.065400
     18 CAB        15.9090    1.4210   -2.7380 c3        1 T24     -0.194400
     19 CAA        17.2560    0.8320   -3.1940 c         1 T24      0.907600
     20 OAU        18.0670    1.6060   -3.7800 o         1 T24     -0.852800
     21 OAT        17.4980   -0.3850   -2.9490 o         1 T24     -0.852800
     22 HAR1        0.5980   -4.7440    2.0120 hc        1 T24      0.032367
     23 HAR2       -0.1820   -3.2280    2.6270 hc        1 T24      0.032367
     24 HAR3        1.4800   -3.6800    3.1840 hc        1 T24      0.032367
     25 HAQ1        2.3380   -3.4150    0.8260 hc        1 T24      0.048700
     26 HAQ2        0.6830   -2.9580    0.2750 hc        1 T24      0.048700
     27 HAP         1.3060   -1.1670    2.4820 ha        1 T24      0.119000
     28 HAO         2.4670    0.3920    0.9910 ha        1 T24      0.120000
     29 HAN1        2.0310   -1.6020   -1.2300 hc        1 T24      0.063700
     30 HAN2        3.7030   -1.6930   -0.5480 hc        1 T24      0.063700
     31 HAM         2.3490    0.9490   -1.4710 h1        1 T24      0.037700
     32 HOAS        3.9830    0.2970   -3.2670 ho        1 T24      0.411000
     33 HAL         4.2080    1.7210   -0.2910 ha        1 T24      0.123000
     34 HAK         6.5060    1.1240   -0.7170 ha        1 T24      0.125000
     35 HAJ         5.3630   -1.3060   -2.3010 ha        1 T24      0.137000
     36 HAI         7.6740   -1.6860   -2.9600 ha        1 T24      0.126000
     37 HAH1        8.6720    0.1130   -0.8790 hc        1 T24      0.051700
     38 HAH2        8.3490    1.1280   -2.3370 hc        1 T24      0.051700
     39 HAG1       10.0890   -1.4380   -2.2680 hc        1 T24      0.041200
     40 HAG2        9.7610   -0.4300   -3.7300 hc        1 T24      0.041200
     41 HAF1       11.1110    0.5580   -1.1230 hc        1 T24      0.035200
     42 HAF2       10.7830    1.5660   -2.5830 hc        1 T24      0.035200
     43 HAE1       12.5400   -0.9860   -2.5070 hc        1 T24      0.037700
     44 HAE2       12.2100    0.0180   -3.9690 hc        1 T24      0.037700
     45 HAD1       13.2330    2.0150   -2.8310 hc        1 T24      0.026700
     46 HAD2       13.5560    1.0160   -1.3640 hc        1 T24      0.026700
     47 HAC1       14.6580    0.4450   -4.2020 hc        1 T24      0.044200
     48 HAC2       15.0080   -0.5310   -2.7250 hc        1 T24      0.044200
     49 HAB1       15.9580    1.5660   -1.6290 hc        1 T24      0.018700
     50 HAB2       15.7640    2.4240   -3.2090 hc        1 T24      0.018700
@<TRIPOS>BOND
     1    1    2 1   
     2    1   22 1   
     3    1   23 1   
     4    1   24 1   
     5    2    3 1   
     6    2   25 1   
     7    2   26 1   
     8    3    4 2   
     9    3   27 1   
    10    4    5 1   
    11    4   28 1   
    12    5    6 1   
    13    5   29 1   
    14    5   30 1   
    15    6    7 1   
    16    6    8 1   
    17    6   31 1   
    18    7   32 1   
    19    8    9 2   
    20    8   33 1   
    21    9   10 1   
    22    9   34 1   
    23   10   11 2   
    24   10   35 1   
    25   11   12 1   
    26   11   36 1   
    27   12   13 1   
    28   12   37 1   
    29   12   38 1   
    30   13   14 1   
    31   13   39 1   
    32   13   40 1   
    33   14   15 1   
    34   14   41 1   
    35   14   42 1   
    36   15   16 1   
    37   15   43 1   
    38   15   44 1   
    39   16   17 1   
    40   16   45 1   
    41   16   46 1   
    42   17   18 1   
    43   17   47 1   
    44   17   48 1   
    45   18   19 1   
    46   18   49 1   
    47   18   50 1   
    48   19   20 1   
    49   19   21 1   
@<TRIPOS>SUBSTRUCTURE
     1 T24         1 TEMP              0 ****  ****    0 ROOT
