@<TRIPOS>MOLECULE
T24
   50    49     1     0     0
SMALL
bcc


@<TRIPOS>ATOM
      1 CAR         9.9950    1.5640    1.5260 c3        1 T24     -0.090100
      2 CAQ         8.6910    0.9680    1.0610 c3        1 T24     -0.050200
      3 CAP         7.9560    1.8630    0.1350 c2        1 T24     -0.179200
      4 CAO         6.7100    1.6380   -0.2930 c2        1 T24     -0.169200
      5 CAN         5.8890    0.4750    0.1120 c3        1 T24     -0.079200
      6 CAM         4.7300    0.2260   -0.8590 c3        1 T24      0.175300
      7 OAS         3.9010    1.3720   -0.9680 oh        1 T24     -0.594800
      8 CAL         3.9840   -1.0050   -0.4600 c2        1 T24     -0.225200
      9 CAK         2.6480   -1.0970   -0.4340 ce        1 T24     -0.104000
     10 CAJ         1.9470   -2.3070   -0.0580 ce        1 T24     -0.173000
     11 CAI         0.6150   -2.4140    0.0510 c2        1 T24     -0.124200
     12 CAH        -0.3520   -1.3180   -0.1920 c3        1 T24     -0.060200
     13 CAG        -1.7740   -1.7280    0.1340 c3        1 T24     -0.078400
     14 CAF        -2.7420   -0.5890   -0.1030 c3        1 T24     -0.079400
     15 CAE        -4.1610   -0.9940    0.2340 c3        1 T24     -0.078400
     16 CAD        -5.1340    0.1430    0.0080 c3        1 T24     -0.078400
     17 CAC        -6.5490   -0.2600    0.3670 c3        1 T24     -0.065400
     18 CAB        -7.5310    0.8620    0.1350 c3        1 T24     -0.194400
     19 CAA        -8.9240    0.5090    0.6880 c         1 T24      0.907600
     20 OAU        -9.9260    0.7590   -0.0420 o         1 T24     -0.853300
     21 OAT        -9.0040    0.0050    1.8450 o         1 T24     -0.853300
     22 HAR1        9.8200    2.5270    2.0620 hc        1 T24      0.032700
     23 HAR2       10.5140    0.8620    2.2220 hc        1 T24      0.032700
     24 HAR3       10.6700    1.7640    0.6580 hc        1 T24      0.032700
     25 HAQ1        8.8890   -0.0130    0.5460 hc        1 T24      0.045200
     26 HAQ2        8.0440    0.7380    1.9520 hc        1 T24      0.045200
     27 HAP         8.5040    2.7590   -0.2010 ha        1 T24      0.121000
     28 HAO         6.2130    2.3440   -0.9820 ha        1 T24      0.139000
     29 HAN1        6.5220   -0.4510    0.1650 hc        1 T24      0.053200
     30 HAN2        5.4760    0.6550    1.1410 hc        1 T24      0.053200
     31 HAM         5.1330    0.0940   -1.9070 h1        1 T24      0.081700
     32 HOAS        3.5050    1.5240   -0.1010 ho        1 T24      0.401000
     33 HAL         4.6250   -1.8620   -0.2010 ha        1 T24      0.123000
     34 HAK         2.0200   -0.2300   -0.7120 ha        1 T24      0.135000
     35 HAJ         2.5830   -3.1860    0.1470 ha        1 T24      0.117000
     36 HAI         0.1710   -3.3820    0.3420 ha        1 T24      0.123000
     37 HAH1       -0.0730   -0.4220    0.4270 hc        1 T24      0.052700
     38 HAH2       -0.2920   -1.0000   -1.2690 hc        1 T24      0.052700
     39 HAG1       -2.0670   -2.6070   -0.4990 hc        1 T24      0.040200
     40 HAG2       -1.8350   -2.0550    1.2050 hc        1 T24      0.040200
     41 HAF1       -2.4450    0.2940    0.5220 hc        1 T24      0.035700
     42 HAF2       -2.6880   -0.2660   -1.1760 hc        1 T24      0.035700
     43 HAE1       -4.4600   -1.8730   -0.3950 hc        1 T24      0.036700
     44 HAE2       -4.2140   -1.3230    1.3060 hc        1 T24      0.036700
     45 HAD1       -4.8270    1.0270    0.6280 hc        1 T24      0.026700
     46 HAD2       -5.0930    0.4650   -1.0660 hc        1 T24      0.026700
     47 HAC1       -6.8500   -1.1510   -0.2440 hc        1 T24      0.044200
     48 HAC2       -6.6020   -0.5660    1.4460 hc        1 T24      0.044200
     49 HAB1       -7.1820    1.7900    0.6570 hc        1 T24      0.018700
     50 HAB2       -7.6120    1.0910   -0.9560 hc        1 T24      0.018700
@<TRIPOS>BOND
     1    1    2 1   
     2    1   22 1   
     3    1   23 1   
     4    1   24 1   
     5    2    3 1   
     6    2   25 1   
     7    2   26 1   
     8    3    4 2   
     9    3   27 1   
    10    4    5 1   
    11    4   28 1   
    12    5    6 1   
    13    5   29 1   
    14    5   30 1   
    15    6    7 1   
    16    6    8 1   
    17    6   31 1   
    18    7   32 1   
    19    8    9 2   
    20    8   33 1   
    21    9   10 1   
    22    9   34 1   
    23   10   11 2   
    24   10   35 1   
    25   11   12 1   
    26   11   36 1   
    27   12   13 1   
    28   12   37 1   
    29   12   38 1   
    30   13   14 1   
    31   13   39 1   
    32   13   40 1   
    33   14   15 1   
    34   14   41 1   
    35   14   42 1   
    36   15   16 1   
    37   15   43 1   
    38   15   44 1   
    39   16   17 1   
    40   16   45 1   
    41   16   46 1   
    42   17   18 1   
    43   17   47 1   
    44   17   48 1   
    45   18   19 1   
    46   18   49 1   
    47   18   50 1   
    48   19   20 1   
    49   19   21 1   
@<TRIPOS>SUBSTRUCTURE
     1 T24         1 TEMP              0 ****  ****    0 ROOT
