@<TRIPOS>MOLECULE
T25
   52    52     1     0     0
SMALL
bcc


@<TRIPOS>ATOM
      1 O1          0.4170   -2.5890    0.1120 o         1 T25     -0.852800
      2 C1          0.7240   -1.3850    0.3520 c         1 T25      0.907600
      3 O2          0.5910   -0.8390    1.4850 o         1 T25     -0.852800
      4 C2          1.3170   -0.5370   -0.7870 c3        1 T25     -0.194400
      5 C3          0.5320   -0.7070   -2.0640 c3        1 T25     -0.065400
      6 C4          1.2130   -0.0370   -3.2390 c3        1 T25     -0.078400
      7 C5          0.4090   -0.1990   -4.5120 c3        1 T25     -0.078400
      8 C6          1.1010    0.4510   -5.6910 c3        1 T25     -0.079400
      9 C7          0.2970    0.2850   -6.9630 c3        1 T25     -0.078400
     10 C8          1.0020    0.9240   -8.1430 c3        1 T25     -0.055200
     11 C9          0.2420    0.7680   -9.4050 c2        1 T25     -0.148200
     12 C10         0.6320    1.2390  -10.5940 c2        1 T25     -0.194200
     13 C11         1.8740    2.0150  -10.8260 c3        1 T25     -0.043200
     14 C12         2.5050    1.6880  -12.1490 cx        1 T25      0.073100
     15 O3          2.6570    2.7840  -13.0710 os        1 T25     -0.414600
     16 C13         3.8540    2.2130  -12.5130 cx        1 T25      0.061100
     17 C14         4.6370    3.0800  -11.5750 c3        1 T25     -0.075400
     18 C15         5.7610    3.7970  -12.2910 c3        1 T25     -0.076400
     19 C16         6.5440    4.6730  -11.3360 c3        1 T25     -0.080400
     20 C17         7.6730    5.3880  -12.0470 c3        1 T25     -0.079400
     21 C18         8.4550    6.2630  -11.1010 c3        1 T25     -0.093100
     22 H21         1.3330    0.5380   -0.4790 hc        1 T25      0.018700
     23 H22         2.3760   -0.8660   -0.9420 hc        1 T25      0.018700
     24 H31        -0.4950   -0.2750   -1.9310 hc        1 T25      0.044200
     25 H32         0.4060   -1.8040   -2.2640 hc        1 T25      0.044200
     26 H41         1.3540    1.0540   -3.0210 hc        1 T25      0.025700
     27 H42         2.2340   -0.4790   -3.3820 hc        1 T25      0.025700
     28 H51        -0.6070    0.2560   -4.3740 hc        1 T25      0.037200
     29 H52         0.2560   -1.2910   -4.7200 hc        1 T25      0.037200
     30 H61         1.2520    1.5430   -5.4820 hc        1 T25      0.034200
     31 H62         2.1170   -0.0040   -5.8260 hc        1 T25      0.034200
     32 H71         0.1370   -0.8060   -7.1660 hc        1 T25      0.040200
     33 H72        -0.7150    0.7500   -6.8320 hc        1 T25      0.040200
     34 H81         1.1620    2.0180   -7.9330 hc        1 T25      0.047700
     35 H82         2.0220    0.4640   -8.2590 hc        1 T25      0.047700
     36 H9         -0.7110    0.2180   -9.3210 ha        1 T25      0.124000
     37 H10         0.0050    1.0810  -11.4870 ha        1 T25      0.120000
     38 H111        2.6260    1.8130  -10.0140 hc        1 T25      0.063200
     39 H112        1.6300    3.1140  -10.7880 hc        1 T25      0.063200
     40 H12         2.1410    0.7560  -12.6270 h1        1 T25      0.089700
     41 H13         4.4690    1.6630  -13.2550 h1        1 T25      0.082700
     42 H141        5.0570    2.4310  -10.7600 hc        1 T25      0.057200
     43 H142        3.9550    3.8310  -11.0920 hc        1 T25      0.057200
     44 H151        5.3350    4.4240  -13.1180 hc        1 T25      0.042700
     45 H152        6.4490    3.0470  -12.7630 hc        1 T25      0.042700
     46 H161        5.8570    5.4280  -10.8700 hc        1 T25      0.042200
     47 H162        6.9600    4.0460  -10.5050 hc        1 T25      0.042200
     48 H171        8.3590    4.6320  -12.5140 hc        1 T25      0.037200
     49 H172        7.2550    6.0130  -12.8800 hc        1 T25      0.037200
     50 H181        7.7930    7.0390  -10.6440 hc        1 T25      0.032367
     51 H182        9.2820    6.7800  -11.6440 hc        1 T25      0.032367
     52 H183        8.8990    5.6540  -10.2770 hc        1 T25      0.032367
@<TRIPOS>BOND
     1    1    2 1   
     2    2    3 1   
     3    2    4 1   
     4    4    5 1   
     5    4   22 1   
     6    4   23 1   
     7    5    6 1   
     8    5   24 1   
     9    5   25 1   
    10    6    7 1   
    11    6   26 1   
    12    6   27 1   
    13    7    8 1   
    14    7   28 1   
    15    7   29 1   
    16    8    9 1   
    17    8   30 1   
    18    8   31 1   
    19    9   10 1   
    20    9   32 1   
    21    9   33 1   
    22   10   11 1   
    23   10   34 1   
    24   10   35 1   
    25   11   12 2   
    26   11   36 1   
    27   12   13 1   
    28   12   37 1   
    29   13   14 1   
    30   13   38 1   
    31   13   39 1   
    32   14   15 1   
    33   14   16 1   
    34   14   40 1   
    35   15   16 1   
    36   16   17 1   
    37   16   41 1   
    38   17   18 1   
    39   17   42 1   
    40   17   43 1   
    41   18   19 1   
    42   18   44 1   
    43   18   45 1   
    44   19   20 1   
    45   19   46 1   
    46   19   47 1   
    47   20   21 1   
    48   20   48 1   
    49   20   49 1   
    50   21   50 1   
    51   21   51 1   
    52   21   52 1   
@<TRIPOS>SUBSTRUCTURE
     1 T25         1 TEMP              0 ****  ****    0 ROOT
