@<TRIPOS>MOLECULE
T25
   52    52     1     0     0
SMALL
bcc


@<TRIPOS>ATOM
      1 O1          8.7230   -0.5990   -1.4050 o         1 T25     -0.852800
      2 C1          8.4780    0.3170   -0.5670 c         1 T25      0.907600
      3 O2          9.3720    0.9370    0.0780 o         1 T25     -0.852800
      4 C2          7.0130    0.7240   -0.3300 c3        1 T25     -0.194400
      5 C3          6.1270   -0.4860   -0.1640 c3        1 T25     -0.065400
      6 C4          4.6600   -0.1120   -0.1270 c3        1 T25     -0.078400
      7 C5          3.7810   -1.3310    0.0550 c3        1 T25     -0.078400
      8 C6          2.3140   -0.9590    0.0710 c3        1 T25     -0.079400
      9 C7          1.4360   -2.1800    0.2490 c3        1 T25     -0.078400
     10 C8         -0.0320   -1.8030    0.2490 c3        1 T25     -0.055200
     11 C9         -0.9150   -2.9810    0.4110 c2        1 T25     -0.148200
     12 C10        -2.2510   -2.9340    0.4500 c2        1 T25     -0.194200
     13 C11        -3.0520   -1.6900    0.3640 c3        1 T25     -0.043200
     14 C12        -4.3280   -1.8920   -0.4010 cx        1 T25      0.073100
     15 O3         -5.5500   -1.6280    0.3140 os        1 T25     -0.414600
     16 C13        -5.2040   -0.7380   -0.7630 cx        1 T25      0.061100
     17 C14        -4.8460    0.6660   -0.3850 c3        1 T25     -0.075400
     18 C15        -6.0390    1.5920   -0.5010 c3        1 T25     -0.076400
     19 C16        -5.6690    3.0070   -0.1130 c3        1 T25     -0.080400
     20 C17        -6.8560    3.9390   -0.2340 c3        1 T25     -0.079400
     21 C18        -6.4940    5.3490    0.1540 c3        1 T25     -0.093100
     22 H21         6.9510    1.3790    0.5750 hc        1 T25      0.018700
     23 H22         6.6780    1.3250   -1.2130 hc        1 T25      0.018700
     24 H31         6.3240   -1.1940   -1.0140 hc        1 T25      0.044200
     25 H32         6.4000   -1.0230    0.7820 hc        1 T25      0.044200
     26 H41         4.4770    0.6110    0.7110 hc        1 T25      0.025700
     27 H42         4.3820    0.4110   -1.0800 hc        1 T25      0.025700
     28 H51         3.9770   -2.0590   -0.7760 hc        1 T25      0.037200
     29 H52         4.0490   -1.8470    1.0150 hc        1 T25      0.037200
     30 H61         2.1200   -0.2320    0.9020 hc        1 T25      0.034200
     31 H62         2.0480   -0.4420   -0.8890 hc        1 T25      0.034200
     32 H71         1.6380   -2.9110   -0.5780 hc        1 T25      0.040200
     33 H72         1.6940   -2.6910    1.2130 hc        1 T25      0.040200
     34 H81        -0.2280   -1.0690    1.0780 hc        1 T25      0.047700
     35 H82        -0.2790   -1.2780   -0.7150 hc        1 T25      0.047700
     36 H9         -0.4000   -3.9530    0.5040 ha        1 T25      0.124000
     37 H10        -2.8360   -3.8600    0.5760 ha        1 T25      0.120000
     38 H111       -3.2930   -1.3380    1.4060 hc        1 T25      0.063200
     39 H112       -2.4640   -0.8720   -0.1360 hc        1 T25      0.063200
     40 H12        -4.3670   -2.8130   -1.0180 h1        1 T25      0.089700
     41 H13        -5.8780   -0.8220   -1.6400 h1        1 T25      0.082700
     42 H141       -4.4510    0.6880    0.6660 hc        1 T25      0.057200
     43 H142       -4.0230    1.0170   -1.0630 hc        1 T25      0.057200
     44 H151       -6.4250    1.5800   -1.5540 hc        1 T25      0.042700
     45 H152       -6.8650    1.2210    0.1610 hc        1 T25      0.042700
     46 H161       -5.2880    3.0210    0.9430 hc        1 T25      0.042200
     47 H162       -4.8360    3.3730   -0.7690 hc        1 T25      0.042200
     48 H171       -7.2370    3.9240   -1.2900 hc        1 T25      0.037200
     49 H172       -7.6890    3.5690    0.4220 hc        1 T25      0.037200
     50 H181       -5.6820    5.7430   -0.5040 hc        1 T25      0.032367
     51 H182       -7.3820    6.0190    0.0570 hc        1 T25      0.032367
     52 H183       -6.1360    5.3880    1.2110 hc        1 T25      0.032367
@<TRIPOS>BOND
     1    1    2 1   
     2    2    3 1   
     3    2    4 1   
     4    4    5 1   
     5    4   22 1   
     6    4   23 1   
     7    5    6 1   
     8    5   24 1   
     9    5   25 1   
    10    6    7 1   
    11    6   26 1   
    12    6   27 1   
    13    7    8 1   
    14    7   28 1   
    15    7   29 1   
    16    8    9 1   
    17    8   30 1   
    18    8   31 1   
    19    9   10 1   
    20    9   32 1   
    21    9   33 1   
    22   10   11 1   
    23   10   34 1   
    24   10   35 1   
    25   11   12 2   
    26   11   36 1   
    27   12   13 1   
    28   12   37 1   
    29   13   14 1   
    30   13   38 1   
    31   13   39 1   
    32   14   15 1   
    33   14   16 1   
    34   14   40 1   
    35   15   16 1   
    36   16   17 1   
    37   16   41 1   
    38   17   18 1   
    39   17   42 1   
    40   17   43 1   
    41   18   19 1   
    42   18   44 1   
    43   18   45 1   
    44   19   20 1   
    45   19   46 1   
    46   19   47 1   
    47   20   21 1   
    48   20   48 1   
    49   20   49 1   
    50   21   50 1   
    51   21   51 1   
    52   21   52 1   
@<TRIPOS>SUBSTRUCTURE
     1 T25         1 TEMP              0 ****  ****    0 ROOT
