@<TRIPOS>MOLECULE
T25
   52    52     1     0     0
SMALL
bcc


@<TRIPOS>ATOM
      1 O1          0.4210   -2.5780    0.1270 o         1 T25     -0.852800
      2 C1          0.6830   -1.3620    0.3570 c         1 T25      0.907600
      3 O2          0.5100   -0.8050    1.4800 o         1 T25     -0.852800
      4 C2          1.2680   -0.5080   -0.7820 c3        1 T25     -0.194400
      5 C3          0.5130   -0.7210   -2.0710 c3        1 T25     -0.065400
      6 C4          1.1940   -0.0430   -3.2430 c3        1 T25     -0.078400
      7 C5          0.4200   -0.2500   -4.5270 c3        1 T25     -0.078400
      8 C6          1.1110    0.4090   -5.7020 c3        1 T25     -0.079400
      9 C7          0.3390    0.1980   -6.9870 c3        1 T25     -0.078400
     10 C8          1.0430    0.8470   -8.1620 c3        1 T25     -0.055200
     11 C9          0.3140    0.6470   -9.4360 c2        1 T25     -0.148200
     12 C10         0.7100    1.1170  -10.6230 c2        1 T25     -0.194200
     13 C11         1.9260    1.9340  -10.8430 c3        1 T25     -0.043200
     14 C12         2.5940    1.6130  -12.1490 cx        1 T25      0.073100
     15 O3          2.7180    2.6990  -13.0860 os        1 T25     -0.414600
     16 C13         3.9270    2.1870  -12.4980 cx        1 T25      0.061100
     17 C14         4.6570    3.1000  -11.5600 c3        1 T25     -0.075400
     18 C15         5.7640    3.8520  -12.2690 c3        1 T25     -0.076400
     19 C16         6.4920    4.7750  -11.3160 c3        1 T25     -0.080400
     20 C17         7.6040    5.5240  -12.0190 c3        1 T25     -0.079400
     21 C18         8.3320    6.4460  -11.0750 c3        1 T25     -0.093100
     22 H21         2.3400   -0.8030   -0.9130 hc        1 T25      0.018700
     23 H22         1.2420    0.5710   -0.4880 hc        1 T25      0.018700
     24 H31         0.4290   -1.8250   -2.2590 hc        1 T25      0.044200
     25 H32        -0.5300   -0.3240   -1.9630 hc        1 T25      0.044200
     26 H41         2.2320   -0.4520   -3.3610 hc        1 T25      0.025700
     27 H42         1.2930    1.0550   -3.0370 hc        1 T25      0.025700
     28 H51         0.3090   -1.3490   -4.7240 hc        1 T25      0.037200
     29 H52        -0.6140    0.1710   -4.4150 hc        1 T25      0.037200
     30 H61         1.2210    1.5080   -5.5050 hc        1 T25      0.034200
     31 H62         2.1460   -0.0110   -5.8120 hc        1 T25      0.034200
     32 H71        -0.6920    0.6280   -6.8810 hc        1 T25      0.040200
     33 H72         0.2220   -0.9010   -7.1780 hc        1 T25      0.040200
     34 H81         2.0810    0.4220   -8.2520 hc        1 T25      0.047700
     35 H82         1.1600    1.9480   -7.9640 hc        1 T25      0.047700
     36 H9         -0.6210    0.0640   -9.3620 ha        1 T25      0.124000
     37 H10         0.1060    0.9250  -11.5260 ha        1 T25      0.120000
     38 H111        1.6430    3.0240  -10.8250 hc        1 T25      0.063200
     39 H112        2.6690    1.7700  -10.0140 hc        1 T25      0.063200
     40 H12         2.2780    0.6580  -12.6170 h1        1 T25      0.089700
     41 H13         4.5780    1.6510  -13.2190 h1        1 T25      0.082700
     42 H141        5.0880    2.4820  -10.7280 hc        1 T25      0.057200
     43 H142        3.9370    3.8300  -11.1030 hc        1 T25      0.057200
     44 H151        5.3280    4.4470  -13.1150 hc        1 T25      0.042700
     45 H152        6.4910    3.1220  -12.7160 hc        1 T25      0.042700
     46 H161        5.7670    5.5080  -10.8750 hc        1 T25      0.042200
     47 H162        6.9190    4.1790  -10.4660 hc        1 T25      0.042200
     48 H171        8.3290    4.7900  -12.4610 hc        1 T25      0.037200
     49 H172        7.1760    6.1170  -12.8700 hc        1 T25      0.037200
     50 H181        7.6310    7.2010  -10.6430 hc        1 T25      0.032367
     51 H182        9.1470    6.9880  -11.6120 hc        1 T25      0.032367
     52 H183        8.7860    5.8700  -10.2320 hc        1 T25      0.032367
@<TRIPOS>BOND
     1    1    2 1   
     2    2    3 1   
     3    2    4 1   
     4    4    5 1   
     5    4   22 1   
     6    4   23 1   
     7    5    6 1   
     8    5   24 1   
     9    5   25 1   
    10    6    7 1   
    11    6   26 1   
    12    6   27 1   
    13    7    8 1   
    14    7   28 1   
    15    7   29 1   
    16    8    9 1   
    17    8   30 1   
    18    8   31 1   
    19    9   10 1   
    20    9   32 1   
    21    9   33 1   
    22   10   11 1   
    23   10   34 1   
    24   10   35 1   
    25   11   12 2   
    26   11   36 1   
    27   12   13 1   
    28   12   37 1   
    29   13   14 1   
    30   13   38 1   
    31   13   39 1   
    32   14   15 1   
    33   14   16 1   
    34   14   40 1   
    35   15   16 1   
    36   16   17 1   
    37   16   41 1   
    38   17   18 1   
    39   17   42 1   
    40   17   43 1   
    41   18   19 1   
    42   18   44 1   
    43   18   45 1   
    44   19   20 1   
    45   19   46 1   
    46   19   47 1   
    47   20   21 1   
    48   20   48 1   
    49   20   49 1   
    50   21   50 1   
    51   21   51 1   
    52   21   52 1   
@<TRIPOS>SUBSTRUCTURE
     1 T25         1 TEMP              0 ****  ****    0 ROOT
