@<TRIPOS>MOLECULE
T26
   53    55     1     0     0
SMALL
bcc


@<TRIPOS>ATOM
      1 OE2        -9.8410   -0.9480   -1.7300 o         1 T26     -0.873800
      2 CD         -9.8650   -1.2420   -0.4960 c         1 T26      0.904600
      3 OE1       -10.8920   -1.7360    0.0620 o         1 T26     -0.873800
      4 CG         -8.5970   -1.0510    0.3450 c3        1 T26     -0.182400
      5 CB         -8.1300    0.3850    0.3800 c3        1 T26     -0.053400
      6 C          -6.4720    2.0720    1.2720 c         1 T26      0.901600
      7 OXT        -6.9410    2.5350    2.3470 o         1 T26     -0.851800
      8 O          -5.8010    2.7550    0.4420 o         1 T26     -0.851800
      9 N          -5.6990    0.0200    0.0840 n         1 T26     -0.470900
     10 CAU        -4.6380   -0.7240    0.5120 c         1 T26      0.647700
     11 OBC        -4.5600   -1.3160    1.6150 o         1 T26     -0.650100
     12 CAT        -3.5150   -0.8910   -0.4810 ca        1 T26     -0.091600
     13 CAS        -2.2140   -0.6130   -0.0620 ca        1 T26     -0.124000
     14 CAQ        -3.7620   -1.3040   -1.7920 ca        1 T26     -0.108000
     15 CAR        -1.1360   -0.7310   -0.9620 ca        1 T26      0.056600
     16 CAO        -2.6970   -1.4380   -2.6810 ca        1 T26     -0.135000
     17 CAP        -1.3940   -1.1510   -2.2830 ca        1 T26     -0.145000
     18 CAA         2.2210    0.9250   -0.7520 ca        1 T26     -0.036300
     19 CAN         0.8010    0.6830   -1.1740 c3        1 T26      0.195100
     20 NAY         0.2060   -0.4840   -0.5390 nh        1 T26     -0.699600
     21 CAC         3.1550   -0.1160   -0.7330 ca        1 T26     -0.127500
     22 CAE         4.4800    0.1330   -0.3850 ca        1 T26     -0.092500
     23 CAB         2.6300    2.2200   -0.4070 ca        1 T26     -0.127500
     24 CAG         3.9510    2.4700   -0.0580 ca        1 T26     -0.092500
     25 CAF         4.9000    1.4290   -0.0480 ca        1 T26     -0.123800
     26 CAH         6.2600    1.7500    0.3140 ce        1 T26      0.063800
     27 CAI         7.3480    0.9590    0.2250 cd        1 T26     -0.196600
     28 SBG         7.5080   -0.6480   -0.3280 ss        1 T26     -0.014200
     29 CAL         9.2280   -0.7290   -0.0740 c         1 T26      0.351000
     30 SBH        10.0680   -1.9980   -0.3990 s         1 T26     -0.358400
     31 NAX         9.6770    0.4770    0.4420 n         1 T26     -0.552500
     32 CAK         8.6840    1.4660    0.6360 c         1 T26      0.702700
     33 CA         -6.7230    0.5520    0.9750 c3        1 T26     -0.048300
     34 OBE         8.9590    2.5850    1.0880 o         1 T26     -0.585500
     35 HG1C       -8.7900   -1.4110    1.3880 hc        1 T26      0.018700
     36 HG2C       -7.8040   -1.7050   -0.0990 hc        1 T26      0.018700
     37 HB1C       -8.1680    0.8120   -0.6560 hc        1 T26      0.051200
     38 HB2C       -8.8200    0.9940    1.0210 hc        1 T26      0.051200
     39 HA         -6.6680   -0.0070    1.9510 h1        1 T26      0.070700
     40 H          -5.5510    0.6020   -0.7160 hn        1 T26      0.311500
     41 HAQ        -4.7930   -1.5180   -2.1180 ha        1 T26      0.164000
     42 HAS        -2.0540   -0.3040    0.9840 ha        1 T26      0.150000
     43 HAO        -2.8870   -1.7670   -3.7130 ha        1 T26      0.122000
     44 HAP        -0.5690   -1.2560   -3.0020 ha        1 T26      0.116000
     45 HAY         0.2410   -0.3880    0.4610 hn        1 T26      0.370800
     46 HAC         2.8360   -1.1400   -0.9890 ha        1 T26      0.156500
     47 HAB         1.8980    3.0430   -0.4070 ha        1 T26      0.156500
     48 HAN1        0.1980    1.6210   -0.9860 h1        1 T26      0.055200
     49 HAN2        0.7950    0.5040   -2.2900 h1        1 T26      0.055200
     50 HAE         5.1910   -0.7110   -0.3650 ha        1 T26      0.134000
     51 HAG         4.2590    3.4910    0.2140 ha        1 T26      0.134000
     52 HAH         6.4150    2.7810    0.7020 ha        1 T26      0.154000
     53 HAX        10.6320    0.6370    0.6650 hn        1 T26      0.353500
@<TRIPOS>BOND
     1    1    2 1   
     2    2    3 1   
     3    2    4 1   
     4    4    5 1   
     5    4   35 1   
     6    4   36 1   
     7    5   33 1   
     8    5   37 1   
     9    5   38 1   
    10    6    7 1   
    11    6    8 1   
    12    6   33 1   
    13    9   10 1   
    14    9   33 1   
    15    9   40 1   
    16   10   11 2   
    17   10   12 1   
    18   12   13 ar  
    19   12   14 ar  
    20   13   15 ar  
    21   13   42 1   
    22   14   16 ar  
    23   14   41 1   
    24   15   17 ar  
    25   15   20 1   
    26   16   17 ar  
    27   16   43 1   
    28   17   44 1   
    29   18   19 1   
    30   18   21 ar  
    31   18   23 ar  
    32   19   20 1   
    33   19   48 1   
    34   19   49 1   
    35   20   45 1   
    36   21   22 ar  
    37   21   46 1   
    38   22   25 ar  
    39   22   50 1   
    40   23   24 ar  
    41   23   47 1   
    42   24   25 ar  
    43   24   51 1   
    44   25   26 1   
    45   26   27 2   
    46   26   52 1   
    47   27   28 1   
    48   27   32 1   
    49   28   29 1   
    50   29   30 2   
    51   29   31 1   
    52   31   32 1   
    53   31   53 1   
    54   32   34 2   
    55   33   39 1   
@<TRIPOS>SUBSTRUCTURE
     1 T26         1 TEMP              0 ****  ****    0 ROOT
