@<TRIPOS>MOLECULE
T26
   54    56     1     0     0
SMALL
bcc


@<TRIPOS>ATOM
      1 OE2         1.6350   -1.4770   -0.6560 oh        1 T26     -0.603100
      2 CD          1.7770   -0.1200   -0.5540 c         1 T26      0.636100
      3 OE1         1.6390    0.2920    0.6020 o         1 T26     -0.539000
      4 CG          2.0940    0.6870   -1.7730 c3        1 T26     -0.187400
      5 CB          1.1610    0.4030   -2.9350 c3        1 T26     -0.076400
      6 C           0.8630    0.0560   -5.4000 c         1 T26      0.914600
      7 OXT         0.4190    1.2040   -5.6510 o         1 T26     -0.819800
      8 O           0.5650   -1.0050   -6.0140 o         1 T26     -0.819800
      9 N           2.4770   -1.3640   -4.1030 ns        1 T26     -0.516900
     10 CAU         3.8330   -1.5450   -3.9460 c         1 T26      0.641700
     11 OBC         4.5870   -0.6550   -3.4860 o         1 T26     -0.638100
     12 CAT         4.3940   -2.8960   -4.2780 ca        1 T26     -0.096600
     13 CAS         5.6770   -2.9460   -4.8210 ca        1 T26     -0.132000
     14 CAQ         3.6710   -4.0730   -4.0620 ca        1 T26     -0.126000
     15 CAR         6.2590   -4.1850   -5.1720 ca        1 T26      0.103600
     16 CAO         4.2410   -5.2980   -4.4020 ca        1 T26     -0.115000
     17 CAP         5.5150   -5.3650   -4.9580 ca        1 T26     -0.164000
     18 CAA         9.1040   -4.9830   -7.4470 ca        1 T26     -0.065300
     19 CAN         7.8900   -5.2700   -6.6130 c3        1 T26      0.214100
     20 NAY         7.5900   -4.2290   -5.6480 nu        1 T26     -0.713600
     21 CAC        10.3190   -4.6460   -6.8450 ca        1 T26     -0.124500
     22 CAE        11.4530   -4.4210   -7.6230 ca        1 T26     -0.095000
     23 CAB         9.0310   -5.0820   -8.8420 ca        1 T26     -0.124500
     24 CAG        10.1610   -4.8550   -9.6200 ca        1 T26     -0.095000
     25 CAF        11.3920   -4.5290   -9.0200 ca        1 T26     -0.102800
     26 CAH        12.5350   -4.3130   -9.8780 ce        1 T26      0.041800
     27 CAI        13.8280   -4.2210   -9.5120 cd        1 T26     -0.174600
     28 SBG        14.5570   -4.3240   -7.9740 ss        1 T26     -0.034200
     29 CAL        16.1900   -4.1170   -8.5600 c         1 T26      0.350000
     30 SBH        17.4180   -4.1180   -7.6120 s         1 T26     -0.323400
     31 NAX        16.1670   -3.9640   -9.9380 ns        1 T26     -0.551500
     32 CAK        14.8870   -4.0100  -10.5380 c         1 T26      0.700700
     33 CA          1.8940   -0.0370   -4.2050 c3        1 T26     -0.071300
     34 OBE        14.7330   -3.8890  -11.7590 o         1 T26     -0.576500
     35 HG1C        2.0430    1.7720   -1.4940 hc        1 T26      0.088200
     36 HG2C        3.1610    0.4650   -2.0620 hc        1 T26      0.088200
     37 HB1C        0.6050    1.3420   -3.2080 hc        1 T26      0.064700
     38 HB2C        0.3910   -0.3620   -2.6520 hc        1 T26      0.064700
     39 HA          2.7120    0.7120   -4.4160 h1        1 T26      0.065700
     40 H           1.9930   -2.0340   -4.6760 hn        1 T26      0.329500
     41 HAQ         2.6610   -4.0420   -3.6260 ha        1 T26      0.147000
     42 HAS         6.2290   -2.0010   -4.9560 ha        1 T26      0.155000
     43 HAO         3.6760   -6.2260   -4.2340 ha        1 T26      0.128000
     44 HAP         5.9370   -6.3460   -5.2200 ha        1 T26      0.125000
     45 HAY         7.9080   -3.3270   -5.9500 hn        1 T26      0.389800
     46 HAC        10.3810   -4.5590   -5.7480 ha        1 T26      0.151500
     47 HAB         8.0760   -5.3360   -9.3270 ha        1 T26      0.151500
     48 HAN1        7.0100   -5.4750   -7.2930 h1        1 T26      0.051200
     49 HAN2        8.0850   -6.2180   -6.0270 h1        1 T26      0.051200
     50 HAE        12.3960   -4.1430   -7.1220 ha        1 T26      0.140000
     51 HAG        10.0920   -4.9330  -10.7170 ha        1 T26      0.140000
     52 HAH        12.3050   -4.2250  -10.9620 ha        1 T26      0.157000
     53 HAX        16.9940   -3.8250  -10.4720 hn        1 T26      0.356500
     54 H2          1.7500   -1.7440   -1.5800 ho        1 T26      0.441000
@<TRIPOS>BOND
     1    1    2 1   
     2    1   54 1   
     3    2    3 2   
     4    2    4 1   
     5    4    5 1   
     6    4   35 1   
     7    4   36 1   
     8    5   33 1   
     9    5   37 1   
    10    5   38 1   
    11    6    7 1   
    12    6    8 1   
    13    6   33 1   
    14    9   10 1   
    15    9   33 1   
    16    9   40 1   
    17   10   11 2   
    18   10   12 1   
    19   12   13 ar  
    20   12   14 ar  
    21   13   15 ar  
    22   13   42 1   
    23   14   16 ar  
    24   14   41 1   
    25   15   17 ar  
    26   15   20 1   
    27   16   17 ar  
    28   16   43 1   
    29   17   44 1   
    30   18   19 1   
    31   18   21 ar  
    32   18   23 ar  
    33   19   20 1   
    34   19   48 1   
    35   19   49 1   
    36   20   45 1   
    37   21   22 ar  
    38   21   46 1   
    39   22   25 ar  
    40   22   50 1   
    41   23   24 ar  
    42   23   47 1   
    43   24   25 ar  
    44   24   51 1   
    45   25   26 1   
    46   26   27 2   
    47   26   52 1   
    48   27   28 1   
    49   27   32 1   
    50   28   29 1   
    51   29   30 2   
    52   29   31 1   
    53   31   32 1   
    54   31   53 1   
    55   32   34 2   
    56   33   39 1   
@<TRIPOS>SUBSTRUCTURE
     1 T26         1 TEMP              0 ****  ****    0 ROOT
