@<TRIPOS>MOLECULE
T26
   55    57     1     0     0
SMALL
bcc


@<TRIPOS>ATOM
      1 OE2         0.2000   -1.4790   -3.5870 oh        1 T26     -0.606100
      2 CD          0.8760   -1.7190   -2.4390 c         1 T26      0.646100
      3 OE1         1.0100   -2.9310   -2.2010 o         1 T26     -0.590000
      4 CG          1.4000   -0.6240   -1.5590 c3        1 T26     -0.163400
      5 CB          1.8340    0.6360   -2.2710 c3        1 T26     -0.086400
      6 C           2.2010    1.2010   -4.6960 c         1 T26      0.908600
      7 OXT         2.8320    2.1640   -5.1800 o         1 T26     -0.805800
      8 O           1.1120    0.7130   -5.1180 o         1 T26     -0.805800
      9 N           3.1160   -0.8920   -3.7950 n         1 T26     -0.509900
     10 CAU         4.3360   -1.4820   -3.6710 c         1 T26      0.656700
     11 OBC         5.3140   -1.0100   -3.0520 o         1 T26     -0.617100
     12 CAT         4.4720   -2.8300   -4.3330 ca        1 T26     -0.105600
     13 CAS         5.5910   -3.0320   -5.1430 ca        1 T26     -0.070000
     14 CAQ         3.5310   -3.8460   -4.1480 ca        1 T26     -0.043000
     15 CAR         5.7500   -4.2710   -5.7840 ca        1 T26     -0.088400
     16 CAO         3.7120   -5.0790   -4.7820 ca        1 T26     -0.111000
     17 CAP         4.8130   -5.3040   -5.6030 ca        1 T26     -0.109000
     18 CAA         9.3480   -4.7870   -6.7930 ca        1 T26     -0.173300
     19 CAN         8.1760   -4.6640   -5.8820 c3        1 T26      0.167100
     20 NAY         6.9050   -4.4710   -6.6610 n4        1 T26     -0.624400
     21 CAC        10.0820   -3.6520   -7.1490 ca        1 T26     -0.100500
     22 CAE        11.2020   -3.7720   -7.9710 ca        1 T26     -0.105000
     23 CAB         9.7400   -6.0460   -7.2670 ca        1 T26     -0.100500
     24 CAG        10.8540   -6.1650   -8.0900 ca        1 T26     -0.105000
     25 CAF        11.6040   -5.0280   -8.4500 ca        1 T26     -0.029800
     26 CAH        12.7590   -5.2110   -9.3060 ce        1 T26     -0.030200
     27 CAI        13.7430   -4.3250   -9.5390 cd        1 T26     -0.116600
     28 SBG        14.0010   -2.7530   -8.9550 ss        1 T26     -0.072200
     29 CAL        15.5180   -2.5000   -9.8170 c         1 T26      0.343000
     30 SBH        16.2990   -1.1820   -9.6920 s         1 T26     -0.223400
     31 NAX        15.8060   -3.6400  -10.5530 n         1 T26     -0.547500
     32 CAK        14.8740   -4.6940  -10.4530 c         1 T26      0.694700
     33 CA          2.8300    0.4810   -3.4330 c3        1 T26     -0.069300
     34 OBE        15.0100   -5.7630  -11.0550 o         1 T26     -0.555500
     35 HG1C        0.5850   -0.3700   -0.8280 hc        1 T26      0.072200
     36 HG2C        2.2590   -1.0480   -0.9720 hc        1 T26      0.072200
     37 HB1C        0.9200    1.1600   -2.6670 hc        1 T26      0.060200
     38 HB2C        2.2980    1.3170   -1.5100 hc        1 T26      0.060200
     39 HA          3.7960    0.9930   -3.1650 h1        1 T26      0.086700
     40 H           0.2590   -0.5340   -3.8590 ho        1 T26      0.496000
     41 HAQ         2.6410   -3.6780   -3.5030 ha        1 T26      0.217000
     42 HAS         6.3200   -2.2110   -5.2540 ha        1 T26      0.169000
     43 HAO         2.9690   -5.8800   -4.6350 ha        1 T26      0.168000
     44 HAP         4.9310   -6.2790   -6.1020 ha        1 T26      0.140000
     45 HAY         7.0070   -3.6460   -7.2660 hn        1 T26      0.449300
     46 HAC         9.7910   -2.6590   -6.7710 ha        1 T26      0.146000
     47 HAB         9.1780   -6.9470   -6.9770 ha        1 T26      0.146000
     48 HAN1        8.0500   -5.5900   -5.2510 hx        1 T26      0.115700
     49 HAN2        8.2870   -3.7770   -5.1910 hx        1 T26      0.115700
     50 HAE        11.7610   -2.8600   -8.2460 ha        1 T26      0.159500
     51 HAG        11.1590   -7.1580   -8.4570 ha        1 T26      0.159500
     52 HAH        12.8260   -6.2010   -9.8050 ha        1 T26      0.167000
     53 HAX        16.6230   -3.7160  -11.1190 hn        1 T26      0.366500
     54 H2          2.4500   -1.2950   -4.4260 hn        1 T26      0.331500
     55 HAY2        6.7450   -5.2890   -7.2580 hn        1 T26      0.449300
@<TRIPOS>BOND
     1    1    2 1   
     2    1   40 1   
     3    2    3 2   
     4    2    4 1   
     5    4    5 1   
     6    4   35 1   
     7    4   36 1   
     8    5   33 1   
     9    5   37 1   
    10    5   38 1   
    11    6    7 1   
    12    6    8 1   
    13    6   33 1   
    14    9   10 1   
    15    9   33 1   
    16    9   54 1   
    17   10   11 2   
    18   10   12 1   
    19   12   13 ar  
    20   12   14 ar  
    21   13   15 ar  
    22   13   42 1   
    23   14   16 ar  
    24   14   41 1   
    25   15   17 ar  
    26   15   20 1   
    27   16   17 ar  
    28   16   43 1   
    29   17   44 1   
    30   18   19 1   
    31   18   21 ar  
    32   18   23 ar  
    33   19   20 1   
    34   19   48 1   
    35   19   49 1   
    36   20   45 1   
    37   20   55 1   
    38   21   22 ar  
    39   21   46 1   
    40   22   25 ar  
    41   22   50 1   
    42   23   24 ar  
    43   23   47 1   
    44   24   25 ar  
    45   24   51 1   
    46   25   26 1   
    47   26   27 2   
    48   26   52 1   
    49   27   28 1   
    50   27   32 1   
    51   28   29 1   
    52   29   30 2   
    53   29   31 1   
    54   31   32 1   
    55   31   53 1   
    56   32   34 2   
    57   33   39 1   
@<TRIPOS>SUBSTRUCTURE
     1 T26         1 TEMP              0 ****  ****    0 ROOT
