@<TRIPOS>MOLECULE
T26
   54    56     1     0     0
SMALL
bcc


@<TRIPOS>ATOM
      1 OE2         1.6250   -1.5240   -0.6550 oh        1 T26     -0.603100
      2 CD          1.7780   -0.1710   -0.5280 c         1 T26      0.636100
      3 OE1         1.6390    0.2230    0.6340 o         1 T26     -0.539000
      4 CG          2.1080    0.6560   -1.7310 c3        1 T26     -0.187400
      5 CB          1.1770    0.4020   -2.9010 c3        1 T26     -0.076400
      6 C           0.8880    0.1030   -5.3740 c         1 T26      0.914600
      7 OXT         0.4560    1.2600   -5.6060 o         1 T26     -0.819800
      8 O           0.5830   -0.9430   -6.0090 o         1 T26     -0.819800
      9 N           2.4820   -1.3560   -4.0960 n         1 T26     -0.516900
     10 CAU         3.8360   -1.5520   -3.9360 c         1 T26      0.641700
     11 OBC         4.5960   -0.6790   -3.4560 o         1 T26     -0.639100
     12 CAT         4.3860   -2.9020   -4.2910 ca        1 T26     -0.096600
     13 CAS         5.6710   -2.9540   -4.8290 ca        1 T26     -0.132000
     14 CAQ         3.6510   -4.0760   -4.1010 ca        1 T26     -0.126000
     15 CAR         6.2430   -4.1920   -5.2000 ca        1 T26      0.103600
     16 CAO         4.2110   -5.2990   -4.4610 ca        1 T26     -0.115000
     17 CAP         5.4870   -5.3690   -5.0120 ca        1 T26     -0.164000
     18 CAA         9.0930   -4.9730   -7.4750 ca        1 T26     -0.065300
     19 CAN         7.8720   -5.2640   -6.6520 c3        1 T26      0.214100
     20 NAY         7.5770   -4.2390   -5.6690 nh        1 T26     -0.713600
     21 CAC        10.3080   -4.6610   -6.8590 ca        1 T26     -0.124500
     22 CAE        11.4480   -4.4310   -7.6260 ca        1 T26     -0.095000
     23 CAB         9.0270   -5.0420   -8.8720 ca        1 T26     -0.124500
     24 CAG        10.1630   -4.8110   -9.6390 ca        1 T26     -0.095000
     25 CAF        11.3940   -4.5090   -9.0260 ca        1 T26     -0.102800
     26 CAH        12.5440   -4.2870   -9.8730 ce        1 T26      0.041800
     27 CAI        13.8360   -4.2160   -9.4980 cd        1 T26     -0.174600
     28 SBG        14.5560   -4.3580   -7.9590 ss        1 T26     -0.034200
     29 CAL        16.1930   -4.1550   -8.5320 c         1 T26      0.350000
     30 SBH        17.4160   -4.1880   -7.5790 s         1 T26     -0.323400
     31 NAX        16.1790   -3.9730   -9.9070 n         1 T26     -0.551500
     32 CAK        14.9030   -3.9940  -10.5140 c         1 T26      0.700700
     33 CA          1.9120   -0.0210   -4.1760 c3        1 T26     -0.071300
     34 OBE        14.7550   -3.8460  -11.7330 o         1 T26     -0.576500
     35 HG1C        3.1750    0.4290   -2.0190 hc        1 T26      0.088200
     36 HG2C        2.0660    1.7370   -1.4320 hc        1 T26      0.088200
     37 HB1C        0.4000   -0.3610   -2.6350 hc        1 T26      0.064700
     38 HB2C        0.6310    1.3510   -3.1590 hc        1 T26      0.064700
     39 HA          2.7380    0.7230   -4.3700 h1        1 T26      0.064700
     40 H           1.7420   -1.7750   -1.5840 ho        1 T26      0.441000
     41 HAQ         2.6390   -4.0440   -3.6700 ha        1 T26      0.147000
     42 HAS         6.2320   -2.0120   -4.9420 ha        1 T26      0.155000
     43 HAO         3.6360   -6.2260   -4.3130 ha        1 T26      0.128000
     44 HAP         5.9010   -6.3490   -5.2890 ha        1 T26      0.125000
     45 HAY         7.9050   -3.3350   -5.9510 hn        1 T26      0.389800
     46 HAC        10.3650   -4.5970   -5.7600 ha        1 T26      0.151500
     47 HAB         8.0720   -5.2760   -9.3660 ha        1 T26      0.151500
     48 HAN1        8.0550   -6.2250   -6.0850 h1        1 T26      0.051200
     49 HAN2        6.9940   -5.4470   -7.3410 h1        1 T26      0.051200
     50 HAE        12.3910   -4.1730   -7.1140 ha        1 T26      0.140000
     51 HAG        10.0990   -4.8650  -10.7370 ha        1 T26      0.140000
     52 HAH        12.3200   -4.1750  -10.9560 ha        1 T26      0.157000
     53 HAX        17.0110   -3.8310  -10.4330 hn        1 T26      0.356500
     54 H2          1.9950   -2.0100   -4.6840 hn        1 T26      0.329500
@<TRIPOS>BOND
     1    1    2 1   
     2    1   40 1   
     3    2    3 2   
     4    2    4 1   
     5    4    5 1   
     6    4   35 1   
     7    4   36 1   
     8    5   33 1   
     9    5   37 1   
    10    5   38 1   
    11    6    7 1   
    12    6    8 1   
    13    6   33 1   
    14    9   10 1   
    15    9   33 1   
    16    9   54 1   
    17   10   11 2   
    18   10   12 1   
    19   12   13 ar  
    20   12   14 ar  
    21   13   15 ar  
    22   13   42 1   
    23   14   16 ar  
    24   14   41 1   
    25   15   17 ar  
    26   15   20 1   
    27   16   17 ar  
    28   16   43 1   
    29   17   44 1   
    30   18   19 1   
    31   18   21 ar  
    32   18   23 ar  
    33   19   20 1   
    34   19   48 1   
    35   19   49 1   
    36   20   45 1   
    37   21   22 ar  
    38   21   46 1   
    39   22   25 ar  
    40   22   50 1   
    41   23   24 ar  
    42   23   47 1   
    43   24   25 ar  
    44   24   51 1   
    45   25   26 1   
    46   26   27 2   
    47   26   52 1   
    48   27   28 1   
    49   27   32 1   
    50   28   29 1   
    51   29   30 2   
    52   29   31 1   
    53   31   32 1   
    54   31   53 1   
    55   32   34 2   
    56   33   39 1   
@<TRIPOS>SUBSTRUCTURE
     1 T26         1 TEMP              0 ****  ****    0 ROOT
