@<TRIPOS>MOLECULE
T27
   46    48     1     0     0
SMALL
bcc


@<TRIPOS>ATOM
      1 C1          3.3050    0.5960    1.2080 ca        1 T27     -0.068800
      2 N2         -2.1200   -0.7750   -0.5070 nb        1 T27     -0.757000
      3 C3          5.2260    0.1810   -0.2250 ca        1 T27     -0.064800
      4 C4          4.5100    0.6920   -1.3150 ca        1 T27     -0.112500
      5 C5          3.1990    1.1490   -1.1720 ca        1 T27     -0.068800
      6 C6          2.5770    1.0920    0.0990 ca        1 T27      0.104600
      7 C7          2.6960    0.5560    2.5590 c3        1 T27     -0.060300
      8 C2          4.6150    0.1480    1.0320 ca        1 T27     -0.112500
      9 C8          2.4900    1.7070   -2.3490 c3        1 T27     -0.060300
     10 N1          1.2610    1.6060    0.2640 nh        1 T27     -0.720300
     11 C9         -0.9270   -1.0960   -1.0330 ca        1 T27      0.479200
     12 C10         0.2540   -0.3870   -0.7940 ca        1 T27     -0.447600
     13 C11         0.1590    0.7570    0.0550 ca        1 T27      0.700200
     14 N3         -1.0310    1.1150    0.6320 nb        1 T27     -0.807000
     15 C12        -2.1310    0.3290    0.3320 ca        1 T27      0.895900
     16 N4         -3.3250    0.6870    1.0010 nh        1 T27     -0.714300
     17 C13        -7.1910   -0.6130   -0.0950 ca        1 T27     -0.036000
     18 C14        -6.1790   -1.5530    0.1390 ca        1 T27     -0.076000
     19 C15        -4.8950   -1.1410    0.4790 ca        1 T27     -0.148000
     20 C16        -4.5930    0.2340    0.5800 ca        1 T27      0.163600
     21 C17        -5.6220    1.1760    0.3450 ca        1 T27     -0.148000
     22 C18        -6.9040    0.7550    0.0150 ca        1 T27     -0.076000
     23 N5         -9.5730   -1.3930   -0.7230 n1        1 T27     -0.367800
     24 C19        -8.5000   -1.0410   -0.4400 cg        1 T27      0.236800
     25 C20         7.2330   -1.1340    0.3820 ce        1 T27     -0.062700
     26 C21         6.5880   -0.2840   -0.4340 cf        1 T27     -0.049200
     27 N6          9.6540   -1.9240   -0.0430 n1        1 T27     -0.360800
     28 C22         8.5620   -1.5620    0.1390 cg        1 T27      0.182500
     29 H4          4.9890    0.7360   -2.3060 ha        1 T27      0.140500
     30 H7          1.7290   -0.0080    2.5420 hc        1 T27      0.052867
     31 H7A         3.3750    0.0580    3.2940 hc        1 T27      0.052867
     32 H7B         2.4910    1.5940    2.9260 hc        1 T27      0.052867
     33 H2          5.1730   -0.2300    1.9040 ha        1 T27      0.140500
     34 H8          1.5430    1.1410   -2.5430 hc        1 T27      0.052867
     35 H8A         2.2210    2.7770   -2.1660 hc        1 T27      0.052867
     36 H8B         3.1260    1.6540   -3.2670 hc        1 T27      0.052867
     37 HN1         1.1780    2.2330    1.0420 hn        1 T27      0.432800
     38 H9         -0.9290   -1.9850   -1.6930 h4        1 T27      0.029100
     39 H10         1.2060   -0.6950   -1.2390 ha        1 T27      0.164000
     40 HN4        -3.3240    1.6140    1.3800 hn        1 T27      0.441800
     41 H14        -6.4000   -2.6290    0.0580 ha        1 T27      0.146500
     42 H15        -4.1220   -1.9030    0.6690 ha        1 T27      0.151000
     43 H17        -5.4190    2.2560    0.4220 ha        1 T27      0.151000
     44 H18        -7.6950    1.4990   -0.1650 ha        1 T27      0.146500
     45 H20         6.7680   -1.5600    1.2890 ha        1 T27      0.154000
     46 H21         7.0830    0.1050   -1.3430 ha        1 T27      0.141000
@<TRIPOS>BOND
     1    1    6 ar  
     2    1    7 1   
     3    1    8 ar  
     4    2   11 ar  
     5    2   15 ar  
     6    3    4 ar  
     7    3    8 ar  
     8    3   26 1   
     9    4    5 ar  
    10    4   29 1   
    11    5    6 ar  
    12    5    9 1   
    13    6   10 1   
    14    7   30 1   
    15    7   31 1   
    16    7   32 1   
    17    8   33 1   
    18    9   34 1   
    19    9   35 1   
    20    9   36 1   
    21   10   13 1   
    22   10   37 1   
    23   11   12 ar  
    24   11   38 1   
    25   12   13 ar  
    26   12   39 1   
    27   13   14 ar  
    28   14   15 ar  
    29   15   16 1   
    30   16   20 1   
    31   16   40 1   
    32   17   18 ar  
    33   17   22 ar  
    34   17   24 1   
    35   18   19 ar  
    36   18   41 1   
    37   19   20 ar  
    38   19   42 1   
    39   20   21 ar  
    40   21   22 ar  
    41   21   43 1   
    42   22   44 1   
    43   23   24 3   
    44   25   26 2   
    45   25   28 1   
    46   25   45 1   
    47   26   46 1   
    48   27   28 3   
@<TRIPOS>SUBSTRUCTURE
     1 T27         1 TEMP              0 ****  ****    0 ROOT
