@<TRIPOS>MOLECULE
T27
   46    47     1     0     0
SMALL
bcc


@<TRIPOS>ATOM
      1 C1          0.1980   -0.0310    0.2250 ca        1 T27     -0.051000
      2 N2          3.5760   -3.8260   -2.6590 n2        1 T27     -0.231000
      3 C3          0.3240    0.2070    2.6410 ca        1 T27      0.013000
      4 C4          1.7200    0.1850    2.5650 ca        1 T27     -0.131000
      5 C5          2.3750    0.0580    1.3370 ca        1 T27     -0.051000
      6 C6          1.6130   -0.0640    0.1500 ca        1 T27      0.011000
      7 C7         -0.6280   -0.1280   -1.0030 c3        1 T27     -0.186000
      8 C2         -0.4280    0.1040    1.4640 ca        1 T27     -0.131000
      9 C8          3.8570    0.0720    1.3000 c3        1 T27     -0.186000
     10 N1          2.2740   -0.1400   -1.1060 nh        1 T27     -0.239000
     11 C9          3.3430   -3.6860   -1.3440 c2        1 T27      0.013000
     12 C10         2.8680   -2.5120   -0.7520 c2        1 T27     -0.317000
     13 C11         2.6370   -1.4000   -1.6170 c2        1 T27      0.178000
     14 N3          2.8410   -1.4980   -2.9680 n2        1 T27     -0.281000
     15 C12         3.3010   -2.7150   -3.4420 c2        1 T27      0.177000
     16 N4          3.4340   -2.8010   -4.8470 nh        1 T27     -0.235000
     17 C13         5.6160   -5.7830   -6.8920 ca        1 T27     -0.032000
     18 C14         4.6220   -6.1510   -5.9750 ca        1 T27     -0.076000
     19 C15         3.9090   -5.1820   -5.2780 ca        1 T27     -0.148000
     20 C16         4.1890   -3.8130   -5.4760 ca        1 T27      0.082000
     21 C17         5.1920   -3.4510   -6.4070 ca        1 T27     -0.148000
     22 C18         5.8920   -4.4260   -7.1060 ca        1 T27     -0.076000
     23 N5          6.9300   -7.5940   -8.1840 n1        1 T27     -0.042000
     24 C19         6.3380   -6.7790   -7.6020 c1        1 T27     -0.093000
     25 C20        -1.6220    0.3780    4.1830 c1        1 T27      0.174000
     26 C21        -0.3320    0.3410    3.9270 c2        1 T27     -0.412000
     27 N6         -5.9880    0.5420    5.1740 n1        1 T27     -0.072000
     28 C22        -4.8540    0.4980    4.9300 c1        1 T27     -0.201000
     29 H4          2.3180    0.2750    3.4850 ha        1 T27      0.139000
     30 H7         -0.3640   -1.0460   -1.5870 hc        1 T27      0.092500
     31 H7A        -1.7170   -0.1760   -0.7540 hc        1 T27      0.092500
     32 H7B        -0.4610    0.7650   -1.6570 hc        1 T27      0.092500
     33 H2         -1.5280    0.1270    1.5150 ha        1 T27      0.139000
     34 H8          4.2180    0.9410    0.6940 hc        1 T27      0.092500
     35 H8A         4.2880    0.1540    2.3280 hc        1 T27      0.092500
     36 H8B         4.2470   -0.8660    0.8270 hc        1 T27      0.092500
     37 HN1         1.9120    0.5080   -1.7810 hn        1 T27      0.227000
     38 H9          3.5560   -4.5820   -0.7310 h4        1 T27      0.166000
     39 H10         2.6810   -2.4490    0.3260 ha        1 T27      0.163000
     40 HN4         3.4610   -1.9160   -5.3160 hn        1 T27      0.237000
     41 H14         4.3980   -7.2160   -5.8070 ha        1 T27      0.146500
     42 H15         3.1260   -5.4990   -4.5720 ha        1 T27      0.151000
     43 H17         5.4280   -2.3910   -6.5890 ha        1 T27      0.151000
     44 H18         6.6700   -4.1300   -7.8270 ha        1 T27      0.146500
     45 H20        -3.8010    0.4570    4.7030 ha        1 T27      0.264000
     46 H21         0.3490    0.4210    4.8060 ha        1 T27      0.201000
@<TRIPOS>BOND
     1    1    6 1   
     2    1    7 1   
     3    1    8 1   
     4    2   11 1   
     5    2   15 1   
     6    3    4 1   
     7    3    8 1   
     8    3   26 1   
     9    4    5 1   
    10    4   29 1   
    11    5    6 1   
    12    5    9 1   
    13    6   10 1   
    14    7   30 1   
    15    7   31 1   
    16    7   32 1   
    17    8   33 1   
    18    9   34 1   
    19    9   35 1   
    20    9   36 1   
    21   10   13 1   
    22   10   37 1   
    23   11   12 1   
    24   11   38 1   
    25   12   13 1   
    26   12   39 1   
    27   13   14 1   
    28   14   15 1   
    29   15   16 1   
    30   16   20 1   
    31   16   40 1   
    32   17   18 1   
    33   17   22 1   
    34   17   24 1   
    35   18   19 1   
    36   18   41 1   
    37   19   20 1   
    38   19   42 1   
    39   20   21 1   
    40   21   22 1   
    41   21   43 1   
    42   22   44 1   
    43   23   24 1   
    44   25   26 1   
    45   26   46 1   
    46   27   28 1   
    47   28   45 1   
@<TRIPOS>SUBSTRUCTURE
     1 T27         1 TEMP              0 ****  ****    0 ROOT
