@<TRIPOS>MOLECULE
T28
   34    37     1     0     0
SMALL
bcc


@<TRIPOS>ATOM
      1 BR1        -0.0100   -0.3800    0.2070 br        1 T28     -0.066100
      2 C12         1.8540   -0.2280    0.1170 ca        1 T28     -0.031900
      3 C6          2.5930   -0.1500    1.2930 ca        1 T28     -0.069000
      4 C2          3.9810   -0.0430    1.2090 ca        1 T28     -0.049800
      5 C5          4.6140   -0.0090   -0.0880 ca        1 T28     -0.047200
      6 C11         3.8580   -0.0840   -1.2670 ca        1 T28     -0.119000
      7 C17         2.4810   -0.1950   -1.1460 ca        1 T28     -0.082000
      8 C1          5.0490    0.0740    2.1790 cc        1 T28     -0.287000
      9 C4          6.2680    0.1470    1.4600 cd        1 T28      0.036700
     10 N9          5.9990    0.1070    0.1000 na        1 T28     -0.154400
     11 C3          4.9550    0.1240    3.6110 ca        1 T28      0.599100
     12 N8          4.0170   -0.6310    4.2530 nb        1 T28     -0.678000
     13 C15         4.0280   -0.5500    5.6170 ca        1 T28      0.682900
     14 N20         2.9950   -1.3690    6.3230 n4        1 T28     -0.813300
     15 N19         4.8670    0.1790    6.4190 nb        1 T28     -0.679000
     16 C13         5.7670    0.9320    5.7520 ca        1 T28      0.451200
     17 C7          5.8520    0.9650    4.3470 ca        1 T28     -0.250900
     18 C14         6.7510    1.9130    3.6490 c3        1 T28     -0.043100
     19 C16         7.9460    1.2840    2.9650 c3        1 T28     -0.069400
     20 C10         7.6340    0.1270    2.0350 c3        1 T28     -0.046200
     21 H6          2.1010   -0.1710    2.2760 ha        1 T28      0.145000
     22 H11         4.3370   -0.0550   -2.2560 ha        1 T28      0.155000
     23 H17         1.8670   -0.2570   -2.0600 ha        1 T28      0.163000
     24 H1          6.6750    0.1140   -0.6220 hn        1 T28      0.319700
     25 H201        2.3420   -0.7370    6.8010 hn        1 T28      0.477467
     26 H202        2.4830   -1.9480    5.6450 hn        1 T28      0.477467
     27 H13         6.4380    1.5400    6.3910 h4        1 T28      0.067100
     28 H142        7.1290    2.6790    4.3810 hc        1 T28      0.078700
     29 H141        6.1390    2.4620    2.8770 hc        1 T28      0.078700
     30 H162        8.4630    2.0960    2.3830 hc        1 T28      0.065200
     31 H161        8.6760    0.9230    3.7390 hc        1 T28      0.065200
     32 H102        7.7330   -0.8420    2.6020 hc        1 T28      0.074700
     33 H101        8.4130    0.1040    1.2230 hc        1 T28      0.074700
     34 H203        3.4570   -1.9700    7.0150 hn        1 T28      0.477467
@<TRIPOS>BOND
     1    1    2 1   
     2    2    3 ar  
     3    2    7 ar  
     4    3    4 ar  
     5    3   21 1   
     6    4    5 ar  
     7    4    8 1   
     8    5    6 ar  
     9    5   10 1   
    10    6    7 ar  
    11    6   22 1   
    12    7   23 1   
    13    8    9 2   
    14    8   11 1   
    15    9   10 1   
    16    9   20 1   
    17   10   24 1   
    18   11   12 ar  
    19   11   17 ar  
    20   12   13 ar  
    21   13   14 1   
    22   13   15 ar  
    23   14   25 1   
    24   14   26 1   
    25   14   34 1   
    26   15   16 ar  
    27   16   17 ar  
    28   16   27 1   
    29   17   18 1   
    30   18   19 1   
    31   18   28 1   
    32   18   29 1   
    33   19   20 1   
    34   19   30 1   
    35   19   31 1   
    36   20   32 1   
    37   20   33 1   
@<TRIPOS>SUBSTRUCTURE
     1 T28         1 TEMP              0 ****  ****    0 ROOT
