@<TRIPOS>MOLECULE
T28
   33    36     1     0     0
SMALL
bcc


@<TRIPOS>ATOM
      1 BR1        -3.9820   -1.1430    0.0390 br        1 T28     -0.097100
      2 C12        -2.6390    0.1530   -0.1440 ca        1 T28     -0.052900
      3 C6         -1.3020   -0.2270   -0.0870 ca        1 T28     -0.042000
      4 C2         -0.3220    0.7550   -0.2260 ca        1 T28     -0.059800
      5 C5         -0.7130    2.1330   -0.4280 ca        1 T28     -0.043200
      6 C11        -2.0670    2.4990   -0.4800 ca        1 T28     -0.145000
      7 C17        -3.0140    1.4980   -0.3370 ca        1 T28     -0.090000
      8 C1          1.1240    0.7450   -0.2130 cc        1 T28     -0.219000
      9 C4          1.5570    2.0670   -0.4200 cd        1 T28     -0.015300
     10 N9          0.4450    2.9070   -0.5370 na        1 T28     -0.180400
     11 C3          2.0210   -0.3780   -0.0100 ca        1 T28      0.579100
     12 N8          1.7230   -1.5750   -0.5650 nb        1 T28     -0.747000
     13 C15         2.6380   -2.6000   -0.3610 ca        1 T28      0.863900
     14 N20         2.2930   -3.8750   -0.8240 nh        1 T28     -0.925500
     15 N19         3.8470   -2.4620    0.3180 nb        1 T28     -0.752000
     16 C13         4.0800   -1.2620    0.8630 ca        1 T28      0.467200
     17 C7          3.2020   -0.1670    0.7570 ca        1 T28     -0.369900
     18 C14         3.4450    1.1000    1.4810 c3        1 T28     -0.013100
     19 C16         3.8450    2.2750    0.6100 c3        1 T28     -0.066400
     20 C10         2.9580    2.5180   -0.5970 c3        1 T28     -0.027200
     21 H6         -1.0060   -1.2780    0.0580 ha        1 T28      0.166000
     22 H11        -2.3680    3.5440   -0.6300 ha        1 T28      0.137000
     23 H17        -4.0820    1.7640   -0.3760 ha        1 T28      0.144000
     24 H1          0.4750    3.8740   -0.7230 hn        1 T28      0.301700
     25 H201        1.5790   -3.9180   -1.5140 hn        1 T28      0.425300
     26 H202        3.0370   -4.5260   -0.9210 hn        1 T28      0.425300
     27 H13         5.0320   -1.1720    1.4210 h4        1 T28      0.023100
     28 H142        2.5060    1.3730    2.0400 hc        1 T28      0.053200
     29 H141        4.2530    0.9440    2.2470 hc        1 T28      0.053200
     30 H162        3.8490    3.1940    1.2560 hc        1 T28      0.044200
     31 H161        4.8960    2.1260    0.2430 hc        1 T28      0.044200
     32 H102        3.3740    1.9510   -1.4770 hc        1 T28      0.058700
     33 H101        3.0000    3.6100   -0.8620 hc        1 T28      0.058700
@<TRIPOS>BOND
     1    1    2 1   
     2    2    3 ar  
     3    2    7 ar  
     4    3    4 ar  
     5    3   21 1   
     6    4    5 ar  
     7    4    8 1   
     8    5    6 ar  
     9    5   10 1   
    10    6    7 ar  
    11    6   22 1   
    12    7   23 1   
    13    8    9 2   
    14    8   11 1   
    15    9   10 1   
    16    9   20 1   
    17   10   24 1   
    18   11   12 ar  
    19   11   17 ar  
    20   12   13 ar  
    21   13   14 1   
    22   13   15 ar  
    23   14   25 1   
    24   14   26 1   
    25   15   16 ar  
    26   16   17 ar  
    27   16   27 1   
    28   17   18 1   
    29   18   19 1   
    30   18   28 1   
    31   18   29 1   
    32   19   20 1   
    33   19   30 1   
    34   19   31 1   
    35   20   32 1   
    36   20   33 1   
@<TRIPOS>SUBSTRUCTURE
     1 T28         1 TEMP              0 ****  ****    0 ROOT
