@<TRIPOS>MOLECULE
T28
   33    36     1     0     0
SMALL
bcc


@<TRIPOS>ATOM
      1 BR1        -0.0180   -0.3040    0.1470 br        1 T28     -0.097100
      2 C12         1.8530   -0.1870    0.0830 ca        1 T28     -0.052900
      3 C6          2.5800   -0.1260    1.2670 ca        1 T28     -0.042000
      4 C2          3.9700   -0.0410    1.1930 ca        1 T28     -0.059800
      5 C5          4.6190   -0.0200   -0.0990 ca        1 T28     -0.043200
      6 C11         3.8690   -0.0800   -1.2840 ca        1 T28     -0.145000
      7 C17         2.4900   -0.1630   -1.1740 ca        1 T28     -0.090000
      8 C1          5.0280    0.0470    2.1750 cc        1 T28     -0.219000
      9 C4          6.2480    0.0960    1.4780 cd        1 T28     -0.015300
     10 N9          5.9980    0.0680    0.1020 na        1 T28     -0.180400
     11 C3          4.9200    0.1000    3.6220 ca        1 T28      0.579100
     12 N8          4.0000   -0.6700    4.2470 nb        1 T28     -0.747000
     13 C15         3.9690   -0.5990    5.6340 ca        1 T28      0.863900
     14 N20         2.9490   -1.2940    6.2940 nh        1 T28     -0.925500
     15 N19         4.8450    0.1570    6.4110 nb        1 T28     -0.752000
     16 C13         5.7210    0.9140    5.7380 ca        1 T28      0.467200
     17 C7          5.8100    0.9530    4.3330 ca        1 T28     -0.369900
     18 C14         6.7090    1.8980    3.6350 c3        1 T28     -0.013100
     19 C16         7.9120    1.2660    2.9620 c3        1 T28     -0.066400
     20 C10         7.6050    0.0750    2.0730 c3        1 T28     -0.027200
     21 H6          2.0860   -0.1500    2.2510 ha        1 T28      0.166000
     22 H11         4.3560   -0.0620   -2.2680 ha        1 T28      0.137000
     23 H17         1.8830   -0.2120   -2.0920 ha        1 T28      0.144000
     24 H1          6.6850    0.0550   -0.6040 hn        1 T28      0.301700
     25 H201        3.0850   -1.4630    7.2630 hn        1 T28      0.425300
     26 H202        2.5020   -2.0170    5.7800 hn        1 T28      0.425300
     27 H13         6.3950    1.5280    6.3650 h4        1 T28      0.023100
     28 H142        6.1090    2.4450    2.8550 hc        1 T28      0.053200
     29 H141        7.0830    2.6670    4.3650 hc        1 T28      0.053200
     30 H162        8.4180    2.0610    2.3500 hc        1 T28      0.044200
     31 H161        8.6460    0.9350    3.7440 hc        1 T28      0.044200
     32 H102        8.3950    0.0070    1.2760 hc        1 T28      0.058700
     33 H101        7.6770   -0.8670    2.6870 hc        1 T28      0.058700
@<TRIPOS>BOND
     1    1    2 1   
     2    2    3 ar  
     3    2    7 ar  
     4    3    4 ar  
     5    3   21 1   
     6    4    5 ar  
     7    4    8 1   
     8    5    6 ar  
     9    5   10 1   
    10    6    7 ar  
    11    6   22 1   
    12    7   23 1   
    13    8    9 2   
    14    8   11 1   
    15    9   10 1   
    16    9   20 1   
    17   10   24 1   
    18   11   12 ar  
    19   11   17 ar  
    20   12   13 ar  
    21   13   14 1   
    22   13   15 ar  
    23   14   25 1   
    24   14   26 1   
    25   15   16 ar  
    26   16   17 ar  
    27   16   27 1   
    28   17   18 1   
    29   18   19 1   
    30   18   28 1   
    31   18   29 1   
    32   19   20 1   
    33   19   30 1   
    34   19   31 1   
    35   20   32 1   
    36   20   33 1   
@<TRIPOS>SUBSTRUCTURE
     1 T28         1 TEMP              0 ****  ****    0 ROOT
