@<TRIPOS>MOLECULE
T28
   33    36     1     0     0
SMALL
bcc


@<TRIPOS>ATOM
      1 Br1        -0.0190   -0.3150    0.1510 br        1 T28     -0.097100
      2 C12         1.8510   -0.1910    0.0860 ca        1 T28     -0.052900
      3 C6          2.5790   -0.1310    1.2690 ca        1 T28     -0.042000
      4 C2          3.9690   -0.0400    1.1940 ca        1 T28     -0.059800
      5 C5          4.6160   -0.0150   -0.1000 ca        1 T28     -0.043200
      6 C11         3.8650   -0.0740   -1.2840 ca        1 T28     -0.145000
      7 C17         2.4870   -0.1620   -1.1720 ca        1 T28     -0.090000
      8 C1          5.0280    0.0490    2.1750 cc        1 T28     -0.219000
      9 C4          6.2470    0.1030    1.4760 cd        1 T28     -0.015300
     10 N9          5.9960    0.0780    0.1010 na        1 T28     -0.180400
     11 C3          4.9220    0.0970    3.6220 ca        1 T28      0.579100
     12 N8          4.0050   -0.6770    4.2460 nb        1 T28     -0.747000
     13 C15         3.9760   -0.6100    5.6330 ca        1 T28      0.863900
     14 N20         2.9580   -1.3100    6.2920 nv        1 T28     -0.925500
     15 N19         4.8500    0.1470    6.4110 nb        1 T28     -0.752000
     16 C13         5.7220    0.9090    5.7390 ca        1 T28      0.467200
     17 C7          5.8090    0.9520    4.3340 ca        1 T28     -0.369900
     18 C14         6.7050    1.9010    3.6370 c3        1 T28     -0.013100
     19 C16         7.9080    1.2750    2.9610 c3        1 T28     -0.066400
     20 C10         7.6050    0.0850    2.0700 c3        1 T28     -0.027200
     21 H6          2.0860   -0.1590    2.2530 ha        1 T28      0.166000
     22 H11         4.3520   -0.0520   -2.2680 ha        1 T28      0.137000
     23 H17         1.8790   -0.2110   -2.0900 ha        1 T28      0.144000
     24 H1          6.6810    0.0680   -0.6070 hn        1 T28      0.301700
     25 H201        3.0960   -1.4810    7.2610 hn        1 T28      0.425300
     26 H202        2.5130   -2.0330    5.7780 hn        1 T28      0.425300
     27 H13         6.3950    1.5240    6.3660 h4        1 T28      0.023100
     28 H142        6.1010    2.4480    2.8590 hc        1 T28      0.053200
     29 H141        7.0770    2.6700    4.3690 hc        1 T28      0.053200
     30 H162        8.6450    0.9450    3.7420 hc        1 T28      0.044200
     31 H161        8.4110    2.0740    2.3510 hc        1 T28      0.044200
     32 H102        7.6800   -0.8580    2.6820 hc        1 T28      0.058700
     33 H101        8.3940    0.0210    1.2720 hc        1 T28      0.058700
@<TRIPOS>BOND
     1    1    2 1   
     2    2    3 ar  
     3    2    7 ar  
     4    3    4 ar  
     5    3   21 1   
     6    4    5 ar  
     7    4    8 1   
     8    5    6 ar  
     9    5   10 1   
    10    6    7 ar  
    11    6   22 1   
    12    7   23 1   
    13    8    9 2   
    14    8   11 1   
    15    9   10 1   
    16    9   20 1   
    17   10   24 1   
    18   11   12 ar  
    19   11   17 ar  
    20   12   13 ar  
    21   13   14 1   
    22   13   15 ar  
    23   14   25 1   
    24   14   26 1   
    25   15   16 ar  
    26   16   17 ar  
    27   16   27 1   
    28   17   18 1   
    29   18   19 1   
    30   18   28 1   
    31   18   29 1   
    32   19   20 1   
    33   19   30 1   
    34   19   31 1   
    35   20   32 1   
    36   20   33 1   
@<TRIPOS>SUBSTRUCTURE
     1 T28         1 TEMP              0 ****  ****    0 ROOT
