@<TRIPOS>MOLECULE
T2A
   50    53     1     0     0
SMALL
bcc


@<TRIPOS>ATOM
      1 N1          0.0760   -0.0020    0.0900 na        1 T2A      0.128300
      2 C5          2.2740   -0.1140   -0.9620 cc        1 T2A      0.527200
      3 C6          1.5060    0.0760    0.2330 cc        1 T2A     -0.310600
      4 C7          1.7470    0.3250    1.6070 cd        1 T2A      0.100400
      5 C10        -1.8910    0.1870    1.6880 ca        1 T2A     -0.101900
      6 C13        -4.6060    0.1560    2.3460 ca        1 T2A     -0.115000
      7 C15        -2.8230    0.8030    0.8450 ca        1 T2A     -0.090500
      8 C20         0.2340    0.4770   -6.8010 ca        1 T2A      0.147100
      9 C21         1.3970   -0.2270   -7.1840 ca        1 T2A      0.038100
     10 C22         2.0060   -1.0860   -6.2470 ca        1 T2A      0.147100
     11 N2         -0.5270   -0.2350   -1.0750 nc        1 T2A     -0.574800
     12 C3          0.2960   -0.4420   -2.1530 cd        1 T2A      0.827900
     13 N4          1.7260   -0.3660   -2.1290 nd        1 T2A     -0.707000
     14 N8          0.5450    0.3950    2.2850 nd        1 T2A     -0.556300
     15 C9         -0.4630    0.2000    1.3770 cc        1 T2A      0.455400
     16 C11        -2.3210   -0.4380    2.8680 ca        1 T2A     -0.090500
     17 C12        -3.6770   -0.4520    3.1910 ca        1 T2A     -0.139500
     18 C14        -4.1780    0.7830    1.1770 ca        1 T2A     -0.139500
     19 C16         3.0700    0.4890    2.2380 c3        1 T2A     -0.024900
     20 N17        -0.3340   -0.8170   -3.3600 nh        1 T2A     -0.692300
     21 C18         0.2910   -0.5760   -4.6120 ca        1 T2A      0.176600
     22 C19        -0.3210    0.3030   -5.5300 ca        1 T2A     -0.229000
     23 C23         1.4580   -1.2720   -4.9730 ca        1 T2A     -0.229000
     24 C25         3.7350   -2.6660   -5.8040 c3        1 T2A      0.110200
     25 O26         1.8380   -0.1430   -8.4900 os        1 T2A     -0.308900
     26 C27         3.0530    0.5950   -8.6410 c3        1 T2A      0.114700
     27 O28        -0.2740    1.3310   -7.7560 os        1 T2A     -0.310900
     28 C29        -1.5390    1.9170   -7.4690 c3        1 T2A      0.110200
     29 H5          3.3770   -0.0460   -0.9140 h4        1 T2A      0.042100
     30 H13        -5.6760    0.1410    2.6040 ha        1 T2A      0.133000
     31 H15        -2.4970    1.3110   -0.0740 ha        1 T2A      0.147000
     32 H11        -1.5890   -0.9140    3.5390 ha        1 T2A      0.147000
     33 H12        -4.0120   -0.9430    4.1160 ha        1 T2A      0.134000
     34 H14        -4.9080    1.2670    0.5130 ha        1 T2A      0.134000
     35 H16         3.2260   -0.2910    3.0250 hc        1 T2A      0.054367
     36 H16A        3.8750    0.3920    1.4690 hc        1 T2A      0.054367
     37 H16B        3.1500    1.4950    2.7220 hc        1 T2A      0.054367
     38 HN17       -1.3230   -0.6550   -3.3720 hn        1 T2A      0.435800
     39 H19        -1.2300    0.8530   -5.2490 ha        1 T2A      0.151500
     40 H23         1.9350   -1.9590   -4.2590 ha        1 T2A      0.151500
     41 H25         3.0060   -3.4840   -5.5870 h1        1 T2A      0.047033
     42 H25A        4.6070   -3.0570   -6.3870 h1        1 T2A      0.047033
     43 H25B        4.0780   -2.1820   -4.8570 h1        1 T2A      0.047033
     44 H27         3.2560    0.5400   -9.7390 h1        1 T2A      0.042033
     45 H27A        2.9060    1.6520   -8.3160 h1        1 T2A      0.042033
     46 H27B        3.8740    0.1130   -8.0570 h1        1 T2A      0.042033
     47 H29        -1.4600    2.6150   -6.6000 h1        1 T2A      0.047033
     48 H29A       -2.3090    1.1320   -7.2750 h1        1 T2A      0.047033
     49 H29B       -1.7780    2.4820   -8.4060 h1        1 T2A      0.047033
     50 O24         3.1640   -1.6990   -6.6810 os        1 T2A     -0.310900
@<TRIPOS>BOND
     1    1    3 1   
     2    1   11 1   
     3    1   15 1   
     4    2    3 1   
     5    2   13 2   
     6    2   29 1   
     7    3    4 2   
     8    4   14 1   
     9    4   19 1   
    10    5    7 ar  
    11    5   15 1   
    12    5   16 ar  
    13    6   17 ar  
    14    6   18 ar  
    15    6   30 1   
    16    7   18 ar  
    17    7   31 1   
    18    8    9 ar  
    19    8   22 ar  
    20    8   27 1   
    21    9   10 ar  
    22    9   25 1   
    23   10   23 ar  
    24   10   50 1   
    25   11   12 2   
    26   12   13 1   
    27   12   20 1   
    28   14   15 2   
    29   16   17 ar  
    30   16   32 1   
    31   17   33 1   
    32   18   34 1   
    33   19   35 1   
    34   19   36 1   
    35   19   37 1   
    36   20   21 1   
    37   20   38 1   
    38   21   22 ar  
    39   21   23 ar  
    40   22   39 1   
    41   23   40 1   
    42   24   41 1   
    43   24   42 1   
    44   24   43 1   
    45   24   50 1   
    46   25   26 1   
    47   26   44 1   
    48   26   45 1   
    49   26   46 1   
    50   27   28 1   
    51   28   47 1   
    52   28   48 1   
    53   28   49 1   
@<TRIPOS>SUBSTRUCTURE
     1 T2A         1 TEMP              0 ****  ****    0 ROOT
