@<TRIPOS>MOLECULE
T2A
   50    53     1     0     0
SMALL
bcc


@<TRIPOS>ATOM
      1 N1         -2.5900    0.6140   -0.2560 na        1 T2A      0.128300
      2 C5         -0.9150    2.3560   -0.5850 cc        1 T2A      0.527200
      3 C6         -2.2870    1.9550   -0.6810 cc        1 T2A     -0.310600
      4 C7         -3.5210    2.5230   -1.0880 cd        1 T2A      0.100400
      5 C10        -4.7150   -0.7730   -0.0980 ca        1 T2A     -0.101900
      6 C13        -6.1740   -3.0730    0.5230 ca        1 T2A     -0.115000
      7 C15        -4.1960   -2.0360   -0.4080 ca        1 T2A     -0.090500
      8 C20         4.0170   -1.4030   -0.2120 ca        1 T2A      0.147100
      9 C21         4.7370   -0.2690    0.2230 ca        1 T2A      0.038100
     10 C22         4.0310    0.7850    0.8360 ca        1 T2A      0.147100
     11 N2         -1.6670   -0.2290    0.2050 nc        1 T2A     -0.574800
     12 C3         -0.3900    0.2620    0.2960 cd        1 T2A      0.826900
     13 N4          0.0260    1.5690   -0.1180 nd        1 T2A     -0.707000
     14 N8         -4.5350    1.5970   -0.9250 nd        1 T2A     -0.556300
     15 C9         -3.9800    0.4480   -0.4250 cc        1 T2A      0.455400
     16 C11        -5.9710   -0.6630    0.5150 ca        1 T2A     -0.090500
     17 C12        -6.6940   -1.8140    0.8240 ca        1 T2A     -0.139500
     18 C14        -4.9280   -3.1810   -0.0930 ca        1 T2A     -0.139500
     19 C16        -3.7150    3.8870   -1.6100 c3        1 T2A     -0.024900
     20 N17         0.5650   -0.5820    0.9040 nh        1 T2A     -0.692300
     21 C18         1.9490   -0.4380    0.6220 ca        1 T2A      0.176600
     22 C19         2.6380   -1.4940   -0.0130 ca        1 T2A     -0.229000
     23 C23         2.6490    0.7040    1.0460 ca        1 T2A     -0.229000
     24 C25         4.1360    2.9050    1.9210 c3        1 T2A      0.110200
     25 O26         6.1160   -0.2710    0.1400 os        1 T2A     -0.308900
     26 C27         6.6330    0.6200   -0.8510 c3        1 T2A      0.114700
     27 O28         4.7720   -2.3680   -0.8440 os        1 T2A     -0.310900
     28 C29         4.1120   -3.5960   -1.1340 c3        1 T2A      0.110200
     29 H5         -0.6230    3.3700   -0.9160 h4        1 T2A      0.042100
     30 H13        -6.7470   -3.9790    0.7700 ha        1 T2A      0.133000
     31 H15        -3.2190   -2.1350   -0.9030 ha        1 T2A      0.147000
     32 H11        -6.3860    0.3290    0.7490 ha        1 T2A      0.147000
     33 H12        -7.6790   -1.7260    1.3060 ha        1 T2A      0.134000
     34 H14        -4.5180   -4.1720   -0.3360 ha        1 T2A      0.134000
     35 H16        -4.1470    3.8530   -2.6420 hc        1 T2A      0.054367
     36 H16A       -4.4190    4.4600   -0.9550 hc        1 T2A      0.054367
     37 H16B       -2.7370    4.4260   -1.6460 hc        1 T2A      0.054367
     38 HN17        0.2740   -1.5390    0.9830 hn        1 T2A      0.435800
     39 H19         2.0920   -2.3860   -0.3510 ha        1 T2A      0.151500
     40 H23         2.1150    1.5280    1.5420 ha        1 T2A      0.151500
     41 H25         3.3410    3.3810    1.2970 h1        1 T2A      0.047033
     42 H25A        3.7040    2.5020    2.8690 h1        1 T2A      0.047033
     43 H25B        4.9580    3.6330    2.1390 h1        1 T2A      0.047033
     44 H27         6.2810    0.3170   -1.8660 h1        1 T2A      0.042033
     45 H27A        6.3290    1.6710   -0.6250 h1        1 T2A      0.042033
     46 H27B        7.7410    0.4960   -0.7600 h1        1 T2A      0.042033
     47 H29         3.6890   -4.0510   -0.2070 h1        1 T2A      0.047033
     48 H29A        3.3110   -3.4390   -1.8970 h1        1 T2A      0.047033
     49 H29B        4.9320   -4.2350   -1.5510 h1        1 T2A      0.047033
     50 O24         4.7970    1.8770    1.1900 os        1 T2A     -0.310900
@<TRIPOS>BOND
     1    1    3 1   
     2    1   11 1   
     3    1   15 1   
     4    2    3 1   
     5    2   13 2   
     6    2   29 1   
     7    3    4 2   
     8    4   14 1   
     9    4   19 1   
    10    5    7 ar  
    11    5   15 1   
    12    5   16 ar  
    13    6   17 ar  
    14    6   18 ar  
    15    6   30 1   
    16    7   18 ar  
    17    7   31 1   
    18    8    9 ar  
    19    8   22 ar  
    20    8   27 1   
    21    9   10 ar  
    22    9   25 1   
    23   10   23 ar  
    24   10   50 1   
    25   11   12 2   
    26   12   13 1   
    27   12   20 1   
    28   14   15 2   
    29   16   17 ar  
    30   16   32 1   
    31   17   33 1   
    32   18   34 1   
    33   19   35 1   
    34   19   36 1   
    35   19   37 1   
    36   20   21 1   
    37   20   38 1   
    38   21   22 ar  
    39   21   23 ar  
    40   22   39 1   
    41   23   40 1   
    42   24   41 1   
    43   24   42 1   
    44   24   43 1   
    45   24   50 1   
    46   25   26 1   
    47   26   44 1   
    48   26   45 1   
    49   26   46 1   
    50   27   28 1   
    51   28   47 1   
    52   28   48 1   
    53   28   49 1   
@<TRIPOS>SUBSTRUCTURE
     1 T2A         1 TEMP              0 ****  ****    0 ROOT
