@<TRIPOS>MOLECULE
T2B
   37    38     1     0     0
SMALL
bcc


@<TRIPOS>ATOM
      1 O4         -0.1830   -0.0160    0.2130 oh        1 T2B     -0.632800
      2 C17         1.2170    0.0910    0.0360 c3        1 T2B      0.110400
      3 C15         1.8390    0.1440    1.4450 c3        1 T2B      0.114500
      4 N1          1.3170   -0.9720    2.3070 nz        1 T2B     -0.833600
      5 C13         3.3690    0.1060    1.3450 c3        1 T2B     -0.052100
      6 C1          3.9970    0.0530    2.6910 ca        1 T2B     -0.186300
      7 C11         4.3780   -1.1770    3.2410 ca        1 T2B     -0.080500
      8 C9          4.9740   -1.2450    4.4970 ca        1 T2B     -0.004100
      9 I3          5.4680   -3.0820    5.1860 i         1 T2B     -0.064400
     10 C7          5.2000   -0.0520    5.2190 ca        1 T2B      0.207100
     11 C5          4.8250    1.1900    4.6740 ca        1 T2B     -0.004100
     12 I1          5.0320    2.9680    5.6150 i         1 T2B     -0.064400
     13 C3          4.2390    1.2270    3.4080 ca        1 T2B     -0.080500
     14 O2          5.6660   -0.1960    6.5120 os        1 T2B     -0.239200
     15 C2          6.8720    0.4480    6.8290 ca        1 T2B      0.035100
     16 C12         6.9560    0.9570    8.1350 ca        1 T2B     -0.100000
     17 C10         8.1610    1.4910    8.5730 ca        1 T2B     -0.164000
     18 C8          9.2640    1.5170    7.6980 ca        1 T2B      0.134100
     19 O1         10.4170    2.0700    8.1980 oh        1 T2B     -0.483100
     20 C6          9.1700    1.0050    6.3960 ca        1 T2B     -0.164000
     21 C4          7.9650    0.4590    5.9600 ca        1 T2B     -0.100000
     22 H1         -0.6130    0.3130   -0.5880 ho        1 T2B      0.457000
     23 H2          1.5000    1.0320   -0.5060 h1        1 T2B      0.075200
     24 H3          1.5920   -0.8000   -0.5370 h1        1 T2B      0.075200
     25 H4          1.5160    1.1030    1.9530 hx        1 T2B      0.120700
     26 H5          0.2980   -0.8750    2.3930 hn        1 T2B      0.466133
     27 H6          1.7640   -0.9280    3.2300 hn        1 T2B      0.466133
     28 H8          3.6890    1.0380    0.8020 hc        1 T2B      0.093700
     29 H9          3.6950   -0.7700    0.7230 hc        1 T2B      0.093700
     30 H10         4.2360   -2.0990    2.6540 ha        1 T2B      0.148500
     31 H11         3.9620    2.1980    2.9610 ha        1 T2B      0.148500
     32 H12         6.0800    0.9160    8.7990 ha        1 T2B      0.150500
     33 H13         8.2670    1.8930    9.5910 ha        1 T2B      0.157000
     34 H14        11.1060    2.0030    7.5190 ho        1 T2B      0.428000
     35 H15        10.0410    1.0260    5.7250 ha        1 T2B      0.157000
     36 H16         7.8780    0.0440    4.9450 ha        1 T2B      0.150500
     37 H131        1.5270   -1.8750    1.8740 hn        1 T2B      0.466133
@<TRIPOS>BOND
     1    1    2 1   
     2    1   22 1   
     3    2    3 1   
     4    2   23 1   
     5    2   24 1   
     6    3    4 1   
     7    3    5 1   
     8    3   25 1   
     9    4   26 1   
    10    4   27 1   
    11    4   37 1   
    12    5    6 1   
    13    5   28 1   
    14    5   29 1   
    15    6    7 ar  
    16    6   13 ar  
    17    7    8 ar  
    18    7   30 1   
    19    8    9 1   
    20    8   10 ar  
    21   10   11 ar  
    22   10   14 1   
    23   11   12 1   
    24   11   13 ar  
    25   13   31 1   
    26   14   15 1   
    27   15   16 ar  
    28   15   21 ar  
    29   16   17 ar  
    30   16   32 1   
    31   17   18 ar  
    32   17   33 1   
    33   18   19 1   
    34   18   20 ar  
    35   19   34 1   
    36   20   21 ar  
    37   20   35 1   
    38   21   36 1   
@<TRIPOS>SUBSTRUCTURE
     1 T2B         1 TEMP              0 ****  ****    0 ROOT
