@<TRIPOS>MOLECULE
T2B
   37    38     1     0     0
SMALL
bcc


@<TRIPOS>ATOM
      1 O4         -0.1450    0.1100    0.1620 oh        1 T2B     -0.632800
      2 C17         1.2610    0.1190    0.0000 c3        1 T2B      0.110400
      3 C15         1.8690    0.1870    1.4150 c3        1 T2B      0.114500
      4 N1          1.2640   -0.8570    2.3120 n4        1 T2B     -0.833600
      5 C13         3.3930    0.0460    1.3380 c3        1 T2B     -0.052100
      6 C1          4.0020    0.0050    2.6940 ca        1 T2B     -0.186300
      7 C11         4.2950   -1.2240    3.2960 ca        1 T2B     -0.080500
      8 C9          4.8700   -1.2810    4.5620 ca        1 T2B     -0.004100
      9 I3          5.2350   -3.1170    5.3290 i         1 T2B     -0.064400
     10 C7          5.1660   -0.0780    5.2400 ca        1 T2B      0.207100
     11 C5          4.8790    1.1630    4.6430 ca        1 T2B     -0.004100
     12 I1          5.1920    2.9600    5.5160 i         1 T2B     -0.064400
     13 C3          4.3120    1.1880    3.3680 ca        1 T2B     -0.080500
     14 O2          5.6070   -0.2000    6.5450 os        1 T2B     -0.239200
     15 C2          6.8490    0.3760    6.8530 ca        1 T2B      0.035100
     16 C12         6.9510    0.9300    8.1390 ca        1 T2B     -0.100000
     17 C10         8.1830    1.4010    8.5730 ca        1 T2B     -0.164000
     18 C8          9.2960    1.3210    7.7140 ca        1 T2B      0.134100
     19 O1         10.4760    1.8180    8.2070 oh        1 T2B     -0.483100
     20 C6          9.1830    0.7650    6.4310 ca        1 T2B     -0.164000
     21 C4          7.9500    0.2820    5.9990 ca        1 T2B     -0.100000
     22 H1         -0.5430    0.4350   -0.6570 ho        1 T2B      0.457000
     23 H2          1.5830   -0.8170   -0.5320 h1        1 T2B      0.075200
     24 H3          1.6110    1.0170   -0.5740 h1        1 T2B      0.075200
     25 H4          1.6030    1.1850    1.8810 hx        1 T2B      0.120700
     26 H5          0.2530   -0.6910    2.3800 hn        1 T2B      0.466133
     27 H6          1.7030   -0.8060    3.2390 hn        1 T2B      0.466133
     28 H8          3.6680   -0.8740    0.7540 hc        1 T2B      0.093700
     29 H9          3.7810    0.9320    0.7630 hc        1 T2B      0.093700
     30 H10         4.0990   -2.1580    2.7430 ha        1 T2B      0.148500
     31 H11         4.1050    2.1560    2.8800 ha        1 T2B      0.148500
     32 H12         6.0670    0.9720    8.7920 ha        1 T2B      0.150500
     33 H13         8.3040    1.8360    9.5760 ha        1 T2B      0.157000
     34 H14        11.1670    1.6790    7.5420 ho        1 T2B      0.428000
     35 H15        10.0610    0.7030    5.7720 ha        1 T2B      0.157000
     36 H16         7.8480   -0.1670    5.0010 ha        1 T2B      0.150500
     37 H131        1.4200   -1.7880    1.9180 hn        1 T2B      0.466133
@<TRIPOS>BOND
     1    1    2 1   
     2    1   22 1   
     3    2    3 1   
     4    2   23 1   
     5    2   24 1   
     6    3    4 1   
     7    3    5 1   
     8    3   25 1   
     9    4   26 1   
    10    4   27 1   
    11    4   37 1   
    12    5    6 1   
    13    5   28 1   
    14    5   29 1   
    15    6    7 ar  
    16    6   13 ar  
    17    7    8 ar  
    18    7   30 1   
    19    8    9 1   
    20    8   10 ar  
    21   10   11 ar  
    22   10   14 1   
    23   11   12 1   
    24   11   13 ar  
    25   13   31 1   
    26   14   15 1   
    27   15   16 ar  
    28   15   21 ar  
    29   16   17 ar  
    30   16   32 1   
    31   17   18 ar  
    32   17   33 1   
    33   18   19 1   
    34   18   20 ar  
    35   19   34 1   
    36   20   21 ar  
    37   20   35 1   
    38   21   36 1   
@<TRIPOS>SUBSTRUCTURE
     1 T2B         1 TEMP              0 ****  ****    0 ROOT
