@<TRIPOS>MOLECULE
T2B
   37    38     1     0     0
SMALL
bcc


@<TRIPOS>ATOM
      1 O4         -0.1110   -0.3650    0.0830 oh        1 T2B     -0.632800
      2 C17         1.3000   -0.3590   -0.0330 c3        1 T2B      0.110400
      3 C15         1.8560    0.0500    1.3450 c3        1 T2B      0.115500
      4 N1          1.2410   -0.7750    2.4410 n4        1 T2B     -0.831600
      5 C13         3.3840   -0.0600    1.3490 c3        1 T2B     -0.053100
      6 C1          3.9480    0.2020    2.6990 ca        1 T2B     -0.192300
      7 C11         4.5660   -0.8230    3.4190 ca        1 T2B     -0.077500
      8 C9          5.1120   -0.5890    4.6810 ca        1 T2B     -0.004100
      9 I3          5.8990   -2.1920    5.6290 i         1 T2B     -0.064900
     10 C7          5.0620    0.7110    5.2180 ca        1 T2B      0.206100
     11 C5          4.4520    1.7590    4.4940 ca        1 T2B     -0.004100
     12 I1          4.3170    3.6590    5.1780 i         1 T2B     -0.064900
     13 C3          3.9070    1.4920    3.2420 ca        1 T2B     -0.077500
     14 O2          5.4670    1.0000    6.5080 os        1 T2B     -0.241200
     15 C2          6.8320    0.8350    6.7930 ca        1 T2B      0.037100
     16 C12         7.1270    0.4350    8.1020 ca        1 T2B     -0.102000
     17 C10         8.4600    0.3700    8.4990 ca        1 T2B     -0.162500
     18 C8          9.4730    0.6950    7.5850 ca        1 T2B      0.132100
     19 O1         10.8070    0.6420    7.9040 oh        1 T2B     -0.485100
     20 C6          9.1670    1.0950    6.2710 ca        1 T2B     -0.162500
     21 C4          7.8360    1.1710    5.8770 ca        1 T2B     -0.102000
     22 H1         -0.4840   -0.2450   -0.8010 ho        1 T2B      0.457000
     23 H2          1.6560    0.3900   -0.7890 h1        1 T2B      0.075200
     24 H3          1.6560   -1.3850   -0.3230 h1        1 T2B      0.075200
     25 H4          1.5520    1.1200    1.5600 hx        1 T2B      0.119700
     26 H5          1.4510   -1.7660    2.2930 hn        1 T2B      0.466133
     27 H6          1.6260   -0.4800    3.3460 hn        1 T2B      0.466133
     28 H8          3.6990   -1.0720    0.9770 hc        1 T2B      0.093700
     29 H9          3.7740    0.7000    0.6160 hc        1 T2B      0.093700
     30 H10         4.6370   -1.8310    2.9740 ha        1 T2B      0.150500
     31 H11         3.4530    2.3090    2.6550 ha        1 T2B      0.150500
     32 H12         6.3150    0.1930    8.8030 ha        1 T2B      0.150000
     33 H13         8.7130    0.0660    9.5250 ha        1 T2B      0.157000
     34 H14        10.8880    0.3810    8.8340 ho        1 T2B      0.429000
     35 H15         9.9810    1.3480    5.5770 ha        1 T2B      0.157000
     36 H16         7.5780    1.4930    4.8580 ha        1 T2B      0.150000
     37 H131        0.2220   -0.6450    2.4230 hn        1 T2B      0.466133
@<TRIPOS>BOND
     1    1    2 1   
     2    1   22 1   
     3    2    3 1   
     4    2   23 1   
     5    2   24 1   
     6    3    4 1   
     7    3    5 1   
     8    3   25 1   
     9    4   26 1   
    10    4   27 1   
    11    4   37 1   
    12    5    6 1   
    13    5   28 1   
    14    5   29 1   
    15    6    7 ar  
    16    6   13 ar  
    17    7    8 ar  
    18    7   30 1   
    19    8    9 1   
    20    8   10 ar  
    21   10   11 ar  
    22   10   14 1   
    23   11   12 1   
    24   11   13 ar  
    25   13   31 1   
    26   14   15 1   
    27   15   16 ar  
    28   15   21 ar  
    29   16   17 ar  
    30   16   32 1   
    31   17   18 ar  
    32   17   33 1   
    33   18   19 1   
    34   18   20 ar  
    35   19   34 1   
    36   20   21 ar  
    37   20   35 1   
    38   21   36 1   
@<TRIPOS>SUBSTRUCTURE
     1 T2B         1 TEMP              0 ****  ****    0 ROOT
