@<TRIPOS>MOLECULE
T2D
   22    23     1     0     0
SMALL
bcc


@<TRIPOS>ATOM
      1 C1          0.1370   -0.4460   -0.0580 ca        1 T2D     -0.158000
      2 C2          1.5180   -0.5190    0.0990 ca        1 T2D     -0.104500
      3 C3          2.1230   -0.0810    1.2750 ca        1 T2D     -0.139000
      4 C4          1.3360    0.4290    2.3070 ca        1 T2D     -0.104500
      5 C5         -0.0480    0.5010    2.1760 ca        1 T2D     -0.158000
      6 C6         -0.6670    0.0700    0.9800 ca        1 T2D      0.163600
      7 N7         -2.0630    0.1670    0.8380 nh        1 T2D     -0.684900
      8 S8         -3.0530    1.3760    1.4110 s6        1 T2D      1.597500
      9 N9         -4.4790    0.6320    0.9720 n         1 T2D     -0.679300
     10 C10        -4.2950   -0.5830    0.3060 c         1 T2D      0.690500
     11 C11        -2.7860   -0.8930    0.1700 c3        1 T2D      0.130800
     12 O12        -5.1940   -1.3100   -0.1180 o         1 T2D     -0.559500
     13 O13        -2.9730    1.5010    2.8020 o         1 T2D     -0.630800
     14 O14        -2.8950    2.5680    0.7020 o         1 T2D     -0.630800
     15 H1         -0.3180   -0.7930   -0.9980 ha        1 T2D      0.148500
     16 H2          2.1330   -0.9240   -0.7190 ha        1 T2D      0.139000
     17 H3          3.2150   -0.1380    1.3890 ha        1 T2D      0.139000
     18 H4          1.8070    0.7740    3.2400 ha        1 T2D      0.139000
     19 H5         -0.6500    0.8960    3.0130 ha        1 T2D      0.148500
     20 H9         -5.4000    0.9560    1.1330 hn        1 T2D      0.364500
     21 H111       -2.5750   -1.8950    0.6350 h1        1 T2D      0.094200
     22 H112       -2.5330   -0.9450   -0.9260 h1        1 T2D      0.094200
@<TRIPOS>BOND
     1    1    2 ar  
     2    1    6 ar  
     3    1   15 1   
     4    2    3 ar  
     5    2   16 1   
     6    3    4 ar  
     7    3   17 1   
     8    4    5 ar  
     9    4   18 1   
    10    5    6 ar  
    11    5   19 1   
    12    6    7 1   
    13    7    8 1   
    14    7   11 1   
    15    8    9 1   
    16    8   13 2   
    17    8   14 2   
    18    9   10 1   
    19    9   20 1   
    20   10   11 1   
    21   10   12 2   
    22   11   21 1   
    23   11   22 1   
@<TRIPOS>SUBSTRUCTURE
     1 T2D         1 TEMP              0 ****  ****    0 ROOT
