@<TRIPOS>MOLECULE
T2D
   22    19     1     0     0
SMALL
bcc


@<TRIPOS>ATOM
      1 C1          1.2690    0.0730   -1.2810 c1        1 T2D     -0.109500
      2 C2          2.6550    0.0730   -1.2810 c1        1 T2D     -0.066750
      3 C3          3.3480    0.0730   -0.0810 c1        1 T2D     -0.066750
      4 C4          2.6550    0.0730    1.1200 c1        1 T2D     -0.066750
      5 C5          1.2690    0.0730    1.1200 c1        1 T2D     -0.066750
      6 C6          0.5760    0.0730   -0.0810 c1        1 T2D      0.137800
      7 N7         -0.8430    0.0730   -0.0810 n3        1 T2D     -0.641900
      8 S8         -1.6320    1.1560   -0.1510 s4        1 T2D      1.687700
      9 N9         -3.0400    0.5910    0.4890 n2        1 T2D     -1.102400
     10 C10        -2.9080   -0.9350    0.5880 c2        1 T2D      0.613300
     11 C11        -1.8260   -1.2780   -0.1630 c3        1 T2D      0.130800
     12 O12        -3.4790   -1.6500    1.3880 o         1 T2D     -0.549300
     13 O13        -1.1010    2.2560    0.6070 o         1 T2D     -0.518400
     14 O14        -1.8250    1.5510   -1.5190 o         1 T2D     -0.518400
     15 H1          0.7810    0.0730   -2.1260 ha        1 T2D      0.103500
     16 H2          3.1430    0.0730   -2.1260 ha        1 T2D      0.080750
     17 H3          4.3240    0.0730   -0.0810 ha        1 T2D      0.080750
     18 H4          3.1430    0.0730    1.9650 ha        1 T2D      0.080750
     19 H5          0.7810    0.0730    1.9650 ha        1 T2D      0.080750
     20 H9         -3.8050    1.0720    0.6090 hn        1 T2D      0.522400
     21 H111       -2.1610   -1.5880   -1.0260 h1        1 T2D      0.094200
     22 H112       -1.3190   -2.0530    0.1460 h1        1 T2D      0.094200
@<TRIPOS>BOND
     1    1    6 3   
     2    1   15 1   
     3    2    3 3   
     4    2   16 1   
     5    3   17 1   
     6    4    5 3   
     7    4   18 1   
     8    5   19 1   
     9    6    7 1   
    10    7    8 1   
    11    7   11 1   
    12    8   13 1   
    13    8   14 1   
    14    9   10 2   
    15    9   20 1   
    16   10   11 1   
    17   10   12 1   
    18   11   21 1   
    19   11   22 1   
@<TRIPOS>SUBSTRUCTURE
     1 T2D         1 TEMP              0 ****  ****    0 ROOT
