@<TRIPOS>MOLECULE
T2D
   22    23     1     0     0
SMALL
bcc


@<TRIPOS>ATOM
      1 C1         -1.0710   -1.4230    2.5140 ca        1 T2D     -0.158000
      2 C2         -2.0580   -1.7840    3.4280 ca        1 T2D     -0.104500
      3 C3         -2.9560   -2.8080    3.1350 ca        1 T2D     -0.139000
      4 C4         -2.8600   -3.4820    1.9180 ca        1 T2D     -0.104500
      5 C5         -1.8750   -3.1460    0.9950 ca        1 T2D     -0.158000
      6 C6         -0.9680   -2.0990    1.2800 ca        1 T2D      0.163600
      7 N7          0.0120   -1.7420    0.3370 nh        1 T2D     -0.684900
      8 S8         -0.1440   -1.7200   -1.3200 s6        1 T2D      1.597500
      9 N9          1.4580   -1.3730   -1.6250 n         1 T2D     -0.679300
     10 C10         2.2230   -1.2000   -0.4680 c         1 T2D      0.690500
     11 C11         1.3400   -1.3870    0.7880 c3        1 T2D      0.130800
     12 O12         3.4250   -0.9330   -0.4380 o         1 T2D     -0.559500
     13 O13        -0.4790   -2.9800   -1.8290 o         1 T2D     -0.630800
     14 O14        -0.9550   -0.6720   -1.7600 o         1 T2D     -0.630800
     15 H1         -0.3760   -0.6080    2.7660 ha        1 T2D      0.148500
     16 H2         -2.1270   -1.2490    4.3870 ha        1 T2D      0.139000
     17 H3         -3.7360   -3.0840    3.8590 ha        1 T2D      0.139000
     18 H4         -3.5650   -4.2930    1.6810 ha        1 T2D      0.139000
     19 H5         -1.8110   -3.7040    0.0440 ha        1 T2D      0.148500
     20 H9          1.8950   -1.2850   -2.5080 hn        1 T2D      0.364500
     21 H111        1.7870   -2.1950    1.4320 h1        1 T2D      0.094200
     22 H112        1.3410   -0.4220    1.3680 h1        1 T2D      0.094200
@<TRIPOS>BOND
     1    1    2 ar  
     2    1    6 ar  
     3    1   15 1   
     4    2    3 ar  
     5    2   16 1   
     6    3    4 ar  
     7    3   17 1   
     8    4    5 ar  
     9    4   18 1   
    10    5    6 ar  
    11    5   19 1   
    12    6    7 1   
    13    7    8 1   
    14    7   11 1   
    15    8    9 1   
    16    8   13 2   
    17    8   14 2   
    18    9   10 1   
    19    9   20 1   
    20   10   11 1   
    21   10   12 2   
    22   11   21 1   
    23   11   22 1   
@<TRIPOS>SUBSTRUCTURE
     1 T2D         1 TEMP              0 ****  ****    0 ROOT
