@<TRIPOS>MOLECULE
T2D
   22    23     1     0     0
SMALL
bcc


@<TRIPOS>ATOM
      1 C1          0.1410   -0.4480   -0.0420 ca        1 T2D     -0.157500
      2 C2          1.5210   -0.5270    0.1280 ca        1 T2D     -0.104500
      3 C3          2.1160   -0.0890    1.3090 ca        1 T2D     -0.139000
      4 C4          1.3210    0.4260    2.3320 ca        1 T2D     -0.104500
      5 C5         -0.0600    0.5040    2.1880 ca        1 T2D     -0.157500
      6 C6         -0.6700    0.0730    0.9870 ca        1 T2D      0.163600
      7 N7         -2.0640    0.1750    0.8320 nh        1 T2D     -0.684900
      8 S8         -3.0540    1.3910    1.3890 s6        1 T2D      1.597500
      9 N9         -4.4790    0.6510    0.9400 n         1 T2D     -0.679300
     10 C10        -4.2950   -0.5680    0.2830 c         1 T2D      0.690500
     11 C11        -2.7860   -0.8860    0.1630 c3        1 T2D      0.130800
     12 O12        -5.1930   -1.2940   -0.1460 o         1 T2D     -0.559500
     13 O13        -2.9870    1.5230    2.7790 o         1 T2D     -0.630800
     14 O14        -2.8840    2.5790    0.6750 o         1 T2D     -0.630800
     15 H1         -0.3060   -0.7950   -0.9860 ha        1 T2D      0.148500
     16 H2          2.1420   -0.9350   -0.6830 ha        1 T2D      0.139000
     17 H3          3.2070   -0.1490    1.4340 ha        1 T2D      0.139000
     18 H4          1.7850    0.7720    3.2690 ha        1 T2D      0.139000
     19 H5         -0.6690    0.9030    3.0180 ha        1 T2D      0.148500
     20 H9         -5.4000    0.9810    1.0900 hn        1 T2D      0.364500
     21 H111       -2.5220   -0.9450   -0.9300 h1        1 T2D      0.094200
     22 H112       -2.5840   -1.8860    0.6370 h1        1 T2D      0.094200
@<TRIPOS>BOND
     1    1    2 ar  
     2    1    6 ar  
     3    1   15 1   
     4    2    3 ar  
     5    2   16 1   
     6    3    4 ar  
     7    3   17 1   
     8    4    5 ar  
     9    4   18 1   
    10    5    6 ar  
    11    5   19 1   
    12    6    7 1   
    13    7    8 1   
    14    7   11 1   
    15    8    9 1   
    16    8   13 2   
    17    8   14 2   
    18    9   10 1   
    19    9   20 1   
    20   10   11 1   
    21   10   12 2   
    22   11   21 1   
    23   11   22 1   
@<TRIPOS>SUBSTRUCTURE
     1 T2D         1 TEMP              0 ****  ****    0 ROOT
