@<TRIPOS>MOLECULE
T2D
   22    23     1     0     0
SMALL
bcc


@<TRIPOS>ATOM
      1 C1          0.1350   -0.4740   -0.0370 ca        1 T2D     -0.157500
      2 C2          1.5140   -0.5610    0.1330 ca        1 T2D     -0.104500
      3 C3          2.1150   -0.1120    1.3060 ca        1 T2D     -0.139000
      4 C4          1.3260    0.4240    2.3230 ca        1 T2D     -0.104500
      5 C5         -0.0550    0.5110    2.1800 ca        1 T2D     -0.157500
      6 C6         -0.6700    0.0690    0.9870 ca        1 T2D      0.163600
      7 N7         -2.0640    0.1800    0.8310 nh        1 T2D     -0.684900
      8 S8         -3.0430    1.4120    1.3740 s6        1 T2D      1.597500
      9 N9         -4.4750    0.6780    0.9370 ns        1 T2D     -0.679300
     10 C10        -4.3010   -0.5510    0.2950 c         1 T2D      0.690500
     11 C11        -2.7950   -0.8830    0.1770 c3        1 T2D      0.130800
     12 O12        -5.2050   -1.2750   -0.1230 o         1 T2D     -0.559500
     13 O13        -2.9720    1.5610    2.7630 o         1 T2D     -0.630800
     14 O14        -2.8640    2.5890    0.6440 o         1 T2D     -0.630800
     15 H1         -0.3160   -0.8300   -0.9750 ha        1 T2D      0.148500
     16 H2          2.1310   -0.9870   -0.6740 ha        1 T2D      0.139000
     17 H3          3.2060   -0.1800    1.4310 ha        1 T2D      0.139000
     18 H4          1.7940    0.7790    3.2550 ha        1 T2D      0.139000
     19 H5         -0.6590    0.9260    3.0060 ha        1 T2D      0.148500
     20 H9         -5.3920    1.0170    1.0840 hn        1 T2D      0.364500
     21 H111       -2.6010   -1.8790    0.6630 h1        1 T2D      0.094200
     22 H112       -2.5340   -0.9590   -0.9150 h1        1 T2D      0.094200
@<TRIPOS>BOND
     1    1    2 ar  
     2    1    6 ar  
     3    1   15 1   
     4    2    3 ar  
     5    2   16 1   
     6    3    4 ar  
     7    3   17 1   
     8    4    5 ar  
     9    4   18 1   
    10    5    6 ar  
    11    5   19 1   
    12    6    7 1   
    13    7    8 1   
    14    7   11 1   
    15    8    9 1   
    16    8   13 2   
    17    8   14 2   
    18    9   10 1   
    19    9   20 1   
    20   10   11 1   
    21   10   12 2   
    22   11   21 1   
    23   11   22 1   
@<TRIPOS>SUBSTRUCTURE
     1 T2D         1 TEMP              0 ****  ****    0 ROOT
