@<TRIPOS>MOLECULE
T2M
   25    24     1     0     0
SMALL
bcc


@<TRIPOS>ATOM
      1 C1          0.0190    1.6920   -2.0900 c3        1 T2M      0.153100
      2 N2          0.5560    0.3260   -2.2500 n3        1 T2M     -0.270200
      3 N3          1.4440   -0.0680   -1.2810 n         1 T2M     -0.343300
      4 C4          1.1000   -0.3420    0.0770 c         1 T2M      0.695100
      5 O5          1.8250   -1.0020    0.8340 o         1 T2M     -0.556000
      6 O6         -0.0460    0.2570    0.5170 os        1 T2M     -0.442900
      7 C7         -0.4060    0.1690    1.9270 c3        1 T2M      0.184800
      8 C8         -1.7060    0.9690    1.9840 c3        1 T2M     -0.115767
      9 C9         -0.6510   -1.2760    2.3250 c3        1 T2M     -0.115767
     10 C10         0.6600    0.8200    2.7910 c3        1 T2M     -0.115767
     11 C11        -0.4790   -0.5760   -2.5400 c1        1 T2M      0.258600
     12 N12        -1.2960   -1.3350   -2.8830 n1        1 T2M     -0.356800
     13 H11         0.8870    2.4020   -2.0820 h1        1 T2M      0.067700
     14 H12        -0.6250    1.8990   -2.9830 h1        1 T2M      0.067700
     15 H13        -0.5790    1.8240   -1.1490 h1        1 T2M      0.067700
     16 HN3         2.0520   -0.7900   -1.6470 hn        1 T2M      0.330500
     17 H81        -2.0670    0.9980    3.0380 hc        1 T2M      0.054589
     18 H82        -1.5330    2.0100    1.6230 hc        1 T2M      0.054589
     19 H83        -2.4820    0.4900    1.3410 hc        1 T2M      0.054589
     20 H91        -1.3460   -1.7620    1.6000 hc        1 T2M      0.054589
     21 H92         0.3090   -1.8470    2.3440 hc        1 T2M      0.054589
     22 H93        -1.1090   -1.3050    3.3420 hc        1 T2M      0.054589
     23 H101        0.8850    1.8470    2.4160 hc        1 T2M      0.054589
     24 H102        0.2910    0.8890    3.8420 hc        1 T2M      0.054589
     25 H103        1.6000    0.2160    2.7760 hc        1 T2M      0.054589
@<TRIPOS>BOND
     1    1    2 1   
     2    1   13 1   
     3    1   14 1   
     4    1   15 1   
     5    2    3 1   
     6    2   11 1   
     7    3    4 1   
     8    3   16 1   
     9    4    5 2   
    10    4    6 1   
    11    6    7 1   
    12    7    8 1   
    13    7    9 1   
    14    7   10 1   
    15    8   17 1   
    16    8   18 1   
    17    8   19 1   
    18    9   20 1   
    19    9   21 1   
    20    9   22 1   
    21   10   23 1   
    22   10   24 1   
    23   10   25 1   
    24   11   12 3   
@<TRIPOS>SUBSTRUCTURE
     1 T2M         1 TEMP              0 ****  ****    0 ROOT
