@<TRIPOS>MOLECULE
T2M
   25    24     1     0     0
SMALL
bcc


@<TRIPOS>ATOM
      1 C1         -3.6630   -1.5570    0.4900 c3        1 T2M      0.173100
      2 N2         -2.8790   -0.3590    0.5530 n3        1 T2M     -0.300200
      3 N3         -1.7860   -0.4780   -0.2880 n         1 T2M     -0.336300
      4 C4         -0.4870   -0.0710    0.1640 c         1 T2M      0.725100
      5 O5         -0.3830    0.7060    1.0860 o         1 T2M     -0.522000
      6 O6          0.6740   -0.6000   -0.4500 os        1 T2M     -0.456900
      7 C7          1.8550    0.1790   -0.2230 c3        1 T2M      0.185800
      8 C8          2.1710    0.2000    1.2670 c3        1 T2M     -0.115433
      9 C9          3.0220   -0.4350   -0.9810 c3        1 T2M     -0.115433
     10 C10         1.6220    1.6150   -0.7170 c3        1 T2M     -0.115433
     11 C11        -3.6700    0.7430    0.1460 c1        1 T2M      0.268600
     12 N12        -4.3110    1.6380   -0.1850 n1        1 T2M     -0.355800
     13 H11        -3.0920   -2.3320    0.6800 h1        1 T2M      0.062367
     14 H12        -4.0500   -1.6470   -0.4070 h1        1 T2M      0.062367
     15 H13        -4.3850   -1.5110    1.1540 h1        1 T2M      0.062367
     16 HN3        -1.9000   -0.7700   -1.1420 hn        1 T2M      0.292500
     17 H81         1.8090   -0.6060    1.6890 hc        1 T2M      0.053811
     18 H82         3.1460    0.2270    1.3950 hc        1 T2M      0.053811
     19 H83         1.7660    0.9930    1.6760 hc        1 T2M      0.053811
     20 H91         2.7980   -0.4920   -1.9360 hc        1 T2M      0.053811
     21 H92         3.8160    0.1250   -0.8660 hc        1 T2M      0.053811
     22 H93         3.2030   -1.3330   -0.6330 hc        1 T2M      0.053811
     23 H101        1.3160    1.5950   -1.6500 hc        1 T2M      0.053811
     24 H102        0.9420    2.0460   -0.1610 hc        1 T2M      0.053811
     25 H103        2.4640    2.1230   -0.6590 hc        1 T2M      0.053811
@<TRIPOS>BOND
     1    1    2 1   
     2    1   13 1   
     3    1   14 1   
     4    1   15 1   
     5    2    3 1   
     6    2   11 1   
     7    3    4 1   
     8    3   16 1   
     9    4    5 2   
    10    4    6 1   
    11    6    7 1   
    12    7    8 1   
    13    7    9 1   
    14    7   10 1   
    15    8   17 1   
    16    8   18 1   
    17    8   19 1   
    18    9   20 1   
    19    9   21 1   
    20    9   22 1   
    21   10   23 1   
    22   10   24 1   
    23   10   25 1   
    24   11   12 3   
@<TRIPOS>SUBSTRUCTURE
     1 T2M         1 TEMP              0 ****  ****    0 ROOT
