@<TRIPOS>MOLECULE
T2M
   25    24     1     0     0
SMALL
bcc


@<TRIPOS>ATOM
      1 C1          0.2110   -0.2260    0.1870 c3        1 T2M      0.120100
      2 N2          1.6020    0.2460    0.0400 n3        1 T2M     -0.277200
      3 N3          2.4550    0.0700    1.1040 n         1 T2M     -0.363300
      4 C4          2.5400   -1.1050    1.8970 c         1 T2M      0.705100
      5 O5          3.0560   -1.1160    3.0230 o         1 T2M     -0.559000
      6 O6          2.0610   -2.2450    1.3140 os        1 T2M     -0.444900
      7 C7          2.4320   -3.5400    1.8720 c3        1 T2M      0.184800
      8 C8          1.8370   -4.5180    0.8600 c3        1 T2M     -0.115767
      9 C9          3.9420   -3.6870    1.9320 c3        1 T2M     -0.115767
     10 C10         1.7910   -3.7280    3.2360 c3        1 T2M     -0.115767
     11 C11         2.1460   -0.2040   -1.1690 c1        1 T2M      0.312600
     12 N12         2.6020   -0.4770   -2.2060 n1        1 T2M     -0.361800
     13 H11        -0.3330    0.0300   -0.7590 h1        1 T2M      0.067367
     14 H12        -0.2520    0.3330    1.0420 h1        1 T2M      0.067367
     15 H13         0.1350   -1.3300    0.3770 h1        1 T2M      0.067367
     16 HN3         2.4540    0.9070    1.6690 hn        1 T2M      0.337500
     17 H81         2.2950   -4.3590   -0.1450 hc        1 T2M      0.054700
     18 H82         2.0440   -5.5600    1.2000 hc        1 T2M      0.054700
     19 H83         0.7350   -4.3670    0.7800 hc        1 T2M      0.054700
     20 H91         4.3710   -3.0040    2.7060 hc        1 T2M      0.054700
     21 H92         4.2000   -4.7390    2.1960 hc        1 T2M      0.054700
     22 H93         4.3920   -3.4390    0.9420 hc        1 T2M      0.054700
     23 H101        2.2530   -3.0390    3.9840 hc        1 T2M      0.054700
     24 H102        0.6970   -3.5180    3.1800 hc        1 T2M      0.054700
     25 H103        1.9420   -4.7820    3.5720 hc        1 T2M      0.054700
@<TRIPOS>BOND
     1    1    2 1   
     2    1   13 1   
     3    1   14 1   
     4    1   15 1   
     5    2    3 1   
     6    2   11 1   
     7    3    4 1   
     8    3   16 1   
     9    4    5 2   
    10    4    6 1   
    11    6    7 1   
    12    7    8 1   
    13    7    9 1   
    14    7   10 1   
    15    8   17 1   
    16    8   18 1   
    17    8   19 1   
    18    9   20 1   
    19    9   21 1   
    20    9   22 1   
    21   10   23 1   
    22   10   24 1   
    23   10   25 1   
    24   11   12 3   
@<TRIPOS>SUBSTRUCTURE
     1 T2M         1 TEMP              0 ****  ****    0 ROOT
