@<TRIPOS>MOLECULE
T2M
   27    23     1     0     0
SMALL
bcc


@<TRIPOS>ATOM
      1 C1        -42.7910  180.5720  -61.5740 c3        1 T2M     -0.241000
      2 N2        -43.8060  181.2880  -62.2880 n2        1 T2M      0.136000
      3 N3        -43.5990  182.0720  -63.2120 n8        1 T2M     -0.028000
      4 C4         32.1200 -124.6350   44.1530 c1        1 T2M      0.445000
      5 O5         31.7760 -123.6150   43.6680 o         1 T2M     -0.221500
      6 O6         32.4700 -125.6710   44.6450 o         1 T2M     -0.221500
      7 C7         33.1610 -128.5350   45.8040 c2        1 T2M      0.344000
      8 C8         32.2350 -129.5660   45.3600 c3        1 T2M     -0.314667
      9 C9         34.3480 -128.2400   45.0190 c3        1 T2M     -0.314667
     10 C10        32.8840 -127.7840   47.0180 c3        1 T2M     -0.314667
     11 C11       -41.9900  179.0240  -65.3100 c1        1 T2M     -0.064000
     12 N12       -42.3430  179.8240  -64.5470 n1        1 T2M     -0.207000
     13 H11       -41.7230  180.7610  -61.8690 h1        1 T2M      0.179000
     14 H12       -43.0310  179.4740  -61.7140 h1        1 T2M      0.179000
     15 H13       -42.9460  180.8180  -60.4800 h1        1 T2M      0.179000
     16 HN3       -42.6900  182.2950  -63.6210 hn        1 T2M      0.297500
     17 H81        32.2480 -129.7070   44.2460 hc        1 T2M      0.177556
     18 H82        32.5560 -130.5530   45.8180 hc        1 T2M      0.177556
     19 H83        31.1820 -129.3770   45.7040 hc        1 T2M      0.177556
     20 H91        34.1220 -127.3180   44.3930 hc        1 T2M      0.177556
     21 H92        35.2350 -127.9760   45.6570 hc        1 T2M      0.177556
     22 H93        34.6250 -129.0650   44.3120 hc        1 T2M      0.177556
     23 H101       33.8160 -127.5310   47.5930 hc        1 T2M      0.177556
     24 H102       32.4240 -126.7920   46.7060 hc        1 T2M      0.177556
     25 H103       32.1510 -128.2960   47.6940 hc        1 T2M      0.177556
     26 H21       -41.6630  178.2820  -66.0170 ha        1 T2M      0.272000
     27 H32       -44.4190  182.5050  -63.6440 hn        1 T2M      0.297500
@<TRIPOS>BOND
     1    1    2 1   
     2    1   13 1   
     3    1   14 1   
     4    1   15 1   
     5    2    3 1   
     6    3   16 1   
     7    3   27 1   
     8    4    5 1   
     9    4    6 1   
    10    7    8 1   
    11    7    9 1   
    12    7   10 1   
    13    8   17 1   
    14    8   18 1   
    15    8   19 1   
    16    9   20 1   
    17    9   21 1   
    18    9   22 1   
    19   10   23 1   
    20   10   24 1   
    21   10   25 1   
    22   11   12 1   
    23   11   26 1   
@<TRIPOS>SUBSTRUCTURE
     1 T2M         1 TEMP              0 ****  ****    0 ROOT
