@<TRIPOS>MOLECULE
T2P
   48    49     1     0     0
SMALL
bcc


@<TRIPOS>ATOM
      1 O33         4.1070    4.8450   -5.3930 o         1 T2P     -0.927167
      2 P           3.9190    4.7500   -3.8800 p5        1 T2P      1.360900
      3 O31         5.0520    5.1590   -3.0040 o         1 T2P     -0.927167
      4 O32         2.5190    5.2430   -3.5930 o         1 T2P     -0.927167
      5 O27         3.8260    3.0570   -3.6560 os        1 T2P     -0.583200
      6 C17         2.6330    2.5120   -3.2370 c3        1 T2P      0.208400
      7 C16         2.2980    1.2550   -4.0570 c3        1 T2P     -0.135400
      8 C15         0.8360    1.1570   -4.4940 c3        1 T2P      0.045000
      9 N5          0.4290    1.9500   -5.6530 n         1 T2P     -0.239000
     10 C6          1.3470    1.8320   -6.7920 c         1 T2P      0.744500
     11 O6          1.5990    0.7800   -7.4040 o         1 T2P     -0.636500
     12 C9          0.3780    3.3670   -5.4150 cc        1 T2P     -0.295600
     13 C4         -0.3290    4.0620   -4.3500 c         1 T2P      0.775700
     14 O4         -1.0700    3.5190   -3.5010 o         1 T2P     -0.694500
     15 N3         -0.1970    5.4640   -4.3620 n         1 T2P     -0.546500
     16 C2          0.7830    6.1210   -5.1600 c         1 T2P      0.857500
     17 O2          0.8820    7.3640   -5.0770 o         1 T2P     -0.669500
     18 C8          1.2400    4.0590   -6.2840 cd        1 T2P      0.180200
     19 N1          1.4910    5.4320   -6.2100 n         1 T2P     -0.409100
     20 N7          1.7800    3.1480   -7.2420 n         1 T2P     -0.328000
     21 C10         3.1300    3.2780   -7.7490 c3        1 T2P      0.051000
     22 C11         3.3510    4.4950   -8.6650 c3        1 T2P      0.122100
     23 O19         3.3310    4.0230  -10.0130 oh        1 T2P     -0.628800
     24 C12         4.7200    5.1320   -8.3630 c3        1 T2P      0.037100
     25 O21         5.7890    4.3770   -8.9160 oh        1 T2P     -0.618800
     26 C13         4.7850    6.5590   -8.9360 c3        1 T2P      0.069100
     27 O23         4.9230    6.5140  -10.3520 oh        1 T2P     -0.633800
     28 C14         5.9440    7.3380   -8.3070 c3        1 T2P      0.104400
     29 O26         7.1890    6.8380   -8.7610 oh        1 T2P     -0.636800
     30 H171        2.7210    2.1870   -2.1560 h1        1 T2P      0.007700
     31 H172        1.7970    3.2650   -3.3060 h1        1 T2P      0.007700
     32 H161        2.5190    0.3460   -3.4390 hc        1 T2P      0.033700
     33 H162        2.9750    1.2160   -4.9500 hc        1 T2P      0.033700
     34 H151        0.6110    0.0870   -4.7700 h1        1 T2P      0.055700
     35 H152        0.1650    1.4660   -3.6420 h1        1 T2P      0.055700
     36 H3         -0.3510    5.9150   -3.4830 hn        1 T2P      0.327500
     37 H1          2.5260    5.5910   -6.0910 hn        1 T2P      0.406500
     38 H101        3.3510    2.3420   -8.3370 h1        1 T2P      0.114700
     39 H102        3.8570    3.3680   -6.8750 h1        1 T2P      0.114700
     40 H11         2.5500    5.2720   -8.5410 h1        1 T2P      0.065700
     41 H19         3.4350    4.8060  -10.5700 ho        1 T2P      0.401000
     42 H12         4.8950    5.1460   -7.2320 h1        1 T2P      0.213700
     43 H21         5.4750    3.9830   -9.7410 ho        1 T2P      0.397000
     44 H13         3.8170    7.1000   -8.7530 h1        1 T2P      0.086700
     45 H23         5.8210    6.2010  -10.5240 ho        1 T2P      0.408000
     46 H141        5.9260    8.4060   -8.6470 h1        1 T2P      0.061700
     47 H142        5.8740    7.2820   -7.1880 h1        1 T2P      0.061700
     48 H26         7.2560    5.9260   -8.4410 ho        1 T2P      0.428000
@<TRIPOS>BOND
     1    1    2 1   
     2    2    3 1   
     3    2    4 1   
     4    2    5 1   
     5    5    6 1   
     6    6    7 1   
     7    6   30 1   
     8    6   31 1   
     9    7    8 1   
    10    7   32 1   
    11    7   33 1   
    12    8    9 1   
    13    8   34 1   
    14    8   35 1   
    15    9   10 1   
    16    9   12 1   
    17   10   11 2   
    18   10   20 1   
    19   12   13 1   
    20   12   18 2   
    21   13   14 2   
    22   13   15 1   
    23   15   16 1   
    24   15   36 1   
    25   16   17 2   
    26   16   19 1   
    27   18   19 1   
    28   18   20 1   
    29   19   37 1   
    30   20   21 1   
    31   21   22 1   
    32   21   38 1   
    33   21   39 1   
    34   22   23 1   
    35   22   24 1   
    36   22   40 1   
    37   23   41 1   
    38   24   25 1   
    39   24   26 1   
    40   24   42 1   
    41   25   43 1   
    42   26   27 1   
    43   26   28 1   
    44   26   44 1   
    45   27   45 1   
    46   28   29 1   
    47   28   46 1   
    48   28   47 1   
    49   29   48 1   
@<TRIPOS>SUBSTRUCTURE
     1 T2P         1 TEMP              0 ****  ****    0 ROOT
