@<TRIPOS>MOLECULE
T2P
   48    49     1     0     0
SMALL
bcc


@<TRIPOS>ATOM
      1 O33         4.1430    4.8810   -5.4610 o         1 T2P     -0.927167
      2 P           4.0030    4.8590   -3.9400 p5        1 T2P      1.360900
      3 O31         5.1670    5.3020   -3.1210 o         1 T2P     -0.927167
      4 O32         2.6160    5.3740   -3.6320 o         1 T2P     -0.927167
      5 O27         3.9090    3.1790   -3.6340 os        1 T2P     -0.583200
      6 C17         2.7280    2.6620   -3.1510 c3        1 T2P      0.208400
      7 C16         2.3610    1.3700   -3.8980 c3        1 T2P     -0.135400
      8 C15         0.8850    1.2600   -4.2830 c3        1 T2P      0.045000
      9 N5          0.4450    2.0010   -5.4650 n         1 T2P     -0.239000
     10 C6          1.3250    1.8230   -6.6260 c         1 T2P      0.744500
     11 O6          1.5520    0.7420   -7.1950 o         1 T2P     -0.636500
     12 C9          0.4080    3.4280   -5.2930 cc        1 T2P     -0.295600
     13 C4         -0.2610    4.1770   -4.2400 c         1 T2P      0.775700
     14 O4         -0.9770    3.6790   -3.3430 o         1 T2P     -0.694500
     15 N3         -0.1220    5.5750   -4.3230 ns        1 T2P     -0.546500
     16 C2          0.8350    6.1880   -5.1820 c         1 T2P      0.857500
     17 O2          0.9420    7.4320   -5.1620 o         1 T2P     -0.669500
     18 C8          1.2450    4.0720   -6.2220 cd        1 T2P      0.180200
     19 N1          1.5050    5.4460   -6.2210 ns        1 T2P     -0.409100
     20 N7          1.7490    3.1140   -7.1520 n         1 T2P     -0.328000
     21 C10         3.0830    3.2110   -7.7080 c3        1 T2P      0.051000
     22 C11         3.2800    4.3810   -8.6870 c3        1 T2P      0.122100
     23 O19         3.2150    3.8460  -10.0090 oh        1 T2P     -0.628800
     24 C12         4.6610    5.0230   -8.4600 c3        1 T2P      0.037100
     25 O21         5.7080    4.2370   -9.0100 oh        1 T2P     -0.618800
     26 C13         4.7140    6.4220   -9.1010 c3        1 T2P      0.069100
     27 O23         4.8060    6.3090  -10.5180 oh        1 T2P     -0.633800
     28 C14         5.8960    7.2220   -8.5480 c3        1 T2P      0.104400
     29 O26         7.1240    6.6930   -9.0170 oh        1 T2P     -0.636800
     30 H171        1.8940    3.4170   -3.2280 h1        1 T2P      0.007700
     31 H172        2.8500    2.3880   -2.0580 h1        1 T2P      0.007700
     32 H161        2.5970    0.4900   -3.2450 hc        1 T2P      0.033700
     33 H162        3.0080    1.2840   -4.8100 hc        1 T2P      0.033700
     34 H151        0.2430    1.6140   -3.4260 h1        1 T2P      0.055700
     35 H152        0.6460    0.1800   -4.5010 h1        1 T2P      0.055700
     36 H3         -0.2460    6.0690   -3.4620 hn        1 T2P      0.327500
     37 H1          2.5440    5.6040   -6.1420 hn        1 T2P      0.406500
     38 H101        3.2810    2.2460   -8.2570 h1        1 T2P      0.114700
     39 H102        3.8380    3.3380   -6.8620 h1        1 T2P      0.114700
     40 H11         2.4870    5.1690   -8.5750 h1        1 T2P      0.065700
     41 H19         3.3040    4.6010  -10.6060 ho        1 T2P      0.401000
     42 H12         4.8720    5.0900   -7.3370 h1        1 T2P      0.213700
     43 H21         5.3650    3.8060   -9.8050 ho        1 T2P      0.397000
     44 H13         3.7550    6.9770   -8.9130 h1        1 T2P      0.086700
     45 H23         5.6970    5.9820  -10.7030 ho        1 T2P      0.408000
     46 H141        5.8630    7.2200   -7.4260 h1        1 T2P      0.061700
     47 H142        5.8730    8.2730   -8.9380 h1        1 T2P      0.061700
     48 H26         7.1970    5.7970   -8.6570 ho        1 T2P      0.428000
@<TRIPOS>BOND
     1    1    2 1   
     2    2    3 1   
     3    2    4 1   
     4    2    5 1   
     5    5    6 1   
     6    6    7 1   
     7    6   30 1   
     8    6   31 1   
     9    7    8 1   
    10    7   32 1   
    11    7   33 1   
    12    8    9 1   
    13    8   34 1   
    14    8   35 1   
    15    9   10 1   
    16    9   12 1   
    17   10   11 2   
    18   10   20 1   
    19   12   13 1   
    20   12   18 2   
    21   13   14 2   
    22   13   15 1   
    23   15   16 1   
    24   15   36 1   
    25   16   17 2   
    26   16   19 1   
    27   18   19 1   
    28   18   20 1   
    29   19   37 1   
    30   20   21 1   
    31   21   22 1   
    32   21   38 1   
    33   21   39 1   
    34   22   23 1   
    35   22   24 1   
    36   22   40 1   
    37   23   41 1   
    38   24   25 1   
    39   24   26 1   
    40   24   42 1   
    41   25   43 1   
    42   26   27 1   
    43   26   28 1   
    44   26   44 1   
    45   27   45 1   
    46   28   29 1   
    47   28   46 1   
    48   28   47 1   
    49   29   48 1   
@<TRIPOS>SUBSTRUCTURE
     1 T2P         1 TEMP              0 ****  ****    0 ROOT
