@<TRIPOS>MOLECULE
T2P
   48    49     1     0     0
SMALL
bcc


@<TRIPOS>ATOM
      1 O33        -1.6200    1.7330    0.2750 o         1 T2P     -0.938833
      2 P          -0.7100    2.1600   -0.8680 p5        1 T2P      1.386900
      3 O31        -0.9870    3.4470   -1.5610 o         1 T2P     -0.938833
      4 O32         0.7080    1.8490   -0.4330 o         1 T2P     -0.938833
      5 O27        -1.0240    0.9790   -2.0560 os        1 T2P     -0.571200
      6 C17        -0.9840   -0.3320   -1.6370 c3        1 T2P      0.228400
      7 C16         0.0950   -1.1170   -2.3900 c3        1 T2P     -0.137400
      8 C15         0.5780   -2.3680   -1.6630 c3        1 T2P      0.052000
      9 N5          1.4110   -2.1860   -0.4770 n         1 T2P     -0.246000
     10 C6          0.6630   -1.8790    0.7520 c         1 T2P      0.751500
     11 O6         -0.1150   -2.6700    1.3000 o         1 T2P     -0.594500
     12 C9          2.3710   -1.1200   -0.5570 cc        1 T2P     -0.311600
     13 C4          3.4160   -0.9400   -1.5370 c         1 T2P      0.772700
     14 O4          3.6780   -1.6740   -2.5130 o         1 T2P     -0.681500
     15 N3          4.2420    0.1820   -1.3060 n         1 T2P     -0.596500
     16 C2          3.9750    1.1610   -0.3290 c         1 T2P      0.807500
     17 O2          4.7310    2.1580   -0.2590 o         1 T2P     -0.678500
     18 C8          2.1640   -0.1800    0.4760 cd        1 T2P      0.247200
     19 N1          2.9570    0.9620    0.6530 n         1 T2P     -0.373100
     20 N7          1.1700   -0.6590    1.3700 n         1 T2P     -0.321000
     21 C10         0.3380    0.2920    2.0770 c3        1 T2P     -0.012000
     22 C11        -0.9320   -0.2720    2.7330 c3        1 T2P      0.139100
     23 O19        -1.9300   -0.6360    1.8120 oh        1 T2P     -0.642800
     24 C12        -1.4880    0.7940    3.7070 c3        1 T2P      0.103100
     25 O21        -2.3780    1.6980    3.0900 oh        1 T2P     -0.656800
     26 C13        -2.2860    0.1040    4.8300 c3        1 T2P      0.113100
     27 O23        -3.4170   -0.6020    4.3440 oh        1 T2P     -0.637800
     28 C14        -2.7820    1.1410    5.8440 c3        1 T2P      0.113400
     29 O26        -3.6240    0.5530    6.8220 oh        1 T2P     -0.633800
     30 H171       -1.9800   -0.8250   -1.8460 h1        1 T2P     -0.008800
     31 H172       -0.8020   -0.3880   -0.5250 h1        1 T2P     -0.008800
     32 H161        0.9630   -0.4350   -2.5950 hc        1 T2P      0.045700
     33 H162       -0.3140   -1.4380   -3.3830 hc        1 T2P      0.045700
     34 H151        1.2170   -2.9670   -2.3750 h1        1 T2P      0.049200
     35 H152       -0.3060   -2.9910   -1.3500 h1        1 T2P      0.049200
     36 H3          4.9210    0.4170   -1.9950 hn        1 T2P      0.324500
     37 H1          2.3850    1.8020    0.7910 hn        1 T2P      0.398500
     38 H101        0.0160    1.1280    1.3490 h1        1 T2P      0.109700
     39 H102        0.9960    0.7270    2.8820 h1        1 T2P      0.109700
     40 H11        -0.7090   -1.2220    3.2970 h1        1 T2P      0.064700
     41 H19        -2.0360    0.0820    1.1500 ho        1 T2P      0.487000
     42 H12        -0.6450    1.3750    4.1760 h1        1 T2P      0.023700
     43 H21        -2.1070    1.8360    2.1550 ho        1 T2P      0.503000
     44 H13        -1.6410   -0.6580    5.3490 h1        1 T2P      0.042700
     45 H23        -3.4960   -0.4080    3.3960 ho        1 T2P      0.452000
     46 H141       -3.3390    1.9550    5.3090 h1        1 T2P      0.048200
     47 H142       -1.9220    1.5750    6.4150 h1        1 T2P      0.048200
     48 H26        -4.2350   -0.0250    6.3460 ho        1 T2P      0.414000
@<TRIPOS>BOND
     1    1    2 1   
     2    2    3 1   
     3    2    4 1   
     4    2    5 1   
     5    5    6 1   
     6    6    7 1   
     7    6   30 1   
     8    6   31 1   
     9    7    8 1   
    10    7   32 1   
    11    7   33 1   
    12    8    9 1   
    13    8   34 1   
    14    8   35 1   
    15    9   10 1   
    16    9   12 1   
    17   10   11 2   
    18   10   20 1   
    19   12   13 1   
    20   12   18 2   
    21   13   14 2   
    22   13   15 1   
    23   15   16 1   
    24   15   36 1   
    25   16   17 2   
    26   16   19 1   
    27   18   19 1   
    28   18   20 1   
    29   19   37 1   
    30   20   21 1   
    31   21   22 1   
    32   21   38 1   
    33   21   39 1   
    34   22   23 1   
    35   22   24 1   
    36   22   40 1   
    37   23   41 1   
    38   24   25 1   
    39   24   26 1   
    40   24   42 1   
    41   25   43 1   
    42   26   27 1   
    43   26   28 1   
    44   26   44 1   
    45   27   45 1   
    46   28   29 1   
    47   28   46 1   
    48   28   47 1   
    49   29   48 1   
@<TRIPOS>SUBSTRUCTURE
     1 T2P         1 TEMP              0 ****  ****    0 ROOT
