@<TRIPOS>MOLECULE
T2S
   36    37     1     0     0
SMALL
bcc


@<TRIPOS>ATOM
      1 OP3        -3.0880    4.0280    0.1860 oh        1 T2S     -0.672400
      2 P          -1.6810    3.5380   -0.2710 p5        1 T2S      0.992200
      3 S1P        -0.3590    4.0260    1.0670 s         1 T2S     -0.531000
      4 S2P        -1.2010    4.4250   -2.0700 sh        1 T2S     -0.494200
      5 O5'        -1.7010    1.9300   -0.4460 os        1 T2S     -0.542200
      6 C5'        -0.9780    1.1410    0.4900 c3        1 T2S      0.145400
      7 C4'        -1.8770    0.0670    1.0430 c3        1 T2S      0.082100
      8 O4'        -1.8770   -1.2160    0.0630 os        1 T2S     -0.414600
      9 C3'        -1.4230   -0.3420    2.1830 c3        1 T2S      0.131100
     10 O3'        -2.5470   -0.7760    3.0650 oh        1 T2S     -0.602800
     11 C2'        -0.5020   -1.5580    1.8360 c3        1 T2S     -0.107400
     12 C1'        -0.8050   -1.8960    0.3530 c3        1 T2S      0.313500
     13 N1          0.2820   -1.4890   -0.4820 n         1 T2S     -0.387000
     14 C2          0.0150   -1.0090   -1.8500 c         1 T2S      0.813500
     15 O2         -1.1330   -0.8160   -2.2120 o         1 T2S     -0.668500
     16 N3          1.1180   -0.8980   -2.8210 n         1 T2S     -0.583500
     17 C4          2.4600   -1.1590   -2.4110 c         1 T2S      0.714700
     18 O4          3.3810   -0.9290   -3.1690 o         1 T2S     -0.600500
     19 C5          2.7350   -1.6020   -1.0280 cc        1 T2S     -0.245400
     20 C5M         4.1210   -1.8880   -0.6070 c3        1 T2S     -0.033900
     21 C6          1.6260   -1.7030   -0.0520 cd        1 T2S      0.037600
     22 HOP3       -3.2310    4.8440   -0.1230 ho        1 T2S      0.510000
     23 HOP2       -1.1850    5.5880   -1.9380 hs        1 T2S      0.382800
     24 H5'        -0.6610    1.7170    1.2270 h1        1 T2S      0.093700
     25 H5''       -0.1870    0.7140    0.0330 h1        1 T2S      0.093700
     26 H4'        -2.7880    0.4100    1.1470 h1        1 T2S      0.095700
     27 H3'        -0.9080    0.3600    2.6120 h1        1 T2S      0.084700
     28 HO3'       -2.3700   -0.5470    3.9000 ho        1 T2S      0.445000
     29 H2'        -0.7200   -2.3310    2.4140 hc        1 T2S      0.087700
     30 H2''        0.4200   -1.3150    1.9400 hc        1 T2S      0.087700
     31 H1'        -0.9760   -2.8710    0.2480 h2        1 T2S      0.089700
     32 H3          0.9550   -0.6070   -3.6470 hn        1 T2S      0.354500
     33 H71         4.5620   -2.4140   -1.2890 hc        1 T2S      0.054033
     34 H72         4.6030   -1.0480   -0.4810 hc        1 T2S      0.054033
     35 H73         4.1110   -2.3820    0.2250 hc        1 T2S      0.054033
     36 H6          1.8070   -1.9960    0.8670 h4        1 T2S      0.166000
@<TRIPOS>BOND
     1    1    2 1   
     2    1   22 1   
     3    2    3 2   
     4    2    4 1   
     5    2    5 1   
     6    4   23 1   
     7    5    6 1   
     8    6    7 1   
     9    6   24 1   
    10    6   25 1   
    11    7    8 1   
    12    7    9 1   
    13    7   26 1   
    14    8   12 1   
    15    9   10 1   
    16    9   11 1   
    17    9   27 1   
    18   10   28 1   
    19   11   12 1   
    20   11   29 1   
    21   11   30 1   
    22   12   13 1   
    23   12   31 1   
    24   13   14 1   
    25   13   21 1   
    26   14   15 2   
    27   14   16 1   
    28   16   17 1   
    29   16   32 1   
    30   17   18 2   
    31   17   19 1   
    32   19   20 1   
    33   19   21 2   
    34   20   33 1   
    35   20   34 1   
    36   20   35 1   
    37   21   36 1   
@<TRIPOS>SUBSTRUCTURE
     1 T2S         1 TEMP              0 ****  ****    0 ROOT
