@<TRIPOS>MOLECULE
T2S
   36    37     1     0     0
SMALL
bcc


@<TRIPOS>ATOM
      1 OP3        -3.6600   -1.7230    4.9080 oh        1 T2S     -0.687400
      2 P          -4.0930   -0.9490    3.5840 p5        1 T2S      0.895200
      3 S1P        -4.7210    0.7950    3.5920 s         1 T2S     -0.420000
      4 S2P        -5.4650   -2.2650    2.7120 sh        1 T2S     -0.399200
      5 O5'        -2.6760   -1.2040    2.8650 os        1 T2S     -0.533200
      6 C5'        -2.1120   -0.2070    2.0340 c3        1 T2S      0.121400
      7 C4'        -0.7830    0.2630    2.6280 c3        1 T2S      0.113100
      8 O4'         0.0500   -0.8580    2.9440 os        1 T2S     -0.406600
      9 C3'        -0.0230    1.1580    1.6260 c3        1 T2S      0.124100
     10 O3'         0.1990    2.3940    2.2790 oh        1 T2S     -0.583800
     11 C2'         1.2850    0.4170    1.3340 c3        1 T2S     -0.149400
     12 C1'         1.1530   -0.9550    2.0320 c3        1 T2S      0.322500
     13 N1          0.9700   -2.0810    1.1090 n         1 T2S     -0.404000
     14 C2          2.0580   -2.3940    0.2510 c         1 T2S      0.806500
     15 O2          3.0830   -1.6770    0.2280 o         1 T2S     -0.649500
     16 N3          1.9480   -3.5160   -0.5780 n         1 T2S     -0.582500
     17 C4          0.8260   -4.3670   -0.5780 c         1 T2S      0.715700
     18 O4          0.8190   -5.3370   -1.3510 o         1 T2S     -0.602500
     19 C5         -0.2550   -4.0150    0.3600 cc        1 T2S     -0.258400
     20 C5M        -1.4330   -4.9040    0.3930 c3        1 T2S     -0.029900
     21 C6         -0.1360   -2.9140    1.1550 cd        1 T2S      0.037600
     22 HOP3       -2.7170   -1.8200    5.0720 ho        1 T2S      0.504000
     23 HOP2       -5.0980   -3.4540    3.1950 hs        1 T2S      0.318800
     24 H5'        -1.9440   -0.6850    1.0280 h1        1 T2S      0.090700
     25 H5''       -2.8230    0.6680    1.9520 h1        1 T2S      0.090700
     26 H4'        -0.9420    0.7980    3.6060 h1        1 T2S      0.109700
     27 H3'        -0.6190    1.3230    0.6880 h1        1 T2S      0.057700
     28 HO3'        0.6550    2.9670    1.6490 ho        1 T2S      0.417000
     29 H2'         1.4730    0.3200    0.2370 hc        1 T2S      0.091200
     30 H2''        2.1540    0.9620    1.7840 hc        1 T2S      0.091200
     31 H1'         2.0560   -1.1860    2.6740 h2        1 T2S      0.105700
     32 H3          2.7200   -3.7140   -1.1800 hn        1 T2S      0.354500
     33 H71        -1.7910   -5.1030   -0.6490 hc        1 T2S      0.051367
     34 H72        -2.2660   -4.4520    0.9830 hc        1 T2S      0.051367
     35 H73        -1.1570   -5.8870    0.8530 hc        1 T2S      0.051367
     36 H6         -0.9230   -2.6230    1.8820 h4        1 T2S      0.186000
@<TRIPOS>BOND
     1    1    2 1   
     2    1   22 1   
     3    2    3 2   
     4    2    4 1   
     5    2    5 1   
     6    4   23 1   
     7    5    6 1   
     8    6    7 1   
     9    6   24 1   
    10    6   25 1   
    11    7    8 1   
    12    7    9 1   
    13    7   26 1   
    14    8   12 1   
    15    9   10 1   
    16    9   11 1   
    17    9   27 1   
    18   10   28 1   
    19   11   12 1   
    20   11   29 1   
    21   11   30 1   
    22   12   13 1   
    23   12   31 1   
    24   13   14 1   
    25   13   21 1   
    26   14   15 2   
    27   14   16 1   
    28   16   17 1   
    29   16   32 1   
    30   17   18 2   
    31   17   19 1   
    32   19   20 1   
    33   19   21 2   
    34   20   33 1   
    35   20   34 1   
    36   20   35 1   
    37   21   36 1   
@<TRIPOS>SUBSTRUCTURE
     1 T2S         1 TEMP              0 ****  ****    0 ROOT
