@<TRIPOS>MOLECULE
T3
   34    35     1     0     0
SMALL
bcc


@<TRIPOS>ATOM
      1 C1         -0.0720   -0.7710    2.6930 ca        1 T3      -0.032300
      2 C2         -0.0140    1.3260   -1.8820 ca        1 T3       0.099100
      3 C3          1.1310   -0.2720    2.1740 ca        1 T3      -0.078000
      4 C4          0.0650   -0.0320   -2.1930 ca        1 T3      -0.121000
      5 C5          1.1390    0.5590    1.0550 ca        1 T3       0.018400
      6 C6          0.1380   -0.4360   -3.5300 ca        1 T3      -0.026100
      7 C7         -0.0790    0.9040    0.4480 ca        1 T3       0.107100
      8 C8          0.1290    0.5340   -4.5400 ca        1 T3       0.124100
      9 C9         -1.2940    0.4320    0.9660 ca        1 T3       0.018400
     10 C10         0.0490    1.9050   -4.2200 ca        1 T3      -0.137000
     11 C11        -1.2780   -0.4000    2.0860 ca        1 T3      -0.078000
     12 C12        -0.0220    2.3040   -2.8970 ca        1 T3      -0.099000
     13 C13        -0.0720   -1.6810    3.8690 c3        1 T3      -0.039100
     14 C15         0.0780   -0.9300    5.1980 c3        1 T3       0.017500
     15 C17        -0.3820   -1.8970    6.3450 c         1 T3       0.890600
     16 I1          2.9370    1.2280    0.3990 i         1 T3      -0.146400
     17 I2          0.2510   -2.4210   -3.9100 i         1 T3      -0.147900
     18 I3         -3.1020    0.9100    0.1830 i         1 T3      -0.146400
     19 N1          1.4100   -0.3690    5.3780 n3        1 T3      -0.892800
     20 O1          0.1960    0.2600   -5.8870 oh        1 T3      -0.499100
     21 O2         -0.0900    1.8380   -0.5920 os        1 T3      -0.240200
     22 O3         -1.5060   -2.4540    6.2130 o         1 T3      -0.834800
     23 O4          0.3900   -2.0460    7.3320 o         1 T3      -0.834800
     24 HC3         2.0730   -0.5360    2.6840 ha        1 T3       0.165500
     25 HC4         0.0700   -0.7780   -1.3820 ha        1 T3       0.167000
     26 HC10        0.0440    2.6420   -5.0360 ha        1 T3       0.151000
     27 HC11       -2.2230   -0.7750    2.5160 ha        1 T3       0.165500
     28 HC12       -0.0860    3.3670   -2.6230 ha        1 T3       0.156000
     29 H131        0.7530   -2.4330    3.7590 hc        1 T3       0.067700
     30 H132       -1.0440   -2.2460    3.9250 hc        1 T3       0.067700
     31 HC15       -0.6520   -0.0690    5.1990 h1        1 T3       0.046700
     32 HN11        1.4090    0.1290    6.2510 hn        1 T3       0.334800
     33 HN12        2.0560   -1.1320    5.4930 hn        1 T3       0.334800
     34 HO1         0.2460   -0.7030   -6.0000 ho        1 T3       0.423000
@<TRIPOS>BOND
     1    1    3 ar  
     2    1   11 ar  
     3    1   13 1   
     4    2    4 ar  
     5    2   12 ar  
     6    2   21 1   
     7    3    5 ar  
     8    3   24 1   
     9    4    6 ar  
    10    4   25 1   
    11    5    7 ar  
    12    5   16 1   
    13    6    8 ar  
    14    6   17 1   
    15    7    9 ar  
    16    7   21 1   
    17    8   10 ar  
    18    8   20 1   
    19    9   11 ar  
    20    9   18 1   
    21   10   12 ar  
    22   10   26 1   
    23   11   27 1   
    24   12   28 1   
    25   13   14 1   
    26   13   29 1   
    27   13   30 1   
    28   14   15 1   
    29   14   19 1   
    30   14   31 1   
    31   15   22 1   
    32   15   23 1   
    33   19   32 1   
    34   19   33 1   
    35   20   34 1   
@<TRIPOS>SUBSTRUCTURE
     1 T3          1 TEMP              0 ****  ****    0 ROOT
