@<TRIPOS>MOLECULE
T3
   35    36     1     0     0
SMALL
bcc


@<TRIPOS>ATOM
      1 C1         -0.0500   -0.0300   -0.2570 ca        1 T3      -0.119300
      2 C2          2.1670    1.6170    3.9580 ca        1 T3       0.070100
      3 C3          1.3240    0.2190   -0.1930 ca        1 T3      -0.090000
      4 C4          1.6250    2.8100    3.4880 ca        1 T3      -0.114000
      5 C5          1.9660    0.3930    1.0340 ca        1 T3       0.012400
      6 C6          1.9830    4.0200    4.0930 ca        1 T3      -0.038100
      7 C7          1.2090    0.3280    2.2150 ca        1 T3       0.155100
      8 C8          2.8780    4.0050    5.1700 ca        1 T3       0.148100
      9 C9         -0.1760    0.0860    2.1670 ca        1 T3       0.012400
     10 C10         3.4190    2.7890    5.6430 ca        1 T3      -0.135000
     11 C11        -0.7910   -0.0890    0.9290 ca        1 T3      -0.090000
     12 C12         3.0690    1.5940    5.0400 ca        1 T3      -0.084000
     13 C13        -0.7220   -0.2250   -1.5700 c3        1 T3      -0.052100
     14 C15        -1.0280   -1.6870   -1.8550 c3        1 T3      -0.076500
     15 C17        -1.7780   -1.7740   -3.2800 c         1 T3       0.939600
     16 I1          3.9650    0.7040    0.9910 i         1 T3      -0.095900
     17 I2          1.1660    5.7160    3.3560 i         1 T3      -0.127900
     18 I3         -1.3450   -0.0420    3.8150 i         1 T3      -0.095900
     19 N1          0.1960   -2.5430   -1.8890 nz        1 T3      -0.834600
     20 O1          3.3050    5.1210    5.8460 oh        1 T3      -0.487100
     21 O2          1.8390    0.3540    3.4560 os        1 T3      -0.245200
     22 O3         -2.8840   -1.2150   -3.3140 o         1 T3      -0.750800
     23 O4         -1.1410   -2.4010   -4.1650 o         1 T3      -0.750800
     24 HC3         1.9010    0.3000   -1.1300 ha        1 T3       0.156500
     25 HC4         0.9190    2.7990    2.6420 ha        1 T3       0.157000
     26 HC10        4.1180    2.8130    6.4920 ha        1 T3       0.162000
     27 HC11       -1.8790   -0.2690    0.8680 ha        1 T3       0.156500
     28 HC12        3.4760    0.6350    5.3910 ha        1 T3       0.160000
     29 H131       -1.7150    0.3090   -1.5930 hc        1 T3       0.098200
     30 H132       -0.1010    0.2090   -2.3990 hc        1 T3       0.098200
     31 HC15       -1.7240   -2.0990   -1.0750 hx        1 T3       0.091700
     32 HN11        0.3400   -2.7970   -2.8960 hn        1 T3       0.445800
     33 HN12        0.0530   -3.3930   -1.3520 hn        1 T3       0.445800
     34 HO1         2.8780    5.9020    5.4580 ho        1 T3       0.431000
     35 H13         1.0090   -2.0420   -1.5340 hn        1 T3       0.445800
@<TRIPOS>BOND
     1    1    3 ar  
     2    1   11 ar  
     3    1   13 1   
     4    2    4 ar  
     5    2   12 ar  
     6    2   21 1   
     7    3    5 ar  
     8    3   24 1   
     9    4    6 ar  
    10    4   25 1   
    11    5    7 ar  
    12    5   16 1   
    13    6    8 ar  
    14    6   17 1   
    15    7    9 ar  
    16    7   21 1   
    17    8   10 ar  
    18    8   20 1   
    19    9   11 ar  
    20    9   18 1   
    21   10   12 ar  
    22   10   26 1   
    23   11   27 1   
    24   12   28 1   
    25   13   14 1   
    26   13   29 1   
    27   13   30 1   
    28   14   15 1   
    29   14   19 1   
    30   14   31 1   
    31   15   22 1   
    32   15   23 1   
    33   19   32 1   
    34   19   33 1   
    35   19   35 1   
    36   20   34 1   
@<TRIPOS>SUBSTRUCTURE
     1 T3          1 TEMP              0 ****  ****    0 ROOT
