@<TRIPOS>MOLECULE
T3
   35    36     1     0     0
SMALL
bcc


@<TRIPOS>ATOM
      1 C1         -0.0510   -0.0280   -0.2570 ca        1 T3      -0.119300
      2 C2          2.1680    1.6140    3.9590 ca        1 T3       0.070100
      3 C3          1.3230    0.2170   -0.1920 ca        1 T3      -0.090000
      4 C4          1.6300    2.8090    3.4880 ca        1 T3      -0.114000
      5 C5          1.9650    0.3890    1.0350 ca        1 T3       0.012400
      6 C6          1.9910    4.0180    4.0920 ca        1 T3      -0.038100
      7 C7          1.2070    0.3270    2.2160 ca        1 T3       0.155100
      8 C8          2.8860    4.0010    5.1700 ca        1 T3       0.148100
      9 C9         -0.1790    0.0900    2.1670 ca        1 T3       0.012400
     10 C10         3.4220    2.7830    5.6440 ca        1 T3      -0.135000
     11 C11        -0.7930   -0.0840    0.9280 ca        1 T3      -0.090000
     12 C12         3.0690    1.5890    5.0410 ca        1 T3      -0.084000
     13 C13        -0.7220   -0.2220   -1.5710 c3        1 T3      -0.052100
     14 C15        -1.0330   -1.6830   -1.8550 c3        1 T3      -0.076500
     15 C17        -1.7820   -1.7680   -3.2800 c         1 T3       0.939600
     16 I1          3.9660    0.6950    0.9940 i         1 T3      -0.095900
     17 I2          1.1810    5.7170    3.3540 i         1 T3      -0.127900
     18 I3         -1.3500   -0.0330    3.8130 i         1 T3      -0.095900
     19 N1          0.1890   -2.5420   -1.8880 n4        1 T3      -0.834600
     20 O1          3.3170    5.1150    5.8460 oh        1 T3      -0.487100
     21 O2          1.8350    0.3520    3.4570 os        1 T3      -0.245200
     22 O3         -2.8860   -1.2060   -3.3160 o         1 T3      -0.750800
     23 O4         -1.1460   -2.3980   -4.1640 o         1 T3      -0.750800
     24 HC3         1.9010    0.2960   -1.1290 ha        1 T3       0.156500
     25 HC4         0.9250    2.8000    2.6420 ha        1 T3       0.157000
     26 HC10        4.1210    2.8050    6.4940 ha        1 T3       0.162000
     27 HC11       -1.8820   -0.2610    0.8660 ha        1 T3       0.156500
     28 HC12        3.4730    0.6280    5.3930 ha        1 T3       0.160000
     29 H131       -0.0990    0.2100   -2.4000 hc        1 T3       0.098200
     30 H132       -1.7130    0.3160   -1.5950 hc        1 T3       0.098200
     31 HC15       -1.7310   -2.0920   -1.0750 hx        1 T3       0.091700
     32 HN11        1.0020   -2.0440   -1.5320 hn        1 T3       0.445800
     33 HN12        0.3330   -2.7980   -2.8940 hn        1 T3       0.445800
     34 HO1         2.8930    5.8980    5.4570 ho        1 T3       0.431000
     35 H13         0.0430   -3.3930   -1.3510 hn        1 T3       0.445800
@<TRIPOS>BOND
     1    1    3 ar  
     2    1   11 ar  
     3    1   13 1   
     4    2    4 ar  
     5    2   12 ar  
     6    2   21 1   
     7    3    5 ar  
     8    3   24 1   
     9    4    6 ar  
    10    4   25 1   
    11    5    7 ar  
    12    5   16 1   
    13    6    8 ar  
    14    6   17 1   
    15    7    9 ar  
    16    7   21 1   
    17    8   10 ar  
    18    8   20 1   
    19    9   11 ar  
    20    9   18 1   
    21   10   12 ar  
    22   10   26 1   
    23   11   27 1   
    24   12   28 1   
    25   13   14 1   
    26   13   29 1   
    27   13   30 1   
    28   14   15 1   
    29   14   19 1   
    30   14   31 1   
    31   15   22 1   
    32   15   23 1   
    33   19   32 1   
    34   19   33 1   
    35   19   35 1   
    36   20   34 1   
@<TRIPOS>SUBSTRUCTURE
     1 T3          1 TEMP              0 ****  ****    0 ROOT
