@<TRIPOS>MOLECULE
T3
   35    36     1     0     0
SMALL
bcc


@<TRIPOS>ATOM
      1 C1         -0.0500   -0.0220   -0.2600 ca        1 T3      -0.119300
      2 C2          2.1620    1.6060    3.9650 ca        1 T3       0.070100
      3 C3          1.3260    0.2100   -0.1880 ca        1 T3      -0.090000
      4 C4          1.6370    2.8050    3.4900 ca        1 T3      -0.114000
      5 C5          1.9620    0.3780    1.0430 ca        1 T3       0.012400
      6 C6          2.0080    4.0120    4.0930 ca        1 T3      -0.038100
      7 C7          1.1970    0.3250    2.2190 ca        1 T3       0.155100
      8 C8          2.9000    3.9880    5.1730 ca        1 T3       0.148100
      9 C9         -0.1910    0.1010    2.1630 ca        1 T3       0.012400
     10 C10         3.4230    2.7660    5.6510 ca        1 T3      -0.135000
     11 C11        -0.8000   -0.0690    0.9210 ca        1 T3      -0.090000
     12 C12         3.0600    1.5750    5.0490 ca        1 T3      -0.084000
     13 C13        -0.7160   -0.2120   -1.5770 c3        1 T3      -0.052100
     14 C15        -1.0380   -1.6700   -1.8610 c3        1 T3      -0.076500
     15 C17        -1.7800   -1.7510   -3.2910 c         1 T3       0.939600
     16 I1          3.9660    0.6650    1.0120 i         1 T3      -0.095900
     17 I2          1.2150    5.7170    3.3500 i         1 T3      -0.127900
     18 I3         -1.3720   -0.0090    3.8030 i         1 T3      -0.095900
     19 N1          0.1750   -2.5410   -1.8860 n4        1 T3      -0.834600
     20 O1          3.3390    5.0990    5.8480 oh        1 T3      -0.487100
     21 O2          1.8190    0.3470    3.4650 os        1 T3      -0.245200
     22 O3         -2.8790   -1.1790   -3.3330 o         1 T3      -0.750800
     23 O4         -1.1450   -2.3870   -4.1700 o         1 T3      -0.750800
     24 HC3         1.9090    0.2820   -1.1210 ha        1 T3       0.156500
     25 HC4         0.9340    2.8010    2.6420 ha        1 T3       0.157000
     26 HC10        4.1200    2.7830    6.5020 ha        1 T3       0.162000
     27 HC11       -1.8890   -0.2360    0.8540 ha        1 T3       0.156500
     28 HC12        3.4540    0.6110    5.4030 ha        1 T3       0.160000
     29 H131       -1.7020    0.3350   -1.6080 hc        1 T3       0.098200
     30 H132       -0.0850    0.2130   -2.4030 hc        1 T3       0.098200
     31 HC15       -1.7440   -2.0720   -1.0850 hx        1 T3       0.091700
     32 HN11        0.3230   -2.7990   -2.8910 hn        1 T3       0.445800
     33 HN12        0.0190   -3.3890   -1.3480 hn        1 T3       0.445800
     34 HO1         2.9240    5.8850    5.4570 ho        1 T3       0.431000
     35 H13         0.9920   -2.0500   -1.5260 hn        1 T3       0.445800
@<TRIPOS>BOND
     1    1    3 ar  
     2    1   11 ar  
     3    1   13 1   
     4    2    4 ar  
     5    2   12 ar  
     6    2   21 1   
     7    3    5 ar  
     8    3   24 1   
     9    4    6 ar  
    10    4   25 1   
    11    5    7 ar  
    12    5   16 1   
    13    6    8 ar  
    14    6   17 1   
    15    7    9 ar  
    16    7   21 1   
    17    8   10 ar  
    18    8   20 1   
    19    9   11 ar  
    20    9   18 1   
    21   10   12 ar  
    22   10   26 1   
    23   11   27 1   
    24   12   28 1   
    25   13   14 1   
    26   13   29 1   
    27   13   30 1   
    28   14   15 1   
    29   14   19 1   
    30   14   31 1   
    31   15   22 1   
    32   15   23 1   
    33   19   32 1   
    34   19   33 1   
    35   19   35 1   
    36   20   34 1   
@<TRIPOS>SUBSTRUCTURE
     1 T3          1 TEMP              0 ****  ****    0 ROOT
