@<TRIPOS>MOLECULE
T30
   48    51     1     0     0
SMALL
bcc


@<TRIPOS>ATOM
      1 F21         6.3540    3.3460   -0.8360 f         1 T30     -0.138900
      2 C18         5.6560    2.1980   -0.6730 ca        1 T30      0.127900
      3 C14         4.9590    1.6370   -1.7600 ca        1 T30     -0.168000
      4 C9          4.2470    0.4570   -1.5820 ca        1 T30     -0.095000
      5 C13         5.6290    1.5670    0.5840 ca        1 T30     -0.168000
      6 C8          4.9090    0.3870    0.7430 ca        1 T30     -0.095000
      7 C3          4.2160   -0.1810   -0.3330 ca        1 T30     -0.070300
      8 C1          3.4730   -1.4500   -0.1890 cx        1 T30     -0.105000
      9 C4          4.1790   -2.7310   -0.6100 cx        1 T30     -0.103400
     10 C5          3.8930   -2.4850    0.8350 cx        1 T30     -0.103400
     11 C2          2.0390   -1.3530   -0.5340 cc        1 T30      0.400800
     12 N6          0.9870   -0.8720    0.2690 na        1 T30     -0.297700
     13 C11         1.0030   -0.1850    1.5460 c3        1 T30      0.051000
     14 C16         1.7420   -0.9420    2.6480 c3        1 T30     -0.113600
     15 C17         1.5500    1.2410    1.4600 c3        1 T30     -0.113600
     16 N7          1.5070   -1.7680   -1.7340 nd        1 T30     -0.356000
     17 N12         0.2120   -1.5750   -1.7370 nd        1 T30     -0.331000
     18 C10        -0.1660   -1.0280   -0.5360 cc        1 T30      0.391000
     19 C15        -1.5320   -0.6860   -0.1490 ca        1 T30     -0.130500
     20 C19        -2.2780    0.1700   -0.9680 ca        1 T30     -0.078500
     21 C22        -3.5930    0.4910   -0.6330 ca        1 T30     -0.153000
     22 C20        -2.1120   -1.2450    0.9980 ca        1 T30     -0.078500
     23 C23        -3.4250   -0.9400    1.3430 ca        1 T30     -0.153000
     24 C24        -4.1520   -0.0620    0.5220 ca        1 T30      0.124100
     25 O25        -5.4230    0.2470    0.9990 os        1 T30     -0.368900
     26 C26        -6.4230    0.6480    0.1010 c3        1 T30      0.824700
     27 F29        -6.5160   -0.1550   -0.9870 f         1 T30     -0.212633
     28 F27        -7.5720    0.5750    0.8160 f         1 T30     -0.212633
     29 F28        -6.2360    1.9290   -0.3070 f         1 T30     -0.212633
     30 H14         4.9850    2.1360   -2.7390 ha        1 T30      0.151000
     31 H9          3.7010    0.0140   -2.4310 ha        1 T30      0.148000
     32 H13         6.1760    2.0100    1.4280 ha        1 T30      0.151000
     33 H8          4.8890   -0.1000    1.7300 ha        1 T30      0.148000
     34 H4          3.6060   -3.5010   -1.1560 hc        1 T30      0.083450
     35 H4A         5.2190   -2.6490   -0.9760 hc        1 T30      0.083450
     36 H5          4.7290   -2.2490    1.5180 hc        1 T30      0.083450
     37 H5A         3.1050   -3.0770    1.3360 hc        1 T30      0.083450
     38 H11        -0.0860   -0.1090    1.8630 h1        1 T30      0.071700
     39 H16         2.8450   -0.9270    2.4700 hc        1 T30      0.052533
     40 H16A        1.5310   -0.4380    3.6220 hc        1 T30      0.052533
     41 H16B        1.4010   -2.0030    2.7130 hc        1 T30      0.052533
     42 H17         0.9730    1.8470    0.7210 hc        1 T30      0.052533
     43 H17A        1.4560    1.7180    2.4650 hc        1 T30      0.052533
     44 H17B        2.6260    1.2400    1.1600 hc        1 T30      0.052533
     45 H19        -1.8290    0.5860   -1.8840 ha        1 T30      0.152500
     46 H22        -4.1820    1.1610   -1.2770 ha        1 T30      0.157500
     47 H20        -1.5360   -1.9450    1.6230 ha        1 T30      0.152500
     48 H23        -3.8950   -1.3690    2.2390 ha        1 T30      0.157500
@<TRIPOS>BOND
     1    1    2 1   
     2    2    3 ar  
     3    2    5 ar  
     4    3    4 ar  
     5    3   30 1   
     6    4    7 ar  
     7    4   31 1   
     8    5    6 ar  
     9    5   32 1   
    10    6    7 ar  
    11    6   33 1   
    12    7    8 1   
    13    8    9 1   
    14    8   10 1   
    15    8   11 1   
    16    9   10 1   
    17    9   34 1   
    18    9   35 1   
    19   10   36 1   
    20   10   37 1   
    21   11   12 1   
    22   11   16 2   
    23   12   13 1   
    24   12   18 1   
    25   13   14 1   
    26   13   15 1   
    27   13   38 1   
    28   14   39 1   
    29   14   40 1   
    30   14   41 1   
    31   15   42 1   
    32   15   43 1   
    33   15   44 1   
    34   16   17 1   
    35   17   18 2   
    36   18   19 1   
    37   19   20 ar  
    38   19   22 ar  
    39   20   21 ar  
    40   20   45 1   
    41   21   24 ar  
    42   21   46 1   
    43   22   23 ar  
    44   22   47 1   
    45   23   24 ar  
    46   23   48 1   
    47   24   25 1   
    48   25   26 1   
    49   26   27 1   
    50   26   28 1   
    51   26   29 1   
@<TRIPOS>SUBSTRUCTURE
     1 T30         1 TEMP              0 ****  ****    0 ROOT
