@<TRIPOS>MOLECULE
T30
   48    51     1     0     0
SMALL
bcc


@<TRIPOS>ATOM
      1 F21        -0.0150   -0.6860    0.1760 f         1 T30     -0.138900
      2 C18         1.3260   -0.5110    0.1130 ca        1 T30      0.127900
      3 C14         2.1310   -0.8350    1.2220 ca        1 T30     -0.168000
      4 C9          3.5070   -0.6530    1.1460 ca        1 T30     -0.095000
      5 C13         1.9130   -0.0040   -1.0600 ca        1 T30     -0.168000
      6 C8          3.2920    0.1730   -1.1160 ca        1 T30     -0.095000
      7 C3          4.1010   -0.1500   -0.0210 ca        1 T30     -0.070300
      8 C1          5.5700    0.0020   -0.0740 cx        1 T30     -0.105000
      9 C4          6.3930   -1.2320   -0.4160 cx        1 T30     -0.103400
     10 C5          6.3150   -0.1020   -1.3900 cx        1 T30     -0.103400
     11 C2          6.1240    0.8860    0.9730 cc        1 T30      0.400800
     12 N6          6.1750    2.2930    0.9790 na        1 T30     -0.297700
     13 C11         5.5640    3.2700    0.0980 c3        1 T30      0.051000
     14 C16         5.9180    3.0820   -1.3760 c3        1 T30     -0.113600
     15 C17         4.0440    3.3520    0.2460 c3        1 T30     -0.113600
     16 N7          6.7240    0.4300    2.1260 nd        1 T30     -0.356000
     17 N12         7.1330    1.4440    2.8450 nd        1 T30     -0.331000
     18 C10         6.8250    2.6140    2.1950 cc        1 T30      0.391000
     19 C15         7.1360    3.9590    2.6680 ca        1 T30     -0.130500
     20 C19         6.7000    4.3520    3.9390 ca        1 T30     -0.078500
     21 C22         7.0060    5.6220    4.4250 ca        1 T30     -0.153000
     22 C20         7.9060    4.8320    1.8870 ca        1 T30     -0.078500
     23 C23         8.2260    6.1010    2.3600 ca        1 T30     -0.153000
     24 C24         7.7610    6.4870    3.6280 ca        1 T30      0.124100
     25 O25         8.0600    7.8030    3.9720 os        1 T30     -0.368900
     26 C26         8.1440    8.1660    5.3240 c3        1 T30      0.824700
     27 F29         8.8940    7.3110    6.0600 f         1 T30     -0.212633
     28 F27         8.7310    9.3880    5.3130 f         1 T30     -0.212633
     29 F28         6.9120    8.2720    5.8830 f         1 T30     -0.212633
     30 H14         1.6650   -1.2310    2.1360 ha        1 T30      0.151000
     31 H9          4.1410   -0.9070    2.0120 ha        1 T30      0.148000
     32 H13         1.2780    0.2460   -1.9230 ha        1 T30      0.151000
     33 H8          3.7440    0.5730   -2.0370 ha        1 T30      0.148000
     34 H4          7.3350   -1.4140    0.1330 hc        1 T30      0.083450
     35 H4A         5.8500   -2.1690   -0.6330 hc        1 T30      0.083450
     36 H5          5.7340   -0.2320   -2.3210 hc        1 T30      0.083450
     37 H5A         7.2020    0.5400   -1.5420 hc        1 T30      0.083450
     38 H11         5.9880    4.2740    0.4200 h1        1 T30      0.071700
     39 H16         5.4080    2.1810   -1.7960 hc        1 T30      0.052533
     40 H16A        5.5710    3.9830   -1.9380 hc        1 T30      0.052533
     41 H16B        7.0190    2.9730   -1.5200 hc        1 T30      0.052533
     42 H17         3.6690    4.1750   -0.4090 hc        1 T30      0.052533
     43 H17A        3.7550    3.5750    1.3010 hc        1 T30      0.052533
     44 H17B        3.5590    2.3950   -0.0650 hc        1 T30      0.052533
     45 H19         6.1180    3.6530    4.5620 ha        1 T30      0.152500
     46 H22         6.6670    5.9320    5.4240 ha        1 T30      0.157500
     47 H20         8.2780    4.5110    0.9020 ha        1 T30      0.152500
     48 H23         8.8290    6.7990    1.7610 ha        1 T30      0.157500
@<TRIPOS>BOND
     1    1    2 1   
     2    2    3 ar  
     3    2    5 ar  
     4    3    4 ar  
     5    3   30 1   
     6    4    7 ar  
     7    4   31 1   
     8    5    6 ar  
     9    5   32 1   
    10    6    7 ar  
    11    6   33 1   
    12    7    8 1   
    13    8    9 1   
    14    8   10 1   
    15    8   11 1   
    16    9   10 1   
    17    9   34 1   
    18    9   35 1   
    19   10   36 1   
    20   10   37 1   
    21   11   12 1   
    22   11   16 2   
    23   12   13 1   
    24   12   18 1   
    25   13   14 1   
    26   13   15 1   
    27   13   38 1   
    28   14   39 1   
    29   14   40 1   
    30   14   41 1   
    31   15   42 1   
    32   15   43 1   
    33   15   44 1   
    34   16   17 1   
    35   17   18 2   
    36   18   19 1   
    37   19   20 ar  
    38   19   22 ar  
    39   20   21 ar  
    40   20   45 1   
    41   21   24 ar  
    42   21   46 1   
    43   22   23 ar  
    44   22   47 1   
    45   23   24 ar  
    46   23   48 1   
    47   24   25 1   
    48   25   26 1   
    49   26   27 1   
    50   26   28 1   
    51   26   29 1   
@<TRIPOS>SUBSTRUCTURE
     1 T30         1 TEMP              0 ****  ****    0 ROOT
