@<TRIPOS>MOLECULE
T30
   48    45     1     0     0
SMALL
bcc


@<TRIPOS>ATOM
      1 F21        -6.9420   -2.6370   -0.9660 f         1 T30     -0.104000
      2 C18        -5.6240   -2.3940   -1.0620 c2        1 T30      0.094000
      3 C14        -4.7210   -3.1580   -0.3290 c2        1 T30     -0.165000
      4 C9         -3.3530   -2.9470   -0.4730 c1        1 T30     -0.081000
      5 C13        -5.1590   -1.4190   -1.9390 c1        1 T30     -0.170000
      6 C8         -3.7910   -1.2080   -2.0840 c1        1 T30     -0.104000
      7 C3         -2.8870   -1.9720   -1.3510 c1        1 T30     -0.066000
      8 C1         -1.3720   -1.7970   -1.5730 cx        1 T30     -0.020000
      9 C4         -0.9930   -1.7740   -3.0530 cx        1 T30     -0.183000
     10 C5         -1.2170   -3.0920   -2.3690 cx        1 T30     -0.183000
     11 C2          0.0050   -1.5250   -0.9310 c2        1 T30     -0.054000
     12 N6          0.3680   -0.4000   -0.2780 n2        1 T30     -0.142000
     13 C11        -0.5050    0.7110    0.0560 c2        1 T30      0.031000
     14 C16        -0.0190    1.9790   -0.6640 c3        1 T30     -0.230500
     15 C17        -0.4810    0.9440    1.5730 c3        1 T30     -0.230500
     16 N7          1.0730   -2.3450   -0.9730 n2        1 T30     -0.085000
     17 N12         2.1010   -1.7270   -0.3440 n2        1 T30     -0.068000
     18 C10         1.6660   -0.5280    0.0840 c2        1 T30     -0.065000
     19 C15         2.4400    0.4410    0.7620 c1        1 T30     -0.002000
     20 C19         2.6420    0.3300    2.1360 c1        1 T30     -0.105500
     21 C22         3.5270    1.1890    2.7820 c1        1 T30     -0.105500
     22 C20         3.1240    1.4130    0.0350 c1        1 T30     -0.093000
     23 C23         4.0090    2.2730    0.6830 c1        1 T30     -0.140000
     24 C24         4.2100    2.1600    2.0550 c1        1 T30      0.050000
     25 O25         5.1010    3.0420    2.7150 os        1 T30     -0.251000
     26 C26         4.4810    4.2090    3.2240 c3        1 T30      0.535000
     27 F29         3.2300    3.9180    3.6120 f         1 T30     -0.144667
     28 F27         4.4460    5.1510    2.2680 f         1 T30     -0.144667
     29 F28         5.1810    4.6640    4.2760 f         1 T30     -0.144667
     30 H14        -5.0490   -3.8460    0.2900 ha        1 T30      0.153000
     31 H9         -2.7160   -3.4860    0.0440 ha        1 T30      0.160000
     32 H13        -5.7960   -0.8800   -2.4560 ha        1 T30      0.149000
     33 H8         -3.4630   -0.5210   -2.7020 ha        1 T30      0.133000
     34 H4         -0.0570   -1.5500   -3.2490 hc        1 T30      0.122750
     35 H4A        -1.7020   -1.4880   -3.6700 hc        1 T30      0.122750
     36 H5         -2.0530   -3.5530   -2.5990 hc        1 T30      0.122750
     37 H5A        -0.4080   -3.6150   -2.1790 hc        1 T30      0.122750
     38 H11        -1.4210    0.5040   -0.2280 ha        1 T30      0.114000
     39 H16        -0.7770    2.5950   -0.7900 hc        1 T30      0.091167
     40 H16A        0.6720    2.4170   -0.1230 hc        1 T30      0.091167
     41 H16B        0.3550    1.7350   -1.5390 hc        1 T30      0.091167
     42 H17         0.2390    1.5720    1.7970 hc        1 T30      0.091167
     43 H17A       -1.3450    1.3170    1.8620 hc        1 T30      0.091167
     44 H17B       -0.3230    0.0890    2.0330 hc        1 T30      0.091167
     45 H19         2.1600   -0.3550    2.6480 ha        1 T30      0.156500
     46 H22         3.6690    1.1110    3.7510 ha        1 T30      0.156500
     47 H20         2.9830    1.4930   -0.9330 ha        1 T30      0.151000
     48 H23         4.4910    2.9580    0.1700 ha        1 T30      0.159000
@<TRIPOS>BOND
     1    1    2 1   
     2    2    3 1   
     3    2    5 1   
     4    3    4 1   
     5    3   30 1   
     6    4   31 1   
     7    5   32 1   
     8    6    7 1   
     9    6   33 1   
    10    7    8 1   
    11    8    9 1   
    12    8   10 1   
    13    8   11 1   
    14    9   10 1   
    15    9   34 1   
    16    9   35 1   
    17   10   36 1   
    18   10   37 1   
    19   11   12 1   
    20   11   16 1   
    21   12   18 1   
    22   13   14 1   
    23   13   15 1   
    24   13   38 1   
    25   14   39 1   
    26   14   40 1   
    27   14   41 1   
    28   15   42 1   
    29   15   43 1   
    30   15   44 1   
    31   16   17 1   
    32   17   18 1   
    33   18   19 1   
    34   19   22 1   
    35   20   21 1   
    36   20   45 1   
    37   21   46 1   
    38   22   47 1   
    39   23   24 1   
    40   23   48 1   
    41   24   25 1   
    42   25   26 1   
    43   26   27 1   
    44   26   28 1   
    45   26   29 1   
@<TRIPOS>SUBSTRUCTURE
     1 T30         1 TEMP              0 ****  ****    0 ROOT
