@<TRIPOS>MOLECULE
T30
   48    51     1     0     0
SMALL
bcc


@<TRIPOS>ATOM
      1 F21        -0.0120   -0.6990    0.2050 f         1 T30     -0.138900
      2 C18         1.3280   -0.5200    0.1350 ca        1 T30      0.127900
      3 C14         2.1390   -0.8430    1.2390 ca        1 T30     -0.168000
      4 C9          3.5150   -0.6580    1.1560 ca        1 T30     -0.095000
      5 C13         1.9070   -0.0110   -1.0410 ca        1 T30     -0.168000
      6 C8          3.2850    0.1690   -1.1050 ca        1 T30     -0.095000
      7 C3          4.1010   -0.1530   -0.0140 ca        1 T30     -0.070300
      8 C1          5.5690    0.0030   -0.0760 cx        1 T30     -0.105000
      9 C4          6.3930   -1.2290   -0.4240 cx        1 T30     -0.103400
     10 C5          6.3070   -0.0980   -1.3960 cx        1 T30     -0.103400
     11 C2          6.1280    0.8870    0.9690 cc        1 T30      0.400800
     12 N6          6.1750    2.2940    0.9760 na        1 T30     -0.297700
     13 C11         5.5580    3.2700    0.0990 c3        1 T30      0.051000
     14 C16         5.9040    3.0850   -1.3770 c3        1 T30     -0.113600
     15 C17         4.0380    3.3490    0.2550 c3        1 T30     -0.113600
     16 N7          6.7340    0.4320    2.1180 nd        1 T30     -0.356000
     17 N12         7.1450    1.4460    2.8360 nd        1 T30     -0.331000
     18 C10         6.8310    2.6150    2.1880 cc        1 T30      0.391000
     19 C15         7.1420    3.9610    2.6610 ca        1 T30     -0.130500
     20 C19         6.7110    4.3520    3.9350 ca        1 T30     -0.078500
     21 C22         7.0170    5.6220    4.4190 ca        1 T30     -0.153000
     22 C20         7.9050    4.8370    1.8770 ca        1 T30     -0.078500
     23 C23         8.2250    6.1060    2.3490 ca        1 T30     -0.153000
     24 C24         7.7660    6.4900    3.6190 ca        1 T30      0.124100
     25 O25         8.0650    7.8060    3.9630 os        1 T30     -0.368900
     26 C26         8.1480    8.1700    5.3140 c3        1 T30      0.824700
     27 F29         8.9010    7.3170    6.0510 f         1 T30     -0.212633
     28 F27         8.7330    9.3930    5.3030 f         1 T30     -0.212633
     29 F28         6.9170    8.2740    5.8750 f         1 T30     -0.212633
     30 H14         1.6800   -1.2400    2.1550 ha        1 T30      0.151000
     31 H9          4.1540   -0.9110    2.0180 ha        1 T30      0.148000
     32 H13         1.2670    0.2390   -1.9000 ha        1 T30      0.151000
     33 H8          3.7320    0.5720   -2.0270 ha        1 T30      0.148000
     34 H4          5.8510   -2.1680   -0.6380 hc        1 T30      0.083450
     35 H4A         7.3380   -1.4090    0.1200 hc        1 T30      0.083450
     36 H5          5.7210   -0.2290   -2.3240 hc        1 T30      0.083450
     37 H5A         7.1920    0.5450   -1.5530 hc        1 T30      0.083450
     38 H11         5.9810    4.2760    0.4190 h1        1 T30      0.071700
     39 H16         5.5520    3.9850   -1.9360 hc        1 T30      0.052533
     40 H16A        7.0050    2.9780   -1.5270 hc        1 T30      0.052533
     41 H16B        5.3930    2.1830   -1.7950 hc        1 T30      0.052533
     42 H17         3.6570    4.1720   -0.3970 hc        1 T30      0.052533
     43 H17A        3.5530    2.3910   -0.0530 hc        1 T30      0.052533
     44 H17B        3.7550    3.5710    1.3120 hc        1 T30      0.052533
     45 H19         6.1350    3.6520    4.5600 ha        1 T30      0.152500
     46 H22         6.6820    5.9310    5.4210 ha        1 T30      0.157500
     47 H20         8.2730    4.5170    0.8900 ha        1 T30      0.152500
     48 H23         8.8230    6.8060    1.7470 ha        1 T30      0.157500
@<TRIPOS>BOND
     1    1    2 1   
     2    2    3 ar  
     3    2    5 ar  
     4    3    4 ar  
     5    3   30 1   
     6    4    7 ar  
     7    4   31 1   
     8    5    6 ar  
     9    5   32 1   
    10    6    7 ar  
    11    6   33 1   
    12    7    8 1   
    13    8    9 1   
    14    8   10 1   
    15    8   11 1   
    16    9   10 1   
    17    9   34 1   
    18    9   35 1   
    19   10   36 1   
    20   10   37 1   
    21   11   12 1   
    22   11   16 2   
    23   12   13 1   
    24   12   18 1   
    25   13   14 1   
    26   13   15 1   
    27   13   38 1   
    28   14   39 1   
    29   14   40 1   
    30   14   41 1   
    31   15   42 1   
    32   15   43 1   
    33   15   44 1   
    34   16   17 1   
    35   17   18 2   
    36   18   19 1   
    37   19   20 ar  
    38   19   22 ar  
    39   20   21 ar  
    40   20   45 1   
    41   21   24 ar  
    42   21   46 1   
    43   22   23 ar  
    44   22   47 1   
    45   23   24 ar  
    46   23   48 1   
    47   24   25 1   
    48   25   26 1   
    49   26   27 1   
    50   26   28 1   
    51   26   29 1   
@<TRIPOS>SUBSTRUCTURE
     1 T30         1 TEMP              0 ****  ****    0 ROOT
