@<TRIPOS>MOLECULE
T32
   39    40     1     0     0
SMALL
bcc


@<TRIPOS>ATOM
      1 P          -1.5560   -0.4030   -2.6780 p5        1 T32      1.334900
      2 O1P        -2.1730    0.9190   -3.0200 o         1 T32     -0.923167
      3 O2P        -1.7540   -1.5660   -3.5960 o         1 T32     -0.923167
      4 O3P        -1.5780   -0.7220   -1.1900 o         1 T32     -0.923167
      5 O5'         0.1450   -0.0800   -2.8670 os        1 T32     -0.574200
      6 C5'         0.6070    0.8990   -2.0220 c3        1 T32      0.232400
      7 C4'         1.6770    0.3410   -1.0580 c3        1 T32     -0.131700
      8 C3'         1.4270   -1.1510   -0.7800 c3        1 T32      0.114100
      9 O3'         2.1940   -1.9620   -1.6580 oh        1 T32     -0.648800
     10 C2'         1.8730   -1.4010    0.6560 c3        1 T32     -0.089400
     11 C1'         1.6760   -0.0620    1.3970 c3        1 T32      0.109700
     12 N1          0.4640   -0.0370    2.2170 n         1 T32     -0.351000
     13 C2          0.5720    0.1080    3.6130 c         1 T32      0.790500
     14 O2          1.6740    0.2450    4.2080 o         1 T32     -0.717500
     15 N3         -0.6070    0.1040    4.3760 n         1 T32     -0.598500
     16 C4         -1.8930   -0.0490    3.8120 c         1 T32      0.715700
     17 O4         -2.8580   -0.0420    4.6060 o         1 T32     -0.688500
     18 C5         -1.9400   -0.1980    2.3620 cc        1 T32     -0.297400
     19 C5M        -3.2430   -0.3670    1.6870 c3        1 T32     -0.037900
     20 C6         -0.7830   -0.1870    1.6260 cd        1 T32      0.052600
     21 C'          1.6830    1.0460    0.3000 c3        1 T32     -0.071700
     22 CM'         2.8900    1.9400    0.4710 c3        1 T32     -0.081100
     23 H5'1       -0.2440    1.3490   -1.4340 h1        1 T32     -0.007300
     24 H5'2        1.1000    1.7250   -2.6180 h1        1 T32     -0.007300
     25 H4'         2.6830    0.4460   -1.5450 hc        1 T32      0.028700
     26 H3'         0.3150   -1.3730   -0.9280 h1        1 T32      0.158700
     27 HA          1.7530   -1.8620   -2.5170 ho        1 T32      0.440000
     28 H2'1        1.2920   -2.2390    1.1100 hc        1 T32      0.041700
     29 H2'2        2.9580   -1.6740    0.6870 hc        1 T32      0.041700
     30 H1'         2.5430    0.1010    2.1020 h1        1 T32      0.067700
     31 H3         -0.5070    0.2110    5.3590 hn        1 T32      0.319500
     32 H5M1       -3.8800    0.5390    1.8410 hc        1 T32      0.056700
     33 H5M2       -3.0790   -0.5230    0.5800 hc        1 T32      0.056700
     34 H5M3       -3.7860   -1.2480    2.1100 hc        1 T32      0.056700
     35 H6         -0.8220   -0.3080    0.4860 h4        1 T32      0.319000
     36 H'          0.7590    1.6830    0.3870 hc        1 T32      0.071700
     37 HM'1        2.8590    2.4620    1.4570 hc        1 T32      0.021033
     38 HM'2        3.8360    1.3480    0.4140 hc        1 T32      0.021033
     39 HM'3        2.9060    2.7080   -0.3400 hc        1 T32      0.021033
@<TRIPOS>BOND
     1    1    2 1   
     2    1    3 1   
     3    1    4 1   
     4    1    5 1   
     5    5    6 1   
     6    6    7 1   
     7    6   23 1   
     8    6   24 1   
     9    7    8 1   
    10    7   21 1   
    11    7   25 1   
    12    8    9 1   
    13    8   10 1   
    14    8   26 1   
    15    9   27 1   
    16   10   11 1   
    17   10   28 1   
    18   10   29 1   
    19   11   12 1   
    20   11   21 1   
    21   11   30 1   
    22   12   13 1   
    23   12   20 1   
    24   13   14 2   
    25   13   15 1   
    26   15   16 1   
    27   15   31 1   
    28   16   17 2   
    29   16   18 1   
    30   18   19 1   
    31   18   20 2   
    32   19   32 1   
    33   19   33 1   
    34   19   34 1   
    35   20   35 1   
    36   21   22 1   
    37   21   36 1   
    38   22   37 1   
    39   22   38 1   
    40   22   39 1   
@<TRIPOS>SUBSTRUCTURE
     1 T32         1 TEMP              0 ****  ****    0 ROOT
