@<TRIPOS>MOLECULE
T33
   34    30     1     0     0
SMALL
bcc


@<TRIPOS>ATOM
      1 C1         -0.5260   -0.8820   -1.4920 c1        1 T33     -0.021000
      2 C2          0.8820   -0.8600   -1.4410 c1        1 T33     -0.085000
      3 C3          1.5480   -0.8170   -0.1830 c1        1 T33     -0.259000
      4 I3          3.6540   -0.7620   -0.1140 i         1 T33      0.129000
      5 C4          0.8080   -0.7960    1.0030 c2        1 T33      0.026000
      6 O4          1.4780   -0.7090    2.2550 os        1 T33     -0.154000
      7 C5         -0.5930   -0.8180    0.9560 c1        1 T33     -0.144000
      8 C6         -1.2650   -0.8610   -0.3120 c1        1 T33     -0.115000
      9 C7         -1.2620   -0.7760   -2.8800 c3        1 T33     -0.126000
     10 C8         -1.5620   -2.1810   -3.4020 c3        1 T33     -0.128000
     11 N8         -0.6470   -2.5210   -4.3680 n3        1 T33     -0.323000
     12 C9         -2.9830   -2.2120   -4.0070 c2        1 T33      0.309000
     13 O9         -3.9410   -2.7750   -3.3640 o         1 T33     -0.571500
     14 O10        -3.1830   -1.7720   -5.2010 o         1 T33     -0.571500
     15 C1'         1.3870    0.6490    2.7610 c2        1 T33      0.055000
     16 C2'         0.5730    0.9280    3.8410 c2        1 T33     -0.098000
     17 C3'         0.4430    2.2320    4.2880 c1        1 T33     -0.316000
     18 I3'        -0.7390    2.6490    5.8890 i         1 T33      0.129000
     19 C4'         1.1390    3.2690    3.6420 c2        1 T33      0.074000
     20 O4'         0.9870    4.5650    4.0640 oh        1 T33     -0.252000
     21 C5'         1.9350    2.9940    2.5870 c1        1 T33     -0.129000
     22 C6'         2.0690    1.6690    2.1310 c1        1 T33     -0.133000
     23 H2          1.4460   -0.8770   -2.3390 ha        1 T33      0.162000
     24 H5         -1.1100   -0.8030    1.7850 ha        1 T33      0.139000
     25 H6         -2.2420   -0.8800   -0.3460 ha        1 T33      0.151000
     26 H71        -0.6820   -0.2970   -3.5280 hc        1 T33      0.104500
     27 H72        -2.1390   -0.2620   -2.7610 hc        1 T33      0.104500
     28 H8         -1.5010   -2.8790   -2.5950 h1        1 T33      0.085000
     29 HN81        0.1480   -2.1390   -4.1790 hn        1 T33      0.129000
     30 HN82       -0.9280   -2.2390   -5.1500 hn        1 T33      0.129000
     31 H2'         0.1100    0.1750    4.3340 ha        1 T33      0.162000
     32 HO'4        1.6050    4.7570    4.6040 ho        1 T33      0.221000
     33 H5'         2.4450    3.7550    2.1150 ha        1 T33      0.154000
     34 H6'         2.6480    1.4750    1.4060 ha        1 T33      0.163000
@<TRIPOS>BOND
     1    1    8 1   
     2    1    9 1   
     3    2    3 1   
     4    2   23 1   
     5    3    5 1   
     6    5    6 1   
     7    5    7 1   
     8    6   15 1   
     9    7   24 1   
    10    8   25 1   
    11    9   10 1   
    12    9   26 1   
    13    9   27 1   
    14   10   11 1   
    15   10   12 1   
    16   10   28 1   
    17   11   29 1   
    18   11   30 1   
    19   12   13 1   
    20   12   14 1   
    21   15   16 1   
    22   15   22 1   
    23   16   17 1   
    24   16   31 1   
    25   17   19 1   
    26   19   20 1   
    27   19   21 1   
    28   20   32 1   
    29   21   33 1   
    30   22   34 1   
@<TRIPOS>SUBSTRUCTURE
     1 T33         1 TEMP              0 ****  ****    0 ROOT
