@<TRIPOS>MOLECULE
T33
   35    36     1     0     0
SMALL
bcc


@<TRIPOS>ATOM
      1 C1         -0.2240    0.1220   -0.0620 ca        1 T33     -0.150300
      2 C2          1.1650    0.2540    0.0480 ca        1 T33     -0.069000
      3 C3          1.7820    0.4270    1.2870 ca        1 T33     -0.001100
      4 I3          3.7950    0.6150    1.3240 i         1 T33     -0.102900
      5 C4          0.9760    0.4600    2.4390 ca        1 T33      0.153100
      6 O4          1.6250    0.6810    3.6450 os        1 T33     -0.233200
      7 C5         -0.4160    0.3180    2.3440 ca        1 T33     -0.190000
      8 C6         -1.0080    0.1480    1.0970 ca        1 T33     -0.103000
      9 C7         -0.8550   -0.0620   -1.3970 c3        1 T33     -0.046100
     10 C8         -0.8760    1.2200   -2.2150 c3        1 T33     -0.072500
     11 N8         -1.5730    2.3410   -1.5140 n4        1 T33     -0.834600
     12 C9         -1.6250    0.9180   -3.6070 c         1 T33      0.937600
     13 O9         -1.0390    0.1160   -4.3490 o         1 T33     -0.754300
     14 O10        -2.7080    1.5410   -3.7620 o         1 T33     -0.754300
     15 C1'         0.8940    0.3990    4.8020 ca        1 T33      0.034100
     16 C2'         0.5750    1.4680    5.6420 ca        1 T33     -0.061000
     17 C3'        -0.0230    1.2200    6.8800 ca        1 T33     -0.062100
     18 I3'        -0.4540    2.8070    8.0560 i         1 T33     -0.124900
     19 C4'        -0.2950   -0.1050    7.2530 ca        1 T33      0.168100
     20 O4'        -0.8820   -0.4760    8.4350 oh        1 T33     -0.483100
     21 C5'         0.0300   -1.1800    6.3960 ca        1 T33     -0.150000
     22 C6'         0.6260   -0.9290    5.1720 ca        1 T33     -0.086000
     23 H2          1.7760    0.2080   -0.8700 ha        1 T33      0.158000
     24 H5         -1.0320    0.3310    3.2560 ha        1 T33      0.155000
     25 H6         -2.0990    0.0120    1.0280 ha        1 T33      0.139000
     26 H71        -0.2800   -0.8120   -2.0100 hc        1 T33      0.094200
     27 H72        -1.8980   -0.4640   -1.2870 hc        1 T33      0.094200
     28 H8          0.1720    1.5500   -2.4490 hx        1 T33      0.089700
     29 HN81       -2.4830    2.4730   -2.0180 hn        1 T33      0.444800
     30 HN82       -1.0310    3.1980   -1.5830 hn        1 T33      0.444800
     31 H2'         0.8160    2.4950    5.3230 ha        1 T33      0.163000
     32 HO'4       -1.0460    0.3200    8.9670 ho        1 T33      0.434000
     33 H5'        -0.1920   -2.2070    6.7240 ha        1 T33      0.165000
     34 H6'         0.8950   -1.7530    4.4940 ha        1 T33      0.159000
     35 H83        -1.7420    2.1160   -0.5350 hn        1 T33      0.444800
@<TRIPOS>BOND
     1    1    2 ar  
     2    1    8 ar  
     3    1    9 1   
     4    2    3 ar  
     5    2   23 1   
     6    3    4 1   
     7    3    5 ar  
     8    5    6 1   
     9    5    7 ar  
    10    6   15 1   
    11    7    8 ar  
    12    7   24 1   
    13    8   25 1   
    14    9   10 1   
    15    9   26 1   
    16    9   27 1   
    17   10   11 1   
    18   10   12 1   
    19   10   28 1   
    20   11   29 1   
    21   11   30 1   
    22   11   35 1   
    23   12   13 1   
    24   12   14 1   
    25   15   16 ar  
    26   15   22 ar  
    27   16   17 ar  
    28   16   31 1   
    29   17   18 1   
    30   17   19 ar  
    31   19   20 1   
    32   19   21 ar  
    33   20   32 1   
    34   21   22 ar  
    35   21   33 1   
    36   22   34 1   
@<TRIPOS>SUBSTRUCTURE
     1 T33         1 TEMP              0 ****  ****    0 ROOT
