@<TRIPOS>MOLECULE
T33
   35    36     1     0     0
SMALL
bcc


@<TRIPOS>ATOM
      1 C1         -0.2330    0.1170   -0.0600 ca        1 T33     -0.150300
      2 C2          1.1570    0.2460    0.0460 ca        1 T33     -0.069000
      3 C3          1.7780    0.4240    1.2820 ca        1 T33     -0.001100
      4 I3          3.7920    0.6070    1.3120 i         1 T33     -0.102900
      5 C4          0.9750    0.4640    2.4360 ca        1 T33      0.153100
      6 O4          1.6280    0.6900    3.6390 os        1 T33     -0.233200
      7 C5         -0.4180    0.3250    2.3450 ca        1 T33     -0.190000
      8 C6         -1.0130    0.1510    1.1010 ca        1 T33     -0.103000
      9 C7         -0.8680   -0.0710   -1.3920 c3        1 T33     -0.046100
     10 C8         -0.8870    1.2070   -2.2170 c3        1 T33     -0.072500
     11 N8         -1.5800    2.3330   -1.5200 n4        1 T33     -0.834600
     12 C9         -1.6410    0.9000   -3.6050 c         1 T33      0.937600
     13 O9         -1.0590    0.0930   -4.3440 o         1 T33     -0.754300
     14 O10        -2.7230    1.5250   -3.7600 o         1 T33     -0.754300
     15 C1'         0.9010    0.4090    4.7990 ca        1 T33      0.034100
     16 C2'         0.5940    1.4780    5.6430 ca        1 T33     -0.061000
     17 C3'         0.0010    1.2320    6.8840 ca        1 T33     -0.062100
     18 I3'        -0.4130    2.8200    8.0650 i         1 T33     -0.124900
     19 C4'        -0.2770   -0.0920    7.2560 ca        1 T33      0.168100
     20 O4'        -0.8610   -0.4610    8.4400 oh        1 T33     -0.483100
     21 C5'         0.0360   -1.1670    6.3950 ca        1 T33     -0.150000
     22 C6'         0.6270   -0.9180    5.1680 ca        1 T33     -0.086000
     23 H2          1.7650    0.1950   -0.8740 ha        1 T33      0.158000
     24 H5         -1.0310    0.3430    3.2590 ha        1 T33      0.155000
     25 H6         -2.1040    0.0170    1.0360 ha        1 T33      0.139000
     26 H71        -0.2970   -0.8260   -2.0030 hc        1 T33      0.094200
     27 H72        -1.9120   -0.4690   -1.2770 hc        1 T33      0.094200
     28 H8          0.1610    1.5330   -2.4550 hx        1 T33      0.089700
     29 HN81       -2.4900    2.4650   -2.0210 hn        1 T33      0.444800
     30 HN82       -1.0360    3.1880   -1.5940 hn        1 T33      0.444800
     31 H2'         0.8400    2.5040    5.3240 ha        1 T33      0.163000
     32 HO'4       -1.0160    0.3350    8.9750 ho        1 T33      0.434000
     33 H5'        -0.1920   -2.1930    6.7220 ha        1 T33      0.165000
     34 H6'         0.8870   -1.7430    4.4870 ha        1 T33      0.159000
     35 H83        -1.7460    2.1130   -0.5390 hn        1 T33      0.444800
@<TRIPOS>BOND
     1    1    2 ar  
     2    1    8 ar  
     3    1    9 1   
     4    2    3 ar  
     5    2   23 1   
     6    3    4 1   
     7    3    5 ar  
     8    5    6 1   
     9    5    7 ar  
    10    6   15 1   
    11    7    8 ar  
    12    7   24 1   
    13    8   25 1   
    14    9   10 1   
    15    9   26 1   
    16    9   27 1   
    17   10   11 1   
    18   10   12 1   
    19   10   28 1   
    20   11   29 1   
    21   11   30 1   
    22   11   35 1   
    23   12   13 1   
    24   12   14 1   
    25   15   16 ar  
    26   15   22 ar  
    27   16   17 ar  
    28   16   31 1   
    29   17   18 1   
    30   17   19 ar  
    31   19   20 1   
    32   19   21 ar  
    33   20   32 1   
    34   21   22 ar  
    35   21   33 1   
    36   22   34 1   
@<TRIPOS>SUBSTRUCTURE
     1 T33         1 TEMP              0 ****  ****    0 ROOT
