@<TRIPOS>MOLECULE
T33
   34    35     1     0     0
SMALL
bcc


@<TRIPOS>ATOM
      1 C1          1.2460    0.9450   -2.8860 ca        1 T33     -0.029300
      2 C2         -0.0210    0.3690   -2.7300 ca        1 T33     -0.104000
      3 C3         -0.8780    0.7660   -1.7010 ca        1 T33      0.026900
      4 I3         -2.6930   -0.1240   -1.5740 i         1 T33     -0.156900
      5 C4         -0.4450    1.7620   -0.8170 ca        1 T33      0.072100
      6 O4         -1.3170    2.2970    0.1370 os        1 T33     -0.249200
      7 C5          0.8240    2.3440   -0.9520 ca        1 T33     -0.146000
      8 C6          1.6600    1.9360   -1.9850 ca        1 T33     -0.092000
      9 C7          2.1350    0.5110   -3.9960 c3        1 T33     -0.039100
     10 C8          3.2150   -0.4780   -3.5410 c3        1 T33      0.018500
     11 N8          4.2080    0.1320   -2.6670 n3        1 T33     -0.892800
     12 C9          3.8100   -1.1580   -4.8230 c         1 T33      0.889600
     13 O9          5.0660   -1.1750   -4.9500 o         1 T33     -0.836300
     14 O10         2.9930   -1.6610   -5.6420 o         1 T33     -0.836300
     15 C1'        -1.1860    1.8080    1.4310 ca        1 T33      0.097100
     16 C2'        -0.1940    0.9170    1.8420 ca        1 T33     -0.123000
     17 C3'        -0.1420    0.5020    3.1760 ca        1 T33     -0.026100
     18 I3'         1.3200   -0.7920    3.7070 i         1 T33     -0.141900
     19 C4'        -1.0930    0.9900    4.0830 ca        1 T33      0.120100
     20 O4'        -1.1420    0.6560    5.4180 oh        1 T33     -0.501100
     21 C5'        -2.0930    1.8890    3.6620 ca        1 T33     -0.139000
     22 C6'        -2.1440    2.2980    2.3400 ca        1 T33     -0.107000
     23 H2         -0.3340   -0.4180   -3.4380 ha        1 T33      0.157000
     24 H5          1.1410    3.1190   -0.2400 ha        1 T33      0.138000
     25 H6          2.6640    2.3760   -2.0890 ha        1 T33      0.154000
     26 H71         2.6160    1.4120   -4.4620 hc        1 T33      0.065700
     27 H72         1.5400   -0.0080   -4.7970 hc        1 T33      0.065700
     28 H8          2.7120   -1.2980   -2.9500 h1        1 T33      0.046700
     29 HN81        4.8810   -0.5800   -2.4390 hn        1 T33      0.333300
     30 HN82        4.7080    0.8250   -3.1990 hn        1 T33      0.333300
     31 H2'         0.5430    0.5460    1.1090 ha        1 T33      0.175000
     32 HO'4       -0.4280    0.0250    5.5990 ho        1 T33      0.424000
     33 H5'        -2.8250    2.2520    4.3970 ha        1 T33      0.149000
     34 H6'        -2.9180    2.9950    1.9890 ha        1 T33      0.152000
@<TRIPOS>BOND
     1    1    2 ar  
     2    1    8 ar  
     3    1    9 1   
     4    2    3 ar  
     5    2   23 1   
     6    3    4 1   
     7    3    5 ar  
     8    5    6 1   
     9    5    7 ar  
    10    6   15 1   
    11    7    8 ar  
    12    7   24 1   
    13    8   25 1   
    14    9   10 1   
    15    9   26 1   
    16    9   27 1   
    17   10   11 1   
    18   10   12 1   
    19   10   28 1   
    20   11   29 1   
    21   11   30 1   
    22   12   13 1   
    23   12   14 1   
    24   15   16 ar  
    25   15   22 ar  
    26   16   17 ar  
    27   16   31 1   
    28   17   18 1   
    29   17   19 ar  
    30   19   20 1   
    31   19   21 ar  
    32   20   32 1   
    33   21   22 ar  
    34   21   33 1   
    35   22   34 1   
@<TRIPOS>SUBSTRUCTURE
     1 T33         1 TEMP              0 ****  ****    0 ROOT
