@<TRIPOS>MOLECULE
T33
   35    36     1     0     0
SMALL
bcc


@<TRIPOS>ATOM
      1 C1         -0.2380    0.1130   -0.0590 ca        1 T33     -0.150300
      2 C2          1.1530    0.2240    0.0470 ca        1 T33     -0.069000
      3 C3          1.7760    0.3960    1.2820 ca        1 T33     -0.001100
      4 I3          3.7920    0.5530    1.3130 i         1 T33     -0.102900
      5 C4          0.9740    0.4490    2.4360 ca        1 T33      0.153100
      6 O4          1.6290    0.6690    3.6390 os        1 T33     -0.233200
      7 C5         -0.4210    0.3280    2.3460 ca        1 T33     -0.190000
      8 C6         -1.0180    0.1590    1.1020 ca        1 T33     -0.103000
      9 C7         -0.8750   -0.0700   -1.3910 c3        1 T33     -0.046100
     10 C8         -0.8780    1.2060   -2.2180 c3        1 T33     -0.072500
     11 N8         -1.5560    2.3430   -1.5240 nz        1 T33     -0.834600
     12 C9         -1.6350    0.9070   -3.6060 c         1 T33      0.937600
     13 O9         -1.0630    0.0900   -4.3440 o         1 T33     -0.754300
     14 O10        -2.7090    1.5460   -3.7630 o         1 T33     -0.754300
     15 C1'         0.8980    0.4000    4.8000 ca        1 T33      0.034100
     16 C2'         0.6050    1.4750    5.6410 ca        1 T33     -0.061000
     17 C3'         0.0090    1.2400    6.8830 ca        1 T33     -0.062100
     18 I3'        -0.3850    2.8350    8.0600 i         1 T33     -0.124900
     19 C4'        -0.2870   -0.0810    7.2570 ca        1 T33      0.168100
     20 O4'        -0.8750   -0.4400    8.4420 oh        1 T33     -0.483100
     21 C5'         0.0130   -1.1610    6.3990 ca        1 T33     -0.150000
     22 C6'         0.6070   -0.9220    5.1710 ca        1 T33     -0.086000
     23 H2          1.7610    0.1630   -0.8730 ha        1 T33      0.158000
     24 H5         -1.0340    0.3560    3.2600 ha        1 T33      0.155000
     25 H6         -2.1110    0.0390    1.0370 ha        1 T33      0.139000
     26 H71        -1.9240   -0.4550   -1.2760 hc        1 T33      0.094200
     27 H72        -0.3140   -0.8340   -2.0010 hc        1 T33      0.094200
     28 H8          0.1740    1.5180   -2.4570 hx        1 T33      0.089700
     29 HN81       -2.4650    2.4860   -2.0250 hn        1 T33      0.444800
     30 HN82       -1.0010    3.1910   -1.6000 hn        1 T33      0.444800
     31 H2'         0.8640    2.4970    5.3210 ha        1 T33      0.163000
     32 HO'4       -1.0210    0.3600    8.9750 ho        1 T33      0.434000
     33 H5'        -0.2290   -2.1830    6.7280 ha        1 T33      0.165000
     34 H6'         0.8560   -1.7520    4.4920 ha        1 T33      0.159000
     35 H83        -1.7250    2.1270   -0.5430 hn        1 T33      0.444800
@<TRIPOS>BOND
     1    1    2 ar  
     2    1    8 ar  
     3    1    9 1   
     4    2    3 ar  
     5    2   23 1   
     6    3    4 1   
     7    3    5 ar  
     8    5    6 1   
     9    5    7 ar  
    10    6   15 1   
    11    7    8 ar  
    12    7   24 1   
    13    8   25 1   
    14    9   10 1   
    15    9   26 1   
    16    9   27 1   
    17   10   11 1   
    18   10   12 1   
    19   10   28 1   
    20   11   29 1   
    21   11   30 1   
    22   11   35 1   
    23   12   13 1   
    24   12   14 1   
    25   15   16 ar  
    26   15   22 ar  
    27   16   17 ar  
    28   16   31 1   
    29   17   18 1   
    30   17   19 ar  
    31   19   20 1   
    32   19   21 ar  
    33   20   32 1   
    34   21   22 ar  
    35   21   33 1   
    36   22   34 1   
@<TRIPOS>SUBSTRUCTURE
     1 T33         1 TEMP              0 ****  ****    0 ROOT
