@<TRIPOS>MOLECULE
T36
   33    34     1     0     0
SMALL
bcc


@<TRIPOS>ATOM
      1 P          -1.8160   -1.2790    0.5330 p5        1 T36      1.340900
      2 O1P        -2.4820   -0.4180   -0.5130 o         1 T36     -0.926167
      3 O2P        -2.5770   -2.3840    1.1880 o         1 T36     -0.926167
      4 O3P        -0.3640   -1.5500    0.1790 o         1 T36     -0.926167
      5 O5'        -1.6500   -0.0570    1.7510 os        1 T36     -0.569200
      6 C5'        -0.4140    0.4830    1.9640 c3        1 T36      0.222400
      7 C4'        -0.1760    1.7910    1.1700 c3        1 T36      0.062100
      8 O4'         1.2070    2.1880    1.3450 os        1 T36     -0.439600
      9 C3'        -0.4310    1.6740   -0.3480 c3        1 T36      0.108100
     10 O3'        -1.5970    2.3690   -0.7330 oh        1 T36     -0.653800
     11 C2'         0.8020    2.2920   -1.0080 c3        1 T36     -0.119400
     12 C1'         1.8860    2.2310    0.0880 c3        1 T36      0.288500
     13 N1          2.8040    1.0890   -0.0590 n         1 T36     -0.357000
     14 C2          4.2230    1.3160   -0.0920 c         1 T36      0.796900
     15 O2          4.6500    2.4980   -0.0870 o         1 T36     -0.691500
     16 N3          5.1100    0.2190   -0.1550 nc        1 T36     -0.708100
     17 C4          4.5920   -0.9970   -0.1880 cd        1 T36      0.531500
     18 C5          3.1990   -1.2810   -0.1730 cd        1 T36     -0.370800
     19 C5M         2.6560   -2.6520   -0.2090 c3        1 T36     -0.053900
     20 C6          2.3280   -0.1950   -0.0970 cc        1 T36      0.073600
     21 H5'1       -0.3210    0.7610    3.0570 h1        1 T36     -0.002300
     22 H5'2        0.4050   -0.2500    1.7190 h1        1 T36     -0.002300
     23 H4'        -0.7840    2.6270    1.6050 h1        1 T36      0.046700
     24 H3'        -0.5490    0.5730   -0.6180 h1        1 T36      0.146700
     25 HA         -2.3030    1.6870   -0.7300 ho        1 T36      0.478000
     26 H2'1        1.0840    1.7380   -1.9330 hc        1 T36      0.050700
     27 H2'2        0.6150    3.3610   -1.2770 hc        1 T36      0.050700
     28 H1'         2.5240    3.1630    0.1210 h2        1 T36      0.092700
     29 H4          5.3190   -1.8310   -0.2290 h4        1 T36     -0.001200
     30 H5M1        2.8910   -3.1420   -1.1860 hc        1 T36      0.053700
     31 H5M2        3.1030   -3.2720    0.6070 hc        1 T36      0.053700
     32 H5M3        1.5320   -2.6230   -0.0730 hc        1 T36      0.053700
     33 H6          1.2060   -0.3870   -0.0670 h4        1 T36      0.297000
@<TRIPOS>BOND
     1    1    2 1   
     2    1    3 1   
     3    1    4 1   
     4    1    5 1   
     5    5    6 1   
     6    6    7 1   
     7    6   21 1   
     8    6   22 1   
     9    7    8 1   
    10    7    9 1   
    11    7   23 1   
    12    8   12 1   
    13    9   10 1   
    14    9   11 1   
    15    9   24 1   
    16   10   25 1   
    17   11   12 1   
    18   11   26 1   
    19   11   27 1   
    20   12   13 1   
    21   12   28 1   
    22   13   14 1   
    23   13   20 1   
    24   14   15 2   
    25   14   16 1   
    26   16   17 2   
    27   17   18 1   
    28   17   29 1   
    29   18   19 1   
    30   18   20 2   
    31   19   30 1   
    32   19   31 1   
    33   19   32 1   
    34   20   33 1   
@<TRIPOS>SUBSTRUCTURE
     1 T36         1 TEMP              0 ****  ****    0 ROOT
