@<TRIPOS>MOLECULE
T36
   33    32     1     0     0
SMALL
bcc


@<TRIPOS>ATOM
      1 P           3.9290   -3.5720    1.3280 p3        1 T36      2.533000
      2 O1P         5.2860   -3.8320    0.6990 o         1 T36     -1.244000
      3 O2P         4.1070   -3.2450    2.7940 os        1 T36     -1.249000
      4 O3P         3.0660   -4.8020    1.1860 o         1 T36     -1.244000
      5 O5'         3.2190   -2.3270    0.5840 os        1 T36     -0.731000
      6 C5'         2.3430   -1.4980    1.3400 c3        1 T36      0.072000
      7 C4'         2.0060   -0.2410    0.5340 c3        1 T36     -0.049000
      8 O4'         1.1030   -0.5000   -0.3400 os        1 T36     -0.296000
      9 C3'         1.3690    0.8530    1.4710 c3        1 T36     -0.003000
     10 O3'         2.2240    1.8780    1.6380 oh        1 T36     -0.381000
     11 C2'         0.1240    1.3190    0.7590 c3        1 T36     -0.198000
     12 C1'         0.2180    0.8150   -0.4640 c3        1 T36      0.140000
     13 N1         -1.0670    0.4930   -0.9570 n         1 T36     -0.250000
     14 C2         -1.3820   -0.8860   -1.3220 c2        1 T36      0.315000
     15 O2         -0.5110   -1.7340   -1.2920 o         1 T36     -0.416000
     16 N3         -2.7290   -1.2350   -1.7860 n2        1 T36     -0.281000
     17 C4         -3.6920   -0.2120   -2.0150 c1        1 T36      0.028000
     18 C5         -3.3580    1.1880   -1.7170 c1        1 T36     -0.280000
     19 C5M        -4.4400    2.2760   -1.8270 c3        1 T36     -0.176000
     20 C6         -2.0180    1.5260   -1.1900 c2        1 T36      0.071000
     21 H5'1        2.7780   -1.2430    2.1740 h1        1 T36      0.037000
     22 H5'2        1.5270   -1.9840    1.5370 h1        1 T36      0.037000
     23 H4'         2.8110    0.1110    0.0970 h1        1 T36      0.086000
     24 H3'         1.1340    0.4580    2.3480 h1        1 T36      0.186000
     25 HA          2.2280    2.1250    2.4960 ho        1 T36      0.277000
     26 H2'1       -0.6780    0.9700    1.2120 hc        1 T36      0.090000
     27 H2'2        0.0980    2.2970    0.7230 hc        1 T36      0.090000
     28 H1'         0.6540    1.4570   -1.0590 h2        1 T36      0.132000
     29 H4         -4.5540   -0.4340   -2.4000 ha        1 T36      0.128000
     30 H5M1       -5.3250    1.8720   -1.6960 hc        1 T36      0.093000
     31 H5M2       -4.3980    2.6910   -2.7150 hc        1 T36      0.093000
     32 H5M3       -4.2870    2.9610   -1.1370 hc        1 T36      0.093000
     33 H6         -1.7850    2.4560   -1.0040 h4        1 T36      0.297000
@<TRIPOS>BOND
     1    1    2 1   
     2    1    4 1   
     3    1    5 1   
     4    5    6 1   
     5    6    7 1   
     6    6   21 1   
     7    6   22 1   
     8    7    8 1   
     9    7    9 1   
    10    7   23 1   
    11    8   12 1   
    12    9   10 1   
    13    9   11 1   
    14    9   24 1   
    15   10   25 1   
    16   11   12 1   
    17   11   26 1   
    18   11   27 1   
    19   12   13 1   
    20   12   28 1   
    21   13   14 1   
    22   13   20 1   
    23   14   15 1   
    24   14   16 1   
    25   16   17 1   
    26   17   29 1   
    27   18   19 1   
    28   18   20 1   
    29   19   30 1   
    30   19   31 1   
    31   19   32 1   
    32   20   33 1   
@<TRIPOS>SUBSTRUCTURE
     1 T36         1 TEMP              0 ****  ****    0 ROOT
