@<TRIPOS>MOLECULE
T37
   35    36     1     0     0
SMALL
bcc


@<TRIPOS>ATOM
      1 P          -2.1020    1.2210   -0.7540 p5        1 T37      1.337900
      2 O1P        -0.6470    1.3950   -0.3530 o         1 T37     -0.924500
      3 O2P        -2.6910    2.2730   -1.6360 o         1 T37     -0.924500
      4 O3P        -2.9230    0.6240    0.3580 o         1 T37     -0.924500
      5 O5'        -2.0080   -0.1950   -1.7590 os        1 T37     -0.569200
      6 C5'        -0.7870   -0.7770   -1.9380 c3        1 T37      0.220400
      7 C4'        -0.5890   -2.0100   -1.0220 c3        1 T37      0.074100
      8 O4'         0.7950   -2.4270   -1.0960 os        1 T37     -0.440600
      9 C3'        -0.9230   -1.7380    0.4690 c3        1 T37      0.120500
     10 N3'        -2.2020   -2.2230    0.9420 n3        1 T37     -0.920800
     11 C2'         0.2810   -2.3170    1.2370 c3        1 T37     -0.105400
     12 C1'         1.4100   -2.3940    0.1900 c3        1 T37      0.301500
     13 N1          2.3810   -1.2890    0.2830 n         1 T37     -0.367000
     14 C2          3.7530   -1.6050    0.3430 c         1 T37      0.794500
     15 O2          4.1830   -2.7840    0.4480 o         1 T37     -0.717500
     16 N3          4.6860   -0.5540    0.3290 n         1 T37     -0.598500
     17 C4          4.3170    0.8040    0.2150 c         1 T37      0.716700
     18 O4          5.2460    1.6400    0.2020 o         1 T37     -0.690500
     19 C5          2.8850    1.0700    0.1300 cc        1 T37     -0.295400
     20 C5A         2.4100    2.4620   -0.0010 c3        1 T37     -0.043900
     21 C6          1.9860    0.0350    0.1520 cd        1 T37      0.059600
     22 H5'1        0.0540   -0.0500   -1.7600 h1        1 T37      0.001200
     23 H5'2       -0.7090   -1.1590   -3.0000 h1        1 T37      0.001200
     24 H4'        -1.1670   -2.8840   -1.4270 h1        1 T37      0.025700
     25 H3'        -0.9230   -0.5970    0.5960 h1        1 T37      0.148700
     26 HN31       -2.8020   -1.4200    1.0990 hn        1 T37      0.369300
     27 HN32       -2.6330   -2.7910    0.2370 hn        1 T37      0.369300
     28 H2'1        0.0850   -3.3490    1.6160 hc        1 T37      0.048200
     29 H2'2        0.5360   -1.6660    2.1060 hc        1 T37      0.048200
     30 H1'         2.0000   -3.3550    0.2680 h2        1 T37      0.082700
     31 H3          5.6470   -0.8040    0.3720 hn        1 T37      0.318500
     32 H5A1        2.6490    3.0420    0.9250 hc        1 T37      0.058367
     33 H5A2        2.9170    2.9630   -0.8610 hc        1 T37      0.058367
     34 H5A3        1.2920    2.4700   -0.1680 hc        1 T37      0.058367
     35 H6          0.8710    0.2540    0.0640 h4        1 T37      0.306000
@<TRIPOS>BOND
     1    1    2 1   
     2    1    3 1   
     3    1    4 1   
     4    1    5 1   
     5    5    6 1   
     6    6    7 1   
     7    6   22 1   
     8    6   23 1   
     9    7    8 1   
    10    7    9 1   
    11    7   24 1   
    12    8   12 1   
    13    9   10 1   
    14    9   11 1   
    15    9   25 1   
    16   10   26 1   
    17   10   27 1   
    18   11   12 1   
    19   11   28 1   
    20   11   29 1   
    21   12   13 1   
    22   12   30 1   
    23   13   14 1   
    24   13   21 1   
    25   14   15 2   
    26   14   16 1   
    27   16   17 1   
    28   16   31 1   
    29   17   18 2   
    30   17   19 1   
    31   19   20 1   
    32   19   21 2   
    33   20   32 1   
    34   20   33 1   
    35   20   34 1   
    36   21   35 1   
@<TRIPOS>SUBSTRUCTURE
     1 T37         1 TEMP              0 ****  ****    0 ROOT
