@<TRIPOS>MOLECULE
T38
   45    46     1     0     0
SMALL
bcc


@<TRIPOS>ATOM
      1 P          -0.5580    1.5560   -3.4020 p5        1 T38      1.330900
      2 O1P        -1.8240    0.8010   -3.1100 o         1 T38     -0.927500
      3 O2P         0.7000    0.8240   -2.9740 o         1 T38     -0.927500
      4 O3P        -0.4840    2.3760   -4.6500 o         1 T38     -0.927500
      5 O5'        -0.5720    2.7440   -2.1170 os        1 T38     -0.551200
      6 C5'        -0.7870    2.2010   -0.8830 c3        1 T38      0.225400
      7 C4'         0.5200    2.1780   -0.0530 c3        1 T38      0.052100
      8 O4'         0.1800    2.2470    1.3600 os        1 T38     -0.431600
      9 C3'         1.3780    0.9190   -0.2760 c3        1 T38      0.158100
     10 O3'         2.5500    1.2010   -0.9930 oh        1 T38     -0.649800
     11 C2'         1.7230    0.4060    1.1420 c3        1 T38      0.088100
     12 O2'         3.0400    0.8030    1.5080 os        1 T38     -0.405600
     13 C1'         0.7310    1.1630    2.0800 c3        1 T38      0.279500
     14 N1         -0.3510    0.2970    2.5970 n         1 T38     -0.371000
     15 C2         -0.2070   -0.2620    3.8830 c         1 T38      0.800500
     16 O2          0.8290   -0.1060    4.5770 o         1 T38     -0.689500
     17 N3         -1.2640   -1.0320    4.4000 n         1 T38     -0.594500
     18 C4         -2.4560   -1.2740    3.6900 c         1 T38      0.721700
     19 O4         -3.3290   -1.9690    4.2490 o         1 T38     -0.670500
     20 C5         -2.5460   -0.6770    2.3560 cc        1 T38     -0.303400
     21 C5M        -3.7690   -0.9200    1.5670 c3        1 T38     -0.022900
     22 C6         -1.5080    0.0770    1.8760 cd        1 T38      0.084600
     23 CA'         3.7090   -0.0970    2.3580 c3        1 T38      0.312200
     24 CB'         4.6560   -1.0580    0.3900 c3        1 T38      0.114400
     25 OC'         3.9890   -1.2780    1.6380 os        1 T38     -0.471600
     26 CD'         4.7670   -2.4030   -0.2870 c3        1 T38     -0.089100
     27 H5'1       -1.2010    1.1530   -0.9720 h1        1 T38     -0.003300
     28 H5'2       -1.5220    2.8360   -0.3050 h1        1 T38     -0.003300
     29 H4'         1.1190    3.1040   -0.2610 h1        1 T38      0.078700
     30 H3'         0.7820    0.1280   -0.8200 h1        1 T38      0.114700
     31 HA          2.2710    1.2100   -1.9410 ho        1 T38      0.499000
     32 H2'         1.6210   -0.7080    1.1980 h1        1 T38      0.067700
     33 H1'         1.2640    1.5940    2.9790 h2        1 T38      0.090700
     34 H3         -1.1380   -1.4250    5.3050 hn        1 T38      0.329500
     35 H5M1       -4.0260   -2.0080    1.5830 hc        1 T38      0.047367
     36 H5M2       -4.6300   -0.3550    2.0060 hc        1 T38      0.047367
     37 H5M3       -3.6310   -0.5950    0.5050 hc        1 T38      0.047367
     38 H6         -1.5380    0.5600    0.8690 h4        1 T38      0.229000
     39 HA'1        3.0870   -0.4230    3.2360 h2        1 T38      0.053700
     40 HA'2        4.6490    0.4390    2.6590 h2        1 T38      0.053700
     41 HB'1        5.6710   -0.6240    0.5990 h1        1 T38      0.056700
     42 HB'2        4.0580   -0.3330   -0.2340 h1        1 T38      0.056700
     43 HD'1        5.2760   -2.2760   -1.2720 hc        1 T38      0.034033
     44 HD'2        5.3520   -3.1180    0.3400 hc        1 T38      0.034033
     45 HD'3        3.7500   -2.8320   -0.4570 hc        1 T38      0.034033
@<TRIPOS>BOND
     1    1    2 1   
     2    1    3 1   
     3    1    4 1   
     4    1    5 1   
     5    5    6 1   
     6    6    7 1   
     7    6   27 1   
     8    6   28 1   
     9    7    8 1   
    10    7    9 1   
    11    7   29 1   
    12    8   13 1   
    13    9   10 1   
    14    9   11 1   
    15    9   30 1   
    16   10   31 1   
    17   11   12 1   
    18   11   13 1   
    19   11   32 1   
    20   12   23 1   
    21   13   14 1   
    22   13   33 1   
    23   14   15 1   
    24   14   22 1   
    25   15   16 2   
    26   15   17 1   
    27   17   18 1   
    28   17   34 1   
    29   18   19 2   
    30   18   20 1   
    31   20   21 1   
    32   20   22 2   
    33   21   35 1   
    34   21   36 1   
    35   21   37 1   
    36   22   38 1   
    37   23   25 1   
    38   23   39 1   
    39   23   40 1   
    40   24   25 1   
    41   24   26 1   
    42   24   41 1   
    43   24   42 1   
    44   26   43 1   
    45   26   44 1   
    46   26   45 1   
@<TRIPOS>SUBSTRUCTURE
     1 T38         1 TEMP              0 ****  ****    0 ROOT
