@<TRIPOS>MOLECULE
T39
   45    45     1     0     0
SMALL
bcc


@<TRIPOS>ATOM
      1 P          -0.0760   -3.4090    4.2210 p3        1 T39      2.536000
      2 OP1         1.4530   -3.3420    4.3250 o         1 T39     -1.243667
      3 OP2        -0.6820   -3.2810    5.6030 o         1 T39     -1.243667
      4 O5'        -0.6060   -2.2080    3.2910 o         1 T39     -0.731000
      5 C5'         0.1820   -1.8090    2.1860 c3        1 T39      0.071000
      6 C4'        -0.6260   -1.5170    1.1390 c3        1 T39     -0.045000
      7 O4'        -1.3810   -0.2540    1.4030 os        1 T39     -0.289000
      8 C3'         0.2610   -1.2310   -0.1920 c3        1 T39     -0.027000
      9 O3'         0.0930   -2.3570   -1.1820 oh        1 T39     -0.389000
     10 C2'        -0.1870   -0.1940   -0.6500 c3        1 T39     -0.007000
     11 O2'        -1.2580   -0.4980   -1.6510 os        1 T39     -0.284000
     12 C1'        -0.8250    0.6350    0.6330 c3        1 T39      0.155000
     13 N1          0.1830    1.3000    1.3240 n         1 T39     -0.263000
     14 C2          0.0680    1.4880    2.8120 c2        1 T39      0.388000
     15 O2         -0.9250    1.1280    3.3850 o         1 T39     -0.428000
     16 N3          1.1020    2.2420    3.5430 n         1 T39     -0.379000
     17 C4          2.1290    2.9300    2.8230 c2        1 T39      0.355000
     18 O4          2.9280    3.6320    3.4200 o         1 T39     -0.411000
     19 C5          2.2240    2.7850    1.3480 c2        1 T39     -0.266000
     20 C7          3.2870    3.5040    0.6000 c3        1 T39     -0.167000
     21 C6          1.2030    1.9620    0.6090 c2        1 T39      0.050000
     22 CA'        -1.0560    0.1290   -2.9320 c3        1 T39      0.002000
     23 CD'        -2.5440   -0.6400   -6.2490 c3        1 T39     -0.062000
     24 CB'        -2.1420   -0.3860   -3.9460 c3        1 T39     -0.039000
     25 OC'        -1.7670   -0.0340   -5.2370 os        1 T39     -0.302000
     26 OP3        -0.4850   -4.7510    3.6050 o         1 T39     -1.243667
     27 H5'         0.7140   -1.0050    2.4300 h1        1 T39      0.040000
     28 H5''        0.7860   -2.5360    1.9360 h1        1 T39      0.040000
     29 H4'        -1.2540   -2.2600    0.9770 h1        1 T39      0.089000
     30 H3'         1.1830   -1.1240    0.0390 h1        1 T39      0.192000
     31 HO3'        0.7440   -2.9350   -1.0800 ho        1 T39      0.290000
     32 H7          0.5350    0.3360   -1.0730 h1        1 T39      0.093000
     33 H1'        -1.4890    1.2690    0.3200 h2        1 T39      0.150000
     34 H3          1.1120    2.2330    4.4510 hn        1 T39      0.234000
     35 H71         3.2160    4.4840    0.7800 hc        1 T39      0.098000
     36 H72         3.1790    3.3390   -0.3650 hc        1 T39      0.098000
     37 H73         4.1760    3.1770    0.8950 hc        1 T39      0.098000
     38 H6          1.2330    1.9040   -0.3750 h4        1 T39      0.298000
     39 HCA2       -0.1590   -0.0940   -3.2700 h1        1 T39      0.088500
     40 HCA1       -1.1350    1.1100   -2.8340 h1        1 T39      0.088500
     41 HCD1       -2.2980   -0.2600   -7.1190 h1        1 T39      0.056333
     42 HCD2       -3.5200   -0.4690   -6.0720 h1        1 T39      0.056333
     43 HCD3       -2.3730   -1.6250   -6.2570 h1        1 T39      0.056333
     44 HCB1       -2.2170   -1.3790   -3.8790 h1        1 T39      0.097000
     45 HCB2       -2.9850    0.0120   -3.7390 h1        1 T39      0.097000
@<TRIPOS>BOND
     1    1    2 1   
     2    1    3 1   
     3    1   26 1   
     4    4    5 1   
     5    5    6 1   
     6    5   27 1   
     7    5   28 1   
     8    6    7 1   
     9    6    8 1   
    10    6   29 1   
    11    7   12 1   
    12    8    9 1   
    13    8   10 1   
    14    8   30 1   
    15    9   31 1   
    16   10   11 1   
    17   10   12 1   
    18   10   32 1   
    19   11   22 1   
    20   12   13 1   
    21   12   33 1   
    22   13   14 1   
    23   13   21 1   
    24   14   15 1   
    25   14   16 1   
    26   16   17 1   
    27   16   34 1   
    28   17   18 1   
    29   17   19 1   
    30   19   20 1   
    31   19   21 1   
    32   20   35 1   
    33   20   36 1   
    34   20   37 1   
    35   21   38 1   
    36   22   24 1   
    37   22   39 1   
    38   22   40 1   
    39   23   25 1   
    40   23   41 1   
    41   23   42 1   
    42   23   43 1   
    43   24   25 1   
    44   24   44 1   
    45   24   45 1   
@<TRIPOS>SUBSTRUCTURE
     1 T39         1 TEMP              0 ****  ****    0 ROOT
