@<TRIPOS>MOLECULE
T39
   45    46     1     0     0
SMALL
bcc


@<TRIPOS>ATOM
      1 P           2.6440    0.0460    1.1820 p5        1 T39      1.343900
      2 OP1         2.6790   -1.1070    0.2050 o         1 T39     -0.924500
      3 OP2         1.7260    1.1450    0.6770 o         1 T39     -0.924500
      4 O5'         1.6350   -0.7160    2.3680 os        1 T39     -0.569200
      5 C5'         0.3280   -0.3250    2.4580 c3        1 T39      0.221400
      6 C4'        -0.6290   -1.2180    1.6280 c3        1 T39      0.066100
      7 O4'        -1.9520   -0.6280    1.6610 os        1 T39     -0.432600
      8 C3'        -0.2240   -1.3620    0.1480 c3        1 T39      0.083100
      9 O3'         0.2880   -2.6420   -0.1330 oh        1 T39     -0.658800
     10 C2'        -1.4870   -1.0390   -0.6650 c3        1 T39      0.106100
     11 O2'        -2.2740   -2.1550   -1.0790 os        1 T39     -0.434600
     12 C1'        -2.3940   -0.2780    0.3550 c3        1 T39      0.303500
     13 N1         -2.3630    1.1780    0.1500 n         1 T39     -0.370000
     14 C2         -3.5900    1.8740    0.1040 c         1 T39      0.797500
     15 O2         -4.7080    1.2960    0.1050 o         1 T39     -0.704500
     16 N3         -3.5630    3.2760    0.0090 n         1 T39     -0.599500
     17 C4         -2.3680    4.0270    0.0090 c         1 T39      0.716700
     18 O4         -2.4820    5.2690   -0.0680 o         1 T39     -0.685500
     19 C5         -1.1310    3.2580    0.0960 cc        1 T39     -0.288400
     20 C7          0.1660    3.9650    0.1200 c3        1 T39     -0.044900
     21 C6         -1.1720    1.8910    0.1770 cd        1 T39      0.051600
     22 CA'        -1.6540   -2.9780   -2.0620 c3        1 T39      0.117400
     23 CD'        -3.7960   -4.7620   -0.8120 c3        1 T39      0.118700
     24 CB'        -1.5620   -4.4060   -1.5370 c3        1 T39      0.112400
     25 OC'        -2.7760   -5.1320   -1.7240 os        1 T39     -0.452600
     26 OP3         3.8800    0.4510    1.9120 o         1 T39     -0.924500
     27 H5'        -0.0080   -0.4220    3.5330 h1        1 T39      0.000700
     28 H5''        0.1950    0.7470    2.1400 h1        1 T39      0.000700
     29 H4'        -0.7400   -2.2270    2.1050 h1        1 T39      0.050700
     30 H3'         0.5840   -0.5840   -0.0830 h1        1 T39      0.154700
     31 HO3'        1.2630   -2.5470   -0.0260 ho        1 T39      0.489000
     32 H7         -1.2300   -0.4250   -1.5680 h1        1 T39      0.053700
     33 H1'        -3.4700   -0.6160    0.2880 h2        1 T39      0.108700
     34 H3         -4.4400    3.7420   -0.0240 hn        1 T39      0.320500
     35 H71         0.3530    4.4650   -0.8620 hc        1 T39      0.059033
     36 H72         0.1590    4.7530    0.9130 hc        1 T39      0.059033
     37 H73         0.9990    3.2300    0.3300 hc        1 T39      0.059033
     38 H6         -0.1990    1.3070    0.2690 h4        1 T39      0.299000
     39 HCA2       -2.3180   -2.9320   -2.9670 h1        1 T39      0.047700
     40 HCA1       -0.6230   -2.6160   -2.3130 h1        1 T39      0.047700
     41 HCD1       -3.4990   -5.0360    0.2320 h1        1 T39      0.029367
     42 HCD2       -4.0020   -3.6640   -0.8690 h1        1 T39      0.029367
     43 HCD3       -4.6910   -5.3530   -1.1300 h1        1 T39      0.029367
     44 HCB1       -0.8140   -4.9850   -2.1420 h1        1 T39      0.066700
     45 HCB2       -1.2620   -4.3940   -0.4560 h1        1 T39      0.066700
@<TRIPOS>BOND
     1    1    2 1   
     2    1    3 1   
     3    1    4 1   
     4    1   26 1   
     5    4    5 1   
     6    5    6 1   
     7    5   27 1   
     8    5   28 1   
     9    6    7 1   
    10    6    8 1   
    11    6   29 1   
    12    7   12 1   
    13    8    9 1   
    14    8   10 1   
    15    8   30 1   
    16    9   31 1   
    17   10   11 1   
    18   10   12 1   
    19   10   32 1   
    20   11   22 1   
    21   12   13 1   
    22   12   33 1   
    23   13   14 1   
    24   13   21 1   
    25   14   15 2   
    26   14   16 1   
    27   16   17 1   
    28   16   34 1   
    29   17   18 2   
    30   17   19 1   
    31   19   20 1   
    32   19   21 2   
    33   20   35 1   
    34   20   36 1   
    35   20   37 1   
    36   21   38 1   
    37   22   24 1   
    38   22   39 1   
    39   22   40 1   
    40   23   25 1   
    41   23   41 1   
    42   23   42 1   
    43   23   43 1   
    44   24   25 1   
    45   24   44 1   
    46   24   45 1   
@<TRIPOS>SUBSTRUCTURE
     1 T39         1 TEMP              0 ****  ****    0 ROOT
