@<TRIPOS>MOLECULE
T3A
   31    30     1     0     0
SMALL
bcc


@<TRIPOS>ATOM
      1 S1         -3.5090   -0.7330   -0.2540 s6        1 T3A      1.428800
      2 O1         -4.0160   -0.1920    0.9500 o         1 T3A     -0.750200
      3 O2         -2.9800   -2.0400   -0.1200 o         1 T3A     -0.750200
      4 O3         -4.3640   -0.5680   -1.3680 o         1 T3A     -0.750200
      5 C1         -2.0910    0.2830   -0.6550 c3        1 T3A     -0.289600
      6 C2         -0.9530    0.0660    0.2960 c3        1 T3A     -0.055400
      7 C3          0.3290    0.7180   -0.2220 c3        1 T3A      0.148800
      8 N1          1.4940    0.5420    0.6280 n3        1 T3A     -0.830200
      9 C4          2.6920    0.0090   -0.0220 c3        1 T3A      0.078200
     10 C5          3.8020   -0.1810    1.0570 c3        1 T3A      0.125400
     11 O5          5.0790   -0.3340    0.4760 oh        1 T3A     -0.612467
     12 C6          3.2140    0.9870   -1.1040 c3        1 T3A      0.125400
     13 O6          3.8450    2.1180   -0.5350 oh        1 T3A     -0.612467
     14 C7          2.5100   -1.3660   -0.7220 c3        1 T3A      0.125400
     15 O7          1.9040   -2.3140    0.1290 oh        1 T3A     -0.612467
     16 H11        -2.4020    1.3540   -0.6460 h1        1 T3A      0.063700
     17 H12        -1.7790    0.0420   -1.6990 h1        1 T3A      0.063700
     18 H21        -0.7950   -1.0400    0.4310 hc        1 T3A      0.050700
     19 H22        -1.2180    0.4910    1.3000 hc        1 T3A      0.050700
     20 H31         0.1620    1.8300   -0.3010 h1        1 T3A      0.034200
     21 H32         0.5150    0.3380   -1.2680 h1        1 T3A      0.034200
     22 HN1         1.2700   -0.0440    1.4140 hn        1 T3A      0.368800
     23 H51         3.6180   -1.1400    1.6120 h1        1 T3A      0.052700
     24 H52         3.8070    0.6870    1.7680 h1        1 T3A      0.052700
     25 HO5         5.3360    0.5280    0.1200 ho        1 T3A      0.416333
     26 H61         4.0180    0.4850   -1.7080 h1        1 T3A      0.052700
     27 H62         2.3850    1.3130   -1.7860 h1        1 T3A      0.052700
     28 HO6         3.2100    2.5300    0.0640 ho        1 T3A      0.416333
     29 H71         1.9290   -1.2490   -1.6730 h1        1 T3A      0.052700
     30 H72         3.5270   -1.7900   -0.9480 h1        1 T3A      0.052700
     31 HO7         0.9510   -2.1450    0.1270 ho        1 T3A      0.416333
@<TRIPOS>BOND
     1    1    2 1   
     2    1    3 1   
     3    1    4 1   
     4    1    5 1   
     5    5    6 1   
     6    5   16 1   
     7    5   17 1   
     8    6    7 1   
     9    6   18 1   
    10    6   19 1   
    11    7    8 1   
    12    7   20 1   
    13    7   21 1   
    14    8    9 1   
    15    8   22 1   
    16    9   10 1   
    17    9   12 1   
    18    9   14 1   
    19   10   11 1   
    20   10   23 1   
    21   10   24 1   
    22   11   25 1   
    23   12   13 1   
    24   12   26 1   
    25   12   27 1   
    26   13   28 1   
    27   14   15 1   
    28   14   29 1   
    29   14   30 1   
    30   15   31 1   
@<TRIPOS>SUBSTRUCTURE
     1 T3A         1 TEMP              0 ****  ****    0 ROOT
