@<TRIPOS>MOLECULE
T3A
   31    30     1     0     0
SMALL
bcc


@<TRIPOS>ATOM
      1 S1          0.5050   -0.0870   -0.6950 s6        1 T3A      1.428800
      2 O1          1.6230   -0.6640   -1.3450 o         1 T3A     -0.750200
      3 O2          0.6000   -0.0800    0.7150 o         1 T3A     -0.750200
      4 O3          0.0850    1.1430   -1.2530 o         1 T3A     -0.750200
      5 C1         -0.8470   -1.2010   -1.0610 c3        1 T3A     -0.289600
      6 C2         -0.5020   -2.6280   -0.7590 c3        1 T3A     -0.055400
      7 C3         -1.5470   -3.5820   -1.3370 c3        1 T3A      0.148800
      8 N1         -1.2840   -4.9920   -1.1080 n3        1 T3A     -0.830200
      9 C4         -1.3030   -5.8520   -2.2930 c3        1 T3A      0.078200
     10 C5         -0.9260   -7.3020   -1.8620 c3        1 T3A      0.125400
     11 O5         -1.2750   -8.2510   -2.8470 oh        1 T3A     -0.612467
     12 C6         -0.3140   -5.4490   -3.4210 c3        1 T3A      0.125400
     13 O6          0.9940   -5.2550   -2.9290 oh        1 T3A     -0.612467
     14 C7         -2.7140   -5.8750   -2.9330 c3        1 T3A      0.125400
     15 O7         -3.6260   -6.6460   -2.1760 oh        1 T3A     -0.612467
     16 H11        -1.1090   -1.0830   -2.1400 h1        1 T3A      0.063700
     17 H12        -1.7410   -0.8880   -0.4720 h1        1 T3A      0.063700
     18 H21         0.5110   -2.8590   -1.1910 hc        1 T3A      0.050700
     19 H22        -0.4310   -2.7680    0.3530 hc        1 T3A      0.050700
     20 H31        -1.6590   -3.3510   -2.4360 h1        1 T3A      0.034200
     21 H32        -2.5410   -3.3640   -0.8520 h1        1 T3A      0.034200
     22 HN1        -0.4020   -5.1140   -0.6410 hn        1 T3A      0.368800
     23 H51        -1.4220   -7.5610   -0.8890 h1        1 T3A      0.052700
     24 H52         0.1910   -7.3810   -1.7650 h1        1 T3A      0.052700
     25 HO5        -2.2390   -8.3200   -2.8480 ho        1 T3A      0.416333
     26 H61        -0.2270   -6.3070   -4.1430 h1        1 T3A      0.052700
     27 H62        -0.6810   -4.5370   -3.9590 h1        1 T3A      0.052700
     28 HO6         1.0320   -4.3750   -2.5300 ho        1 T3A      0.416333
     29 H71        -2.6650   -6.3900   -3.9310 h1        1 T3A      0.052700
     30 H72        -3.1120   -4.8350   -3.0700 h1        1 T3A      0.052700
     31 HO7        -3.6310   -6.2870   -1.2800 ho        1 T3A      0.416333
@<TRIPOS>BOND
     1    1    2 1   
     2    1    3 1   
     3    1    4 1   
     4    1    5 1   
     5    5    6 1   
     6    5   16 1   
     7    5   17 1   
     8    6    7 1   
     9    6   18 1   
    10    6   19 1   
    11    7    8 1   
    12    7   20 1   
    13    7   21 1   
    14    8    9 1   
    15    8   22 1   
    16    9   10 1   
    17    9   12 1   
    18    9   14 1   
    19   10   11 1   
    20   10   23 1   
    21   10   24 1   
    22   11   25 1   
    23   12   13 1   
    24   12   26 1   
    25   12   27 1   
    26   13   28 1   
    27   14   15 1   
    28   14   29 1   
    29   14   30 1   
    30   15   31 1   
@<TRIPOS>SUBSTRUCTURE
     1 T3A         1 TEMP              0 ****  ****    0 ROOT
