@<TRIPOS>MOLECULE
T3C
   56    59     1     0     0
SMALL
bcc


@<TRIPOS>ATOM
      1 C01         2.6830   -1.8750    0.2720 c3        1 T3C      0.084100
      2 N02         4.1120   -1.5750    0.5650 n4        1 T3C     -0.705700
      3 C03         4.3120   -1.0810    1.9240 cc        1 T3C      0.361300
      4 N04         4.1150   -1.9000    2.9890 nd        1 T3C     -0.596000
      5 C05         4.3760   -1.2140    4.1570 cd        1 T3C      0.471600
      6 C06         4.2340   -1.9020    5.4620 c3        1 T3C     -0.148400
      7 C07         4.7680    0.1340    3.9510 cc        1 T3C     -0.315900
      8 C08         5.1160    1.1220    4.9580 ca        1 T3C      0.600800
      9 N09         5.1110    0.7700    6.2760 nb        1 T3C     -0.673000
     10 C10         5.4510    1.7490    7.1680 ca        1 T3C      0.760900
     11 N11         5.4810    1.3600    8.6160 n4        1 T3C     -0.610100
     12 C12         6.8150    0.8620    8.9970 ca        1 T3C     -0.027400
     13 C13         7.7520    1.7570    9.5230 ca        1 T3C     -0.135000
     14 C14         8.9910    1.2430    9.9170 ca        1 T3C     -0.074000
     15 C15         9.2880   -0.1020    9.7910 ca        1 T3C     -0.119000
     16 C16         8.3460   -1.0230    9.2410 ca        1 T3C      0.207600
     17 N17         8.6320   -2.3900    9.2060 nh        1 T3C     -0.637000
     18 C18         9.9510   -2.8220    8.7750 c3        1 T3C      0.187800
     19 C19        10.0970   -3.1390    7.2870 c3        1 T3C     -0.114400
     20 C20         9.4240   -4.4470    6.8910 c3        1 T3C      0.159800
     21 N21         7.9980   -4.3980    6.6370 n3        1 T3C     -0.831200
     22 C22         7.2030   -3.4950    7.4250 c3        1 T3C      0.140800
     23 C23         7.5650   -3.3240    8.9180 c3        1 T3C      0.150800
     24 C24         7.0930   -0.5050    8.8340 ca        1 T3C     -0.201000
     25 N25         5.7870    3.0520    6.8880 nb        1 T3C     -0.649000
     26 C26         5.7870    3.3810    5.5860 ca        1 T3C      0.521200
     27 C27         5.4620    2.4500    4.5680 ca        1 T3C     -0.214600
     28 C28         5.4890    2.8620    3.2140 cg        1 T3C      0.183800
     29 N29         5.5350    3.2770    2.1250 n1        1 T3C     -0.237800
     30 S30         4.7970    0.4950    2.3130 ss        1 T3C      0.182700
     31 H011        2.6080   -2.2250   -0.7950 hx        1 T3C      0.121033
     32 H012        2.3170   -2.6820    0.9650 hx        1 T3C      0.121033
     33 H013        2.0640   -0.9490    0.4150 hx        1 T3C      0.121033
     34 H02         4.4610   -0.8660   -0.0940 hn        1 T3C      0.474300
     35 H061        5.2240   -1.9210    5.9880 hc        1 T3C      0.084700
     36 H062        3.4870   -1.3590    6.0950 hc        1 T3C      0.084700
     37 H063        3.8850   -2.9600    5.3390 hc        1 T3C      0.084700
     38 H11         4.7810    0.6230    8.7870 hn        1 T3C      0.484800
     39 H13         7.5420    2.8320    9.6390 ha        1 T3C      0.166000
     40 H24         6.3360   -1.1710    8.3900 ha        1 T3C      0.150000
     41 H14         9.7390    1.9310   10.3510 ha        1 T3C      0.177000
     42 H15        10.2680   -0.4610   10.1520 ha        1 T3C      0.175000
     43 H181       10.1960   -3.7470    9.3770 h1        1 T3C      0.072700
     44 H182       10.7130   -2.0360    9.0410 h1        1 T3C      0.072700
     45 H231        7.8840   -4.3200    9.3450 h1        1 T3C      0.071700
     46 H232        6.6440   -3.0030    9.4800 h1        1 T3C      0.071700
     47 H191        9.7230   -2.2900    6.6600 hc        1 T3C      0.064700
     48 H192       11.1960   -3.2510    7.0800 hc        1 T3C      0.064700
     49 H201        9.8870   -4.8000    5.9230 h1        1 T3C      0.049700
     50 H202        9.6760   -5.2180    7.6800 h1        1 T3C      0.049700
     51 H21         7.6290   -5.3310    6.6890 hn        1 T3C      0.375800
     52 H221        6.1290   -3.8370    7.3790 h1        1 T3C      0.039200
     53 H222        7.2580   -2.4870    6.9180 h1        1 T3C      0.039200
     54 H26         6.0580    4.4350    5.3510 h4        1 T3C      0.095100
     55 H022        4.6660   -2.4400    0.4410 hn        1 T3C      0.474300
     56 H112        5.2550    2.1890    9.1900 hn        1 T3C      0.484800
@<TRIPOS>BOND
     1    1    2 1   
     2    1   31 1   
     3    1   32 1   
     4    1   33 1   
     5    2    3 1   
     6    2   34 1   
     7    2   55 1   
     8    3    4 2   
     9    3   30 1   
    10    4    5 1   
    11    5    6 1   
    12    5    7 2   
    13    6   35 1   
    14    6   36 1   
    15    6   37 1   
    16    7    8 1   
    17    7   30 1   
    18    8    9 ar  
    19    8   27 ar  
    20    9   10 ar  
    21   10   11 1   
    22   10   25 ar  
    23   11   12 1   
    24   11   38 1   
    25   11   56 1   
    26   12   13 ar  
    27   12   24 ar  
    28   13   14 ar  
    29   13   39 1   
    30   14   15 ar  
    31   14   41 1   
    32   15   16 ar  
    33   15   42 1   
    34   16   17 1   
    35   16   24 ar  
    36   17   18 1   
    37   17   23 1   
    38   18   19 1   
    39   18   43 1   
    40   18   44 1   
    41   19   20 1   
    42   19   47 1   
    43   19   48 1   
    44   20   21 1   
    45   20   49 1   
    46   20   50 1   
    47   21   22 1   
    48   21   51 1   
    49   22   23 1   
    50   22   52 1   
    51   22   53 1   
    52   23   45 1   
    53   23   46 1   
    54   24   40 1   
    55   25   26 ar  
    56   26   27 ar  
    57   26   54 1   
    58   27   28 1   
    59   28   29 3   
@<TRIPOS>SUBSTRUCTURE
     1 T3C         1 TEMP              0 ****  ****    0 ROOT
