@<TRIPOS>MOLECULE
T3C
   54    56     1     0     0
SMALL
bcc


@<TRIPOS>ATOM
      1 C01         0.4930    0.6600   -0.2970 c3        1 T3C      0.179100
      2 N02         1.8780    0.3650   -0.0570 nh        1 T3C     -0.810900
      3 C03         2.3300    0.1880    1.2420 cc        1 T3C      0.644300
      4 N04         1.6250    0.4740    2.3660 nd        1 T3C     -0.722000
      5 C05         2.4210    0.2950    3.4830 cd        1 T3C      0.475600
      6 C06         1.8530    0.5570    4.8290 c3        1 T3C     -0.132400
      7 C07         3.7290   -0.1470    3.2200 cc        1 T3C     -0.345900
      8 C08         4.7890   -0.4320    4.1600 ca        1 T3C      0.650800
      9 N09         4.5990   -0.1610    5.4730 nb        1 T3C     -0.774000
     10 C10         5.6340   -0.4530    6.3530 ca        1 T3C      0.906900
     11 N11         5.3590   -0.2380    7.7100 nh        1 T3C     -0.712300
     12 C12         6.3670   -0.1970    8.7040 ca        1 T3C      0.150600
     13 C13         6.4800    0.9460    9.5240 ca        1 T3C     -0.184000
     14 C14         7.4170    0.9630   10.5500 ca        1 T3C     -0.100000
     15 C15         8.2520   -0.1240   10.7820 ca        1 T3C     -0.155000
     16 C16         8.1580   -1.2790    9.9730 ca        1 T3C      0.135600
     17 N17         8.9710   -2.4060   10.2810 nh        1 T3C     -0.638000
     18 C18        10.4020   -2.1670   10.2490 c3        1 T3C      0.191800
     19 C19        11.0590   -1.9780    8.8790 c3        1 T3C     -0.138400
     20 C20        11.6400   -3.2960    8.3710 c3        1 T3C      0.186800
     21 N21        12.2440   -3.1960    7.0540 n3        1 T3C     -0.554000
     22 C22        11.9030   -4.0020    6.0900 c1        1 T3C     -0.115500
     23 C23         8.5540   -3.6660    9.7130 c3        1 T3C      0.162100
     24 C24         7.2040   -1.3040    8.9340 ca        1 T3C     -0.153000
     25 N25         6.8700   -0.9760    5.9760 nb        1 T3C     -0.746000
     26 C26         7.0250   -1.2260    4.6750 ca        1 T3C      0.513200
     27 C27         6.0270   -0.9830    3.7020 ca        1 T3C     -0.344600
     28 C28         6.3020   -1.2880    2.3520 cg        1 T3C      0.252800
     29 N29         6.6070   -1.5710    1.2620 n1        1 T3C     -0.366800
     30 S30         3.9590   -0.3230    1.5470 ss        1 T3C     -0.094300
     31 H011        0.2000    1.5780    0.2780 h1        1 T3C      0.049700
     32 H012       -0.1880   -0.1810    0.0070 h1        1 T3C      0.049700
     33 H013        0.3660    0.8570   -1.3940 h1        1 T3C      0.049700
     34 H02         2.2900   -0.2700   -0.7110 hn        1 T3C      0.416800
     35 H061        0.7740    0.8480    4.7760 hc        1 T3C      0.062700
     36 H062        2.4200    1.3900    5.3170 hc        1 T3C      0.062700
     37 H063        1.9430   -0.3610    5.4620 hc        1 T3C      0.062700
     38 H11         4.5560    0.3270    7.9040 hn        1 T3C      0.448800
     39 H13         5.8330    1.8210    9.3630 ha        1 T3C      0.134000
     40 H24         7.1090   -2.1960    8.2940 ha        1 T3C      0.158000
     41 H14         7.4990    1.8540   11.1910 ha        1 T3C      0.135000
     42 H15         8.9730   -0.0800   11.6110 ha        1 T3C      0.139000
     43 H181       10.6050   -1.2420   10.8610 h1        1 T3C      0.055700
     44 H182       10.8880   -3.0370   10.7790 h1        1 T3C      0.055700
     45 H231        8.6920   -3.7220    8.5980 h1        1 T3C      0.043367
     46 H232        7.4710   -3.8320    9.9510 h1        1 T3C      0.043367
     47 H191       11.8790   -1.2200    8.9810 hc        1 T3C      0.058700
     48 H192       10.3180   -1.5700    8.1420 hc        1 T3C      0.058700
     49 H201       10.8280   -4.0780    8.3320 h1        1 T3C      0.066200
     50 H202       12.4320   -3.6490    9.0920 h1        1 T3C      0.066200
     51 H21        12.9190   -2.4570    6.9850 hn        1 T3C      0.357800
     52 H221        9.1580   -4.4840   10.1880 h1        1 T3C      0.043367
     53 H222       12.4350   -3.8450    5.1270 ha        1 T3C     -0.018500
     54 H26         8.0070   -1.6470    4.3820 h4        1 T3C      0.040100
@<TRIPOS>BOND
     1    1    2 1   
     2    1   31 1   
     3    1   32 1   
     4    1   33 1   
     5    2    3 1   
     6    2   34 1   
     7    3    4 2   
     8    3   30 1   
     9    4    5 1   
    10    5    6 1   
    11    5    7 2   
    12    6   35 1   
    13    6   36 1   
    14    6   37 1   
    15    7    8 1   
    16    7   30 1   
    17    8    9 ar  
    18    8   27 ar  
    19    9   10 ar  
    20   10   11 1   
    21   10   25 ar  
    22   11   12 1   
    23   11   38 1   
    24   12   13 ar  
    25   12   24 ar  
    26   13   14 ar  
    27   13   39 1   
    28   14   15 ar  
    29   14   41 1   
    30   15   16 ar  
    31   15   42 1   
    32   16   17 1   
    33   16   24 ar  
    34   17   18 1   
    35   17   23 1   
    36   18   19 1   
    37   18   43 1   
    38   18   44 1   
    39   19   20 1   
    40   19   47 1   
    41   19   48 1   
    42   20   21 1   
    43   20   49 1   
    44   20   50 1   
    45   21   22 3   
    46   21   51 1   
    47   22   53 1   
    48   23   45 1   
    49   23   46 1   
    50   23   52 1   
    51   24   40 1   
    52   25   26 ar  
    53   26   27 ar  
    54   26   54 1   
    55   27   28 1   
    56   28   29 3   
@<TRIPOS>SUBSTRUCTURE
     1 T3C         1 TEMP              0 ****  ****    0 ROOT
