@<TRIPOS>MOLECULE
T3C
   54    57     1     0     0
SMALL
bcc


@<TRIPOS>ATOM
      1 C01         8.6330   -0.1480    0.5320 c3        1 T3C      0.180100
      2 N02         7.5240    0.6950    0.1830 nh        1 T3C     -0.810900
      3 C03         6.2370    0.1790    0.1850 cc        1 T3C      0.644300
      4 N04         5.8740   -1.0260    0.6930 nd        1 T3C     -0.722000
      5 C05         4.4980   -1.1680    0.6410 cd        1 T3C      0.476600
      6 C06         3.8770   -2.4120    1.1580 c3        1 T3C     -0.132400
      7 C07         3.8070   -0.0820    0.0750 cc        1 T3C     -0.345900
      8 C08         2.3850    0.0700   -0.1340 ca        1 T3C      0.650800
      9 N09         1.5500   -0.9270    0.2450 nb        1 T3C     -0.775000
     10 C10         0.1880   -0.7450    0.0440 ca        1 T3C      0.905900
     11 N11        -0.6430   -1.7630    0.5330 nh        1 T3C     -0.710300
     12 C12        -1.9990   -1.9020    0.1480 ca        1 T3C      0.147600
     13 C13        -2.4300   -3.1200   -0.4240 ca        1 T3C     -0.187000
     14 C14        -3.7730   -3.2990   -0.7220 ca        1 T3C     -0.093000
     15 C15        -4.7080   -2.2990   -0.4720 ca        1 T3C     -0.187000
     16 C16        -4.2990   -1.0670    0.0800 ca        1 T3C      0.155600
     17 N17        -5.1870    0.0160    0.2970 nh        1 T3C     -0.660000
     18 C18        -6.4470    0.0020   -0.4220 c3        1 T3C      0.197800
     19 C19        -6.9430    1.3880   -0.8320 c3        1 T3C     -0.118400
     20 C20        -6.9890    2.4040    0.3060 c3        1 T3C      0.161800
     21 N21        -5.7130    2.8580    0.8160 n3        1 T3C     -0.804200
     22 C22        -5.1120    2.0130    1.8180 c3        1 T3C      0.156800
     23 C23        -5.2740    0.4840    1.6690 c3        1 T3C      0.162800
     24 C24        -2.9330   -0.8850    0.4020 ca        1 T3C     -0.133000
     25 N25        -0.3820    0.3800   -0.5510 nb        1 T3C     -0.741000
     26 C26         0.4700    1.3380   -0.9200 ca        1 T3C      0.512200
     27 C27         1.8710    1.2580   -0.7410 ca        1 T3C     -0.345600
     28 C28         2.6750    2.3360   -1.1700 cg        1 T3C      0.253800
     29 N29         3.2640    3.2680   -1.5520 n1        1 T3C     -0.366800
     30 S30         4.9020    1.1350   -0.3740 ss        1 T3C     -0.095300
     31 H011        8.4600   -0.5940    1.5480 h1        1 T3C      0.049700
     32 H012        8.7870   -0.9860   -0.2010 h1        1 T3C      0.049700
     33 H013        9.5560    0.4880    0.5620 h1        1 T3C      0.049700
     34 H02         7.6980    1.3260   -0.5720 hn        1 T3C      0.416800
     35 H061        3.1590   -2.1590    1.9780 hc        1 T3C      0.062700
     36 H062        3.3190   -2.9240    0.3350 hc        1 T3C      0.062700
     37 H063        4.6410   -3.1220    1.5630 hc        1 T3C      0.062700
     38 H11        -0.1820   -2.6240    0.7510 hn        1 T3C      0.446800
     39 H13        -1.7130   -3.9280   -0.6320 ha        1 T3C      0.134000
     40 H24        -2.6060    0.0710    0.8440 ha        1 T3C      0.160000
     41 H14        -4.1080   -4.2520   -1.1610 ha        1 T3C      0.134000
     42 H15        -5.7650   -2.4900   -0.7050 ha        1 T3C      0.135000
     43 H181       -6.3200   -0.5910   -1.3730 h1        1 T3C      0.036700
     44 H182       -7.2530   -0.5010    0.1910 h1        1 T3C      0.036700
     45 H231       -6.2700    0.1880    2.1140 h1        1 T3C      0.042700
     46 H232       -4.4720   -0.0020    2.2940 h1        1 T3C      0.042700
     47 H191       -6.2990    1.7820   -1.6620 hc        1 T3C      0.050700
     48 H192       -7.9810    1.2630   -1.2390 hc        1 T3C      0.050700
     49 H201       -7.5220    3.3240   -0.0740 h1        1 T3C      0.048700
     50 H202       -7.5970    1.9820    1.1540 h1        1 T3C      0.048700
     51 H21        -5.0750    2.9940    0.0510 hn        1 T3C      0.363800
     52 H221       -4.0130    2.2540    1.8690 h1        1 T3C      0.049700
     53 H222       -5.5720    2.2870    2.8110 h1        1 T3C      0.049700
     54 H26         0.0120    2.2290   -1.3920 h4        1 T3C      0.038100
@<TRIPOS>BOND
     1    1    2 1   
     2    1   31 1   
     3    1   32 1   
     4    1   33 1   
     5    2    3 1   
     6    2   34 1   
     7    3    4 2   
     8    3   30 1   
     9    4    5 1   
    10    5    6 1   
    11    5    7 2   
    12    6   35 1   
    13    6   36 1   
    14    6   37 1   
    15    7    8 1   
    16    7   30 1   
    17    8    9 ar  
    18    8   27 ar  
    19    9   10 ar  
    20   10   11 1   
    21   10   25 ar  
    22   11   12 1   
    23   11   38 1   
    24   12   13 ar  
    25   12   24 ar  
    26   13   14 ar  
    27   13   39 1   
    28   14   15 ar  
    29   14   41 1   
    30   15   16 ar  
    31   15   42 1   
    32   16   17 1   
    33   16   24 ar  
    34   17   18 1   
    35   17   23 1   
    36   18   19 1   
    37   18   43 1   
    38   18   44 1   
    39   19   20 1   
    40   19   47 1   
    41   19   48 1   
    42   20   21 1   
    43   20   49 1   
    44   20   50 1   
    45   21   22 1   
    46   21   51 1   
    47   22   23 1   
    48   22   52 1   
    49   22   53 1   
    50   23   45 1   
    51   23   46 1   
    52   24   40 1   
    53   25   26 ar  
    54   26   27 ar  
    55   26   54 1   
    56   27   28 1   
    57   28   29 3   
@<TRIPOS>SUBSTRUCTURE
     1 T3C         1 TEMP              0 ****  ****    0 ROOT
