@<TRIPOS>MOLECULE
T3C
   54    56     1     0     0
SMALL
bcc


@<TRIPOS>ATOM
      1 C01        -0.1480    0.7400   -0.2690 c3        1 T3C     -0.097000
      2 N02         1.2670    0.9080   -0.0830 nu        1 T3C     -0.255000
      3 C03         1.8520    0.5400    1.1190 c2        1 T3C     -0.126000
      4 N04         1.1810    0.2170    2.2540 n2        1 T3C     -0.196000
      5 C05         2.0750    0.0230    3.2930 c2        1 T3C      0.053000
      6 C06         1.5590   -0.3350    4.6370 c3        1 T3C     -0.156000
      7 C07         3.4300    0.1780    2.9520 c2        1 T3C     -0.443000
      8 C08         4.5920    0.0360    3.7990 c2        1 T3C      0.214000
      9 N09         4.4230   -0.1630    5.1280 n2        1 T3C     -0.247000
     10 C10         5.5590   -0.3030    5.9140 c2        1 T3C      0.185000
     11 N11         5.3340   -0.5960    7.2670 nu        1 T3C     -0.232000
     12 C12         6.3400   -0.4690    8.2570 ca        1 T3C      0.067000
     13 C13         6.1070    0.3730    9.3690 ca        1 T3C     -0.185000
     14 C14         7.0510    0.4410   10.3840 ca        1 T3C     -0.093000
     15 C15         8.2240   -0.3050   10.3290 ca        1 T3C     -0.194000
     16 C16         8.4820   -1.1450    9.2260 ca        1 T3C      0.061000
     17 N17         9.6940   -1.8740    9.0790 nh        1 T3C     -0.229000
     18 C18        10.7970   -1.4270    9.9110 c3        1 T3C     -0.135000
     19 C19        12.1320   -1.8040    9.4340 c1        1 T3C     -0.031000
     20 C20        12.4490   -4.5450    9.5840 c3        1 T3C     -0.122000
     21 N21        11.3950   -5.0340    8.7380 n7        1 T3C     -0.297000
     22 C22        10.6000   -4.0130    8.1010 c3        1 T3C     -0.090000
     23 C23         9.5370   -3.3170    8.9920 c3        1 T3C     -0.077000
     24 C24         7.5210   -1.2230    8.1910 ca        1 T3C     -0.125000
     25 N25         6.8670   -0.2210    5.4380 n2        1 T3C     -0.213000
     26 C26         6.9980   -0.0170    4.1270 c2        1 T3C      0.047000
     27 C27         5.9050    0.1180    3.2380 c2        1 T3C     -0.209000
     28 C28         6.1630    0.3260    1.8660 c1        1 T3C     -0.077000
     29 N29         6.4620    0.4910    0.7500 n1        1 T3C     -0.041000
     30 S30         3.5750    0.5850    1.3110 ss        1 T3C      0.490000
     31 H011       -0.7000    1.2840    0.5430 h1        1 T3C      0.089000
     32 H012       -0.4620   -0.3390   -0.2500 h1        1 T3C      0.089000
     33 H013       -0.4220    1.1850   -1.2620 h1        1 T3C      0.089000
     34 H02         1.8230    0.6820   -0.8820 hn        1 T3C      0.212000
     35 H061        0.4460   -0.4530    4.6380 hc        1 T3C      0.102000
     36 H062        1.8290    0.4690    5.3670 hc        1 T3C      0.102000
     37 H063        2.0180   -1.2980    4.9730 hc        1 T3C      0.102000
     38 H11         4.4040   -0.4220    7.5940 hn        1 T3C      0.242000
     39 H13         5.1870    0.9730    9.4380 ha        1 T3C      0.135000
     40 H24         7.7160   -1.8710    7.3200 ha        1 T3C      0.165000
     41 H14         6.8670    1.0960   11.2500 ha        1 T3C      0.134000
     42 H15         8.9370   -0.2280   11.1630 ha        1 T3C      0.130000
     43 H181       10.8060   -0.2870    9.8890 h1        1 T3C      0.106000
     44 H182       10.6440   -1.7390   10.9930 h1        1 T3C      0.106000
     45 H231        9.5470   -3.7690   10.0290 h1        1 T3C      0.073500
     46 H232        8.5240   -3.5370    8.5500 h1        1 T3C      0.073500
     47 H191       13.1540   -3.9230    8.9690 h1        1 T3C      0.069000
     48 H192       12.9220   -1.5600   10.1670 ha        1 T3C      0.033000
     49 H201       13.0080   -5.4190   10.0110 h1        1 T3C      0.069000
     50 H202       12.0810   -3.9140   10.4460 h1        1 T3C      0.069000
     51 H21        10.8120   -5.6800    9.2370 hn        1 T3C      0.147000
     52 H221       11.2970   -3.2460    7.6540 h1        1 T3C      0.119000
     53 H222       10.0480   -4.5150    7.2550 h1        1 T3C      0.119000
     54 H26         8.0390    0.0460    3.7540 h4        1 T3C      0.177000
@<TRIPOS>BOND
     1    1    2 1   
     2    1   31 1   
     3    1   32 1   
     4    1   33 1   
     5    2    3 1   
     6    2   34 1   
     7    3    4 1   
     8    3   30 1   
     9    4    5 1   
    10    5    6 1   
    11    5    7 1   
    12    6   35 1   
    13    6   36 1   
    14    6   37 1   
    15    7    8 1   
    16    7   30 1   
    17    8    9 1   
    18    8   27 1   
    19    9   10 1   
    20   10   11 1   
    21   10   25 1   
    22   11   12 1   
    23   11   38 1   
    24   12   13 1   
    25   12   24 1   
    26   13   14 1   
    27   13   39 1   
    28   14   15 1   
    29   14   41 1   
    30   15   16 1   
    31   15   42 1   
    32   16   17 1   
    33   16   24 1   
    34   17   18 1   
    35   17   23 1   
    36   18   19 1   
    37   18   43 1   
    38   18   44 1   
    39   19   48 1   
    40   20   21 1   
    41   20   47 1   
    42   20   49 1   
    43   20   50 1   
    44   21   22 1   
    45   21   51 1   
    46   22   23 1   
    47   22   52 1   
    48   22   53 1   
    49   23   45 1   
    50   23   46 1   
    51   24   40 1   
    52   25   26 1   
    53   26   27 1   
    54   26   54 1   
    55   27   28 1   
    56   28   29 1   
@<TRIPOS>SUBSTRUCTURE
     1 T3C         1 TEMP              0 ****  ****    0 ROOT
