@<TRIPOS>MOLECULE
T3E
   42    44     1     0     0
SMALL
bcc


@<TRIPOS>ATOM
      1 C7A         7.8260    2.3530    0.3140 c3        1 T3E      0.180100
      2 N6A         7.1460    1.0880    0.3260 nh        1 T3E     -0.811900
      3 C3A         5.7690    1.0400    0.1820 cc        1 T3E      0.650300
      4 N2A         4.9810    2.0840   -0.1850 nd        1 T3E     -0.723000
      5 C1A         3.6750    1.6570   -0.3490 cd        1 T3E      0.481600
      6 C8A         2.6380    2.6350   -0.7600 c3        1 T3E     -0.133400
      7 C5A         3.4560    0.2920   -0.0900 cc        1 T3E     -0.349900
      8 C4          2.2180   -0.4480   -0.1570 ca        1 T3E      0.652800
      9 N3          1.0790    0.1940   -0.5150 nb        1 T3E     -0.769000
     10 C2         -0.0910   -0.5480   -0.5820 ca        1 T3E      0.900900
     11 N7         -1.2260    0.1390   -1.0500 nh        1 T3E     -0.706300
     12 C1B        -2.5380   -0.3510   -0.8430 ca        1 T3E      0.103600
     13 C2B        -3.4870    0.4520   -0.1780 ca        1 T3E     -0.055000
     14 C3B        -4.8100    0.0300   -0.0290 ca        1 T3E     -0.365500
     15 S7B        -5.9330    1.0040    0.7850 sy        1 T3E      1.526200
     16 O8B        -5.2190    1.9200    1.5870 o         1 T3E     -0.656300
     17 N9B        -6.6550    1.7960   -0.4040 n3        1 T3E     -1.027700
     18 O1B        -6.8730    0.1640    1.4180 o         1 T3E     -0.656300
     19 C4B        -5.1850   -1.2220   -0.5280 ca        1 T3E     -0.027000
     20 C5B        -4.2600   -2.0250   -1.1880 ca        1 T3E     -0.146000
     21 C6B        -2.9450   -1.6000   -1.3600 ca        1 T3E     -0.044000
     22 N1         -0.1900   -1.9030   -0.2780 nb        1 T3E     -0.748000
     23 C6          0.9470   -2.5040    0.0800 ca        1 T3E      0.512200
     24 C5          2.1950   -1.8430    0.1600 ca        1 T3E     -0.337600
     25 C8          3.3340   -2.5820    0.5460 cg        1 T3E      0.250800
     26 N9          4.2210   -3.2650    0.8730 n1        1 T3E     -0.361800
     27 S4A         4.9150   -0.4600    0.3450 ss        1 T3E     -0.097300
     28 H7A1        7.5750    2.9060   -0.6300 h1        1 T3E      0.050367
     29 H7A2        7.5460    3.0010    1.1900 h1        1 T3E      0.050367
     30 H7A3        8.9300    2.1540    0.3420 h1        1 T3E      0.050367
     31 H6A         7.5040    0.4220    0.9790 hn        1 T3E      0.418800
     32 H8A1        2.1720    2.3050   -1.7220 hc        1 T3E      0.063367
     33 H8A2        1.8450    2.6950    0.0250 hc        1 T3E      0.063367
     34 H8A3        3.0670    3.6580   -0.9080 hc        1 T3E      0.063367
     35 H7         -1.1500    1.1380   -1.0370 hn        1 T3E      0.445800
     36 H2B        -3.1930    1.4280    0.2510 ha        1 T3E      0.157000
     37 H6B        -2.2320   -2.2460   -1.8970 ha        1 T3E      0.160000
     38 H4B        -6.2190   -1.5780   -0.3770 ha        1 T3E      0.153000
     39 H9B1       -7.4760    1.4780   -0.8540 hn        1 T3E      0.448300
     40 H9B2       -6.3440    2.6690   -0.7490 hn        1 T3E      0.448300
     41 H5B        -4.5660   -3.0080   -1.5780 ha        1 T3E      0.145000
     42 H6          0.8630   -3.5820    0.3230 h4        1 T3E      0.039100
@<TRIPOS>BOND
     1    1    2 1   
     2    1   28 1   
     3    1   29 1   
     4    1   30 1   
     5    2    3 1   
     6    2   31 1   
     7    3    4 2   
     8    3   27 1   
     9    4    5 1   
    10    5    6 1   
    11    5    7 2   
    12    6   32 1   
    13    6   33 1   
    14    6   34 1   
    15    7    8 1   
    16    7   27 1   
    17    8    9 ar  
    18    8   24 ar  
    19    9   10 ar  
    20   10   11 1   
    21   10   22 ar  
    22   11   12 1   
    23   11   35 1   
    24   12   13 ar  
    25   12   21 ar  
    26   13   14 ar  
    27   13   36 1   
    28   14   15 1   
    29   14   19 ar  
    30   15   16 2   
    31   15   17 1   
    32   15   18 2   
    33   17   39 1   
    34   17   40 1   
    35   19   20 ar  
    36   19   38 1   
    37   20   21 ar  
    38   20   41 1   
    39   21   37 1   
    40   22   23 ar  
    41   23   24 ar  
    42   23   42 1   
    43   24   25 1   
    44   25   26 3   
@<TRIPOS>SUBSTRUCTURE
     1 T3E         1 TEMP              0 ****  ****    0 ROOT
