@<TRIPOS>MOLECULE
T3E
   43    45     1     0     0
SMALL
bcc


@<TRIPOS>ATOM
      1 C7A         0.0040    0.1610   -0.0510 c3        1 T3E      0.192100
      2 N6A         1.4270    0.0830    0.1010 nu        1 T3E     -0.823900
      3 C3A         2.0250    0.0540    1.3310 cc        1 T3E      0.694300
      4 N2A         1.3610   -0.0740    2.5190 nd        1 T3E     -0.734000
      5 C1A         2.2590   -0.1580    3.5570 cd        1 T3E      0.510600
      6 C8A         1.7550   -0.3140    4.9440 c3        1 T3E     -0.137400
      7 C5A         3.6220   -0.0820    3.1880 cc        1 T3E     -0.383900
      8 C4          4.7820   -0.1340    4.0280 ca        1 T3E      0.665800
      9 N3          4.6300   -0.2590    5.3770 nb        1 T3E     -0.756000
     10 C2          5.7720   -0.3220    6.1460 ca        1 T3E      0.882900
     11 N7          5.5540   -0.5150    7.5380 nu        1 T3E     -0.721300
     12 C1B         6.5720   -0.3640    8.4890 ca        1 T3E      0.159600
     13 C2B         6.3410    0.3960    9.6500 ca        1 T3E     -0.069000
     14 C3B         7.3090    0.5050   10.6720 ca        1 T3E     -0.532500
     15 S7B         7.0450    1.4350   11.9410 sy        1 T3E      1.493200
     16 O8B         5.9470    2.2640   11.8590 o         1 T3E     -0.567300
     17 N9B         6.3190    0.0720   13.1050 nz        1 T3E     -0.785500
     18 O1B         8.1600    1.7790   12.6730 o         1 T3E     -0.567300
     19 C4B         8.5430   -0.1520   10.4960 ca        1 T3E     -0.009000
     20 C5B         8.7840   -0.9130    9.3610 ca        1 T3E     -0.135000
     21 C6B         7.8170   -1.0390    8.3660 ca        1 T3E      0.014000
     22 N1          7.0720   -0.2400    5.6710 nb        1 T3E     -0.774000
     23 C6          7.1950   -0.1080    4.3430 ca        1 T3E      0.512200
     24 C5          6.0960   -0.0510    3.4610 ca        1 T3E     -0.304600
     25 C8          6.3430    0.0890    2.0760 cg        1 T3E      0.233800
     26 N9          6.6330    0.2050    0.9530 n1        1 T3E     -0.325800
     27 S4A         3.7530    0.0870    1.4990 ss        1 T3E     -0.108300
     28 H7A1       -0.4900   -0.6480    0.5520 h1        1 T3E      0.057367
     29 H7A2       -0.2440    0.0150   -1.1360 h1        1 T3E      0.057367
     30 H7A3       -0.3950    1.1540    0.2910 h1        1 T3E      0.057367
     31 H6A         1.9860    0.4100   -0.6560 hn        1 T3E      0.443800
     32 H8A1        2.1580   -1.2590    5.3850 hc        1 T3E      0.064033
     33 H8A2        2.0920    0.5530    5.5650 hc        1 T3E      0.064033
     34 H8A3        0.6370   -0.3580    4.9770 hc        1 T3E      0.064033
     35 H7          4.6330   -0.2790    7.8510 hn        1 T3E      0.453800
     36 H2B         5.3870    0.9450    9.7710 ha        1 T3E      0.165000
     37 H6B         8.0310   -1.6720    7.4850 ha        1 T3E      0.195000
     38 H4B         9.3320   -0.0470   11.2640 ha        1 T3E      0.168000
     39 H9B1        6.2840   -0.8390   12.6590 hn        1 T3E      0.454133
     40 H9B2        6.8860   -0.0110   13.9460 hn        1 T3E      0.454133
     41 H5B         9.7550   -1.4250    9.2400 ha        1 T3E      0.178000
     42 H6          8.2340   -0.0400    3.9630 h4        1 T3E      0.048100
     43 H9B3        5.3730    0.3190   13.3900 hn        1 T3E      0.454133
@<TRIPOS>BOND
     1    1    2 1   
     2    1   28 1   
     3    1   29 1   
     4    1   30 1   
     5    2    3 1   
     6    2   31 1   
     7    3    4 2   
     8    3   27 1   
     9    4    5 1   
    10    5    6 1   
    11    5    7 2   
    12    6   32 1   
    13    6   33 1   
    14    6   34 1   
    15    7    8 1   
    16    7   27 1   
    17    8    9 ar  
    18    8   24 ar  
    19    9   10 ar  
    20   10   11 1   
    21   10   22 ar  
    22   11   12 1   
    23   11   35 1   
    24   12   13 ar  
    25   12   21 ar  
    26   13   14 ar  
    27   13   36 1   
    28   14   15 1   
    29   14   19 ar  
    30   15   16 2   
    31   15   17 1   
    32   15   18 2   
    33   17   39 1   
    34   17   40 1   
    35   17   43 1   
    36   19   20 ar  
    37   19   38 1   
    38   20   21 ar  
    39   20   41 1   
    40   21   37 1   
    41   22   23 ar  
    42   23   24 ar  
    43   23   42 1   
    44   24   25 1   
    45   25   26 3   
@<TRIPOS>SUBSTRUCTURE
     1 T3E         1 TEMP              0 ****  ****    0 ROOT
