@<TRIPOS>MOLECULE
T3E
   45    47     1     0     0
SMALL
bcc


@<TRIPOS>ATOM
      1 C7A         0.8950    0.1790   -0.5360 c3        1 T3E      0.084100
      2 N6A         2.2350   -0.4170   -0.2710 n4        1 T3E     -0.710700
      3 C3A         2.6120   -0.3490    1.1390 cc        1 T3E      0.389300
      4 N2A         1.9320   -1.0710    2.0680 nd        1 T3E     -0.593000
      5 C1A         2.4710   -0.8500    3.3170 cd        1 T3E      0.482600
      6 C8A         1.8890   -1.5330    4.4970 c3        1 T3E     -0.149400
      7 C5A         3.5700    0.0510    3.3170 cc        1 T3E     -0.342900
      8 C4          4.3500    0.4960    4.4540 ca        1 T3E      0.619800
      9 N3          4.0700    0.0170    5.7030 nb        1 T3E     -0.674000
     10 C2          4.8320    0.5040    6.7270 ca        1 T3E      0.733900
     11 N7          4.4730    0.0130    8.1050 n4        1 T3E     -0.614100
     12 C1B         5.6370   -0.4400    8.8800 ca        1 T3E     -0.058400
     13 C2B         6.4240    0.4870    9.5760 ca        1 T3E      0.050000
     14 C3B         7.5370    0.0540   10.3220 ca        1 T3E     -0.476500
     15 S7B         8.5670    1.1530   10.9980 sy        1 T3E      1.460200
     16 O8B         8.1780    2.4430   10.7130 o         1 T3E     -0.529800
     17 N9B         8.0830    1.0090   12.8020 n4        1 T3E     -0.806500
     18 O1B         9.8620    0.7020   11.0400 o         1 T3E     -0.529800
     19 C4B         7.8370   -1.3210   10.3470 ca        1 T3E      0.051000
     20 C5B         7.0450   -2.2430    9.6630 ca        1 T3E     -0.111000
     21 C6B         5.9480   -1.8180    8.9210 ca        1 T3E      0.001000
     22 N1          5.8620    1.4070    6.6550 nb        1 T3E     -0.671000
     23 C6          6.1340    1.8630    5.4180 ca        1 T3E      0.520200
     24 C5          5.4080    1.4420    4.2770 ca        1 T3E     -0.187600
     25 C8          5.7480    1.9670    3.0070 cg        1 T3E      0.164800
     26 N9          6.0910    2.4470    2.0010 n1        1 T3E     -0.200800
     27 S4A         3.8830    0.5880    1.7550 ss        1 T3E      0.190700
     28 H7A1        0.8860    1.2550   -0.2160 hx        1 T3E      0.125700
     29 H7A2        0.6930    0.1060   -1.6420 hx        1 T3E      0.125700
     30 H7A3        0.1080   -0.3910    0.0310 hx        1 T3E      0.125700
     31 H6A         2.2190   -1.4120   -0.5630 hn        1 T3E      0.479800
     32 H8A1        2.6660   -2.1780    4.9790 hc        1 T3E      0.085367
     33 H8A2        1.0210   -2.1860    4.2150 hc        1 T3E      0.085367
     34 H8A3        1.5250   -0.7700    5.2310 hc        1 T3E      0.085367
     35 H7          3.7970   -0.7660    8.0210 hn        1 T3E      0.491800
     36 H2B         6.2010    1.5750    9.5300 ha        1 T3E      0.198000
     37 H6B         5.3400   -2.5670    8.3760 ha        1 T3E      0.190000
     38 H4B         8.7340   -1.6850   10.8920 ha        1 T3E      0.199000
     39 H9B1        7.7540    1.9110   13.1630 hn        1 T3E      0.476800
     40 H9B2        7.3540    0.3250   12.9940 hn        1 T3E      0.476800
     41 H5B         7.2980   -3.3220    9.7000 ha        1 T3E      0.214000
     42 H6          6.9650    2.6000    5.3420 h4        1 T3E      0.101100
     43 H6A2        2.9500    0.0730   -0.8270 hn        1 T3E      0.479800
     44 H72         4.0160    0.7980    8.5980 hn        1 T3E      0.491800
     45 H9B3        8.8970    0.7470   13.3710 hn        1 T3E      0.476800
@<TRIPOS>BOND
     1    1    2 1   
     2    1   28 1   
     3    1   29 1   
     4    1   30 1   
     5    2    3 1   
     6    2   31 1   
     7    2   43 1   
     8    3    4 2   
     9    3   27 1   
    10    4    5 1   
    11    5    6 1   
    12    5    7 2   
    13    6   32 1   
    14    6   33 1   
    15    6   34 1   
    16    7    8 1   
    17    7   27 1   
    18    8    9 ar  
    19    8   24 ar  
    20    9   10 ar  
    21   10   11 1   
    22   10   22 ar  
    23   11   12 1   
    24   11   35 1   
    25   11   44 1   
    26   12   13 ar  
    27   12   21 ar  
    28   13   14 ar  
    29   13   36 1   
    30   14   15 1   
    31   14   19 ar  
    32   15   16 2   
    33   15   17 1   
    34   15   18 2   
    35   17   39 1   
    36   17   40 1   
    37   17   45 1   
    38   19   20 ar  
    39   19   38 1   
    40   20   21 ar  
    41   20   41 1   
    42   21   37 1   
    43   22   23 ar  
    44   23   24 ar  
    45   23   42 1   
    46   24   25 1   
    47   25   26 3   
@<TRIPOS>SUBSTRUCTURE
     1 T3E         1 TEMP              0 ****  ****    0 ROOT
