@<TRIPOS>MOLECULE
T3E
   43    45     1     0     0
SMALL
bcc


@<TRIPOS>ATOM
      1 C7A         0.0290    0.3470   -0.0750 c3        1 T3E      0.192100
      2 N6A         1.4430    0.1700    0.0790 nh        1 T3E     -0.823900
      3 C3A         2.0400    0.1410    1.3090 cc        1 T3E      0.694300
      4 N2A         1.3720    0.1040    2.5020 nd        1 T3E     -0.734000
      5 C1A         2.2640   -0.0090    3.5410 cd        1 T3E      0.510600
      6 C8A         1.7530   -0.0770    4.9330 c3        1 T3E     -0.137400
      7 C5A         3.6270   -0.0460    3.1700 cc        1 T3E     -0.383900
      8 C4          4.7830   -0.1540    4.0120 ca        1 T3E      0.665800
      9 N3          4.6260   -0.2190    5.3640 nb        1 T3E     -0.756000
     10 C2          5.7620   -0.3390    6.1350 ca        1 T3E      0.882900
     11 N7          5.5340   -0.4660    7.5330 nh        1 T3E     -0.721300
     12 C1B         6.5630   -0.3560    8.4780 ca        1 T3E      0.159600
     13 C2B         6.3920    0.4600    9.6100 ca        1 T3E     -0.069000
     14 C3B         7.3680    0.5340   10.6280 ca        1 T3E     -0.532500
     15 S7B         7.1770    1.5260   11.8620 sy        1 T3E      1.493200
     16 O8B         6.1430    2.4300   11.7510 o         1 T3E     -0.567300
     17 N9B         6.3560    0.2630   13.0750 n4        1 T3E     -0.785500
     18 O1B         8.3170    1.8120   12.5820 o         1 T3E     -0.567300
     19 C4B         8.5500   -0.2190   10.4760 ca        1 T3E     -0.009000
     20 C5B         8.7310   -1.0350    9.3680 ca        1 T3E     -0.135000
     21 C6B         7.7550   -1.1250    8.3790 ca        1 T3E      0.014000
     22 N1          7.0630   -0.3690    5.6580 nb        1 T3E     -0.774000
     23 C6          7.1920   -0.2930    4.3260 ca        1 T3E      0.512200
     24 C5          6.0980   -0.1870    3.4420 ca        1 T3E     -0.304600
     25 C8          6.3510   -0.1150    2.0530 cg        1 T3E      0.233800
     26 N9          6.6460   -0.0600    0.9270 n1        1 T3E     -0.325800
     27 S4A         3.7660    0.0520    1.4760 ss        1 T3E     -0.108300
     28 H7A1       -0.5220   -0.4010    0.5560 h1        1 T3E      0.057367
     29 H7A2       -0.2950    1.3790    0.2300 h1        1 T3E      0.057367
     30 H7A3       -0.2320    0.1820   -1.1550 h1        1 T3E      0.057367
     31 H6A         2.0230    0.4280   -0.6890 hn        1 T3E      0.443800
     32 H8A1        2.0870   -1.0340    5.4070 hc        1 T3E      0.064033
     33 H8A2        2.1550    0.7840    5.5220 hc        1 T3E      0.064033
     34 H8A3        0.6350   -0.0370    4.9680 hc        1 T3E      0.064033
     35 H7          4.6330   -0.1510    7.8380 hn        1 T3E      0.453800
     36 H2B         5.4810    1.0820    9.7110 ha        1 T3E      0.165000
     37 H6B         7.9180   -1.8040    7.5210 ha        1 T3E      0.195000
     38 H4B         9.3470   -0.1450   11.2400 ha        1 T3E      0.168000
     39 H9B1        5.4320    0.5890   13.3520 hn        1 T3E      0.454133
     40 H9B2        6.2520   -0.6580   12.6620 hn        1 T3E      0.454133
     41 H5B         9.6610   -1.6220    9.2660 ha        1 T3E      0.178000
     42 H6          8.2320   -0.3160    3.9430 h4        1 T3E      0.048100
     43 H9B3        6.9180    0.1680   13.9180 hn        1 T3E      0.454133
@<TRIPOS>BOND
     1    1    2 1   
     2    1   28 1   
     3    1   29 1   
     4    1   30 1   
     5    2    3 1   
     6    2   31 1   
     7    3    4 2   
     8    3   27 1   
     9    4    5 1   
    10    5    6 1   
    11    5    7 2   
    12    6   32 1   
    13    6   33 1   
    14    6   34 1   
    15    7    8 1   
    16    7   27 1   
    17    8    9 ar  
    18    8   24 ar  
    19    9   10 ar  
    20   10   11 1   
    21   10   22 ar  
    22   11   12 1   
    23   11   35 1   
    24   12   13 ar  
    25   12   21 ar  
    26   13   14 ar  
    27   13   36 1   
    28   14   15 1   
    29   14   19 ar  
    30   15   16 2   
    31   15   17 1   
    32   15   18 2   
    33   17   39 1   
    34   17   40 1   
    35   17   43 1   
    36   19   20 ar  
    37   19   38 1   
    38   20   21 ar  
    39   20   41 1   
    40   21   37 1   
    41   22   23 ar  
    42   23   24 ar  
    43   23   42 1   
    44   24   25 1   
    45   25   26 3   
@<TRIPOS>SUBSTRUCTURE
     1 T3E         1 TEMP              0 ****  ****    0 ROOT
