@<TRIPOS>MOLECULE
T3M
   46    48     1     0     0
SMALL
bcc


@<TRIPOS>ATOM
      1 O26         0.4010    0.3370    0.3450 o         1 T3M     -0.824800
      2 C24         1.6060    0.6970    0.2230 c         1 T3M      0.906200
      3 O25         2.2870    1.2400    1.1360 o         1 T3M     -0.824800
      4 C23         2.2800    0.4630   -1.1240 ca        1 T3M     -0.109600
      5 C22         3.5990    0.8730   -1.3410 ca        1 T3M     -0.112500
      6 C21         4.2090    0.6780   -2.5790 ca        1 T3M     -0.141000
      7 C27         1.5810   -0.1630   -2.1620 ca        1 T3M     -0.112500
      8 C28         2.1790   -0.3580   -3.4020 ca        1 T3M     -0.141000
      9 C20         3.4950    0.0770   -3.6210 cp        1 T3M     -0.194500
     10 C19         4.1090   -0.1000   -4.9480 cp        1 T3M      0.333500
     11 N14         5.1990   -0.8630   -5.0850 nb        1 T3M     -0.589000
     12 C17         3.4940    0.5650   -6.1030 ca        1 T3M      0.559900
     13 N18         2.4630    1.4610   -5.9170 nv        1 T3M     -0.945500
     14 N16         3.9870    0.3460   -7.3650 nb        1 T3M     -0.732000
     15 C15         5.0730   -0.4390   -7.4600 ca        1 T3M      0.332900
     16 C13         5.7070   -1.0320   -6.3420 cp        1 T3M      0.257500
     17 C12         6.9080   -1.8560   -6.5340 cp        1 T3M     -0.049500
     18 C4          7.8210   -1.5180   -7.5410 ca        1 T3M     -0.207500
     19 C11         7.1320   -2.9780   -5.7280 ca        1 T3M     -0.207500
     20 C8          8.2740   -3.7630   -5.9290 ca        1 T3M      0.128600
     21 O9          8.5580   -4.9040   -5.2040 os        1 T3M     -0.321900
     22 C10         7.7870   -5.0980   -4.0210 c3        1 T3M      0.112200
     23 C5          9.2060   -3.4350   -6.9360 ca        1 T3M      0.035100
     24 O6         10.4000   -4.1190   -7.0740 os        1 T3M     -0.312900
     25 C7         10.2500   -5.4170   -7.6500 c3        1 T3M      0.116700
     26 C3          8.9530   -2.3120   -7.7510 ca        1 T3M      0.128600
     27 O2          9.8790   -2.0820   -8.7510 os        1 T3M     -0.321900
     28 C1          9.8410   -0.7890   -9.3440 c3        1 T3M      0.112200
     29 H22         4.1400    1.3510   -0.5080 ha        1 T3M      0.156500
     30 H27         0.5470   -0.4940   -1.9660 ha        1 T3M      0.156500
     31 H21         5.2480    0.9970   -2.7420 ha        1 T3M      0.115000
     32 H28         1.6300   -0.8670   -4.2070 ha        1 T3M      0.115000
     33 H181        2.0170    1.4580   -5.0280 hn        1 T3M      0.436800
     34 H182        1.9330    1.7540   -6.7010 hn        1 T3M      0.436800
     35 H15         5.4440   -0.6100   -8.4860 h4        1 T3M      0.019100
     36 H4          7.6480   -0.6240   -8.1550 ha        1 T3M      0.152500
     37 H11         6.4150   -3.2310   -4.9330 ha        1 T3M      0.152500
     38 H101        8.2820   -5.9740   -3.5310 h1        1 T3M      0.044867
     39 H102        7.8310   -4.1980   -3.3620 h1        1 T3M      0.044867
     40 H103        6.7290   -5.3400   -4.2850 h1        1 T3M      0.044867
     41 H71C       11.2910   -5.8230   -7.6610 h1        1 T3M      0.037367
     42 H72C        9.8440   -5.3380   -8.6870 h1        1 T3M      0.037367
     43 H73C        9.5820   -6.0500   -7.0150 h1        1 T3M      0.037367
     44 H11C        9.8820    0.0120   -8.5680 h1        1 T3M      0.044867
     45 H12C       10.7610   -0.7690   -9.9830 h1        1 T3M      0.044867
     46 H13C        8.9250   -0.6770   -9.9740 h1        1 T3M      0.044867
@<TRIPOS>BOND
     1    1    2 1   
     2    2    3 1   
     3    2    4 1   
     4    4    5 ar  
     5    4    7 ar  
     6    5    6 ar  
     7    5   29 1   
     8    6    9 ar  
     9    6   31 1   
    10    7    8 ar  
    11    7   30 1   
    12    8    9 ar  
    13    8   32 1   
    14    9   10 1   
    15   10   11 ar  
    16   10   12 ar  
    17   11   16 ar  
    18   12   13 1   
    19   12   14 ar  
    20   13   33 1   
    21   13   34 1   
    22   14   15 ar  
    23   15   16 ar  
    24   15   35 1   
    25   16   17 1   
    26   17   18 ar  
    27   17   19 ar  
    28   18   26 ar  
    29   18   36 1   
    30   19   20 ar  
    31   19   37 1   
    32   20   21 1   
    33   20   23 ar  
    34   21   22 1   
    35   22   38 1   
    36   22   39 1   
    37   22   40 1   
    38   23   24 1   
    39   23   26 ar  
    40   24   25 1   
    41   25   41 1   
    42   25   42 1   
    43   25   43 1   
    44   26   27 1   
    45   27   28 1   
    46   28   44 1   
    47   28   45 1   
    48   28   46 1   
@<TRIPOS>SUBSTRUCTURE
     1 T3M         1 TEMP              0 ****  ****    0 ROOT
