@<TRIPOS>MOLECULE
T3M
   47    49     1     0     0
SMALL
bcc


@<TRIPOS>ATOM
      1 O26         0.2260    1.0230    0.0600 o         1 T3M     -0.790800
      2 C24         1.4830    1.0730    0.1000 c         1 T3M      0.908200
      3 O25         2.1940    1.4800    1.0510 o         1 T3M     -0.790800
      4 C23         2.2190    0.6140   -1.1690 ca        1 T3M     -0.081600
      5 C22         3.5920    0.8180   -1.3150 ca        1 T3M     -0.108000
      6 C21         4.2330    0.4950   -2.5100 ca        1 T3M     -0.137500
      7 C27         1.4930    0.0110   -2.2090 ca        1 T3M     -0.108000
      8 C28         2.1150   -0.3070   -3.4050 ca        1 T3M     -0.137500
      9 C20         3.4850   -0.0180   -3.5780 cp        1 T3M     -0.285500
     10 C19         4.0940   -0.2200   -4.8910 cp        1 T3M      0.497500
     11 N14         5.2230   -0.9610   -5.0510 nb        1 T3M     -0.615000
     12 C17         3.4930    0.4140   -6.0310 ca        1 T3M      0.251900
     13 N18         2.3170    1.2750   -5.8370 n4        1 T3M     -0.799300
     14 N16         3.9750    0.2660   -7.3030 nb        1 T3M     -0.612000
     15 C15         5.0640   -0.4890   -7.4300 ca        1 T3M      0.285900
     16 C13         5.7180   -1.1030   -6.2980 cp        1 T3M      0.441500
     17 C12         6.9310   -1.8990   -6.5270 cp        1 T3M     -0.134500
     18 C4          7.8180   -1.5180   -7.5430 ca        1 T3M     -0.183000
     19 C11         7.1900   -3.0230   -5.7380 ca        1 T3M     -0.183000
     20 C8          8.3470   -3.7800   -5.9680 ca        1 T3M      0.128100
     21 O9          8.6700   -4.9190   -5.2630 os        1 T3M     -0.308400
     22 C10         7.9060   -5.1740   -4.0850 c3        1 T3M      0.108700
     23 C5          9.2560   -3.4130   -6.9820 ca        1 T3M      0.084100
     24 O6         10.4710   -4.0420   -7.1510 os        1 T3M     -0.306900
     25 C7         10.3790   -5.3880   -7.6270 c3        1 T3M      0.114700
     26 C3          8.9680   -2.2780   -7.7760 ca        1 T3M      0.128100
     27 O2          9.8800   -2.0130   -8.7750 os        1 T3M     -0.308400
     28 C1          9.8030   -0.7210   -9.3700 c3        1 T3M      0.108700
     29 H22         4.1490    1.2440   -0.4610 ha        1 T3M      0.180500
     30 H27         0.4200   -0.1920   -2.0370 ha        1 T3M      0.180500
     31 H21         5.3150    0.6580   -2.6240 ha        1 T3M      0.122500
     32 H28         1.5610   -0.8380   -4.1930 ha        1 T3M      0.122500
     33 H181        1.4680    0.7370   -6.0410 hn        1 T3M      0.470467
     34 H182        2.2930    1.5690   -4.8430 hn        1 T3M      0.470467
     35 H15         5.4460   -0.6350   -8.4570 h4        1 T3M      0.060100
     36 H4          7.6220   -0.6180   -8.1430 ha        1 T3M      0.153000
     37 H11         6.4940   -3.3080   -4.9340 ha        1 T3M      0.153000
     38 H101        8.4280   -6.0540   -3.6300 h1        1 T3M      0.051033
     39 H102        6.8540   -5.4360   -4.3550 h1        1 T3M      0.051033
     40 H103        7.9330   -4.2970   -3.3950 h1        1 T3M      0.051033
     41 H71C        9.8120   -6.0210   -6.9040 h1        1 T3M      0.048367
     42 H72C       11.4490   -5.7100   -7.6890 h1        1 T3M      0.048367
     43 H73C        9.8990   -5.4090   -8.6350 h1        1 T3M      0.048367
     44 H11C       10.7130   -0.6860  -10.0220 h1        1 T3M      0.051033
     45 H12C        9.8390    0.0820   -8.5950 h1        1 T3M      0.051033
     46 H13C        8.8750   -0.6330   -9.9880 h1        1 T3M      0.051033
     47 H183        2.3590    2.0950   -6.4500 hn        1 T3M      0.470467
@<TRIPOS>BOND
     1    1    2 1   
     2    2    3 1   
     3    2    4 1   
     4    4    5 ar  
     5    4    7 ar  
     6    5    6 ar  
     7    5   29 1   
     8    6    9 ar  
     9    6   31 1   
    10    7    8 ar  
    11    7   30 1   
    12    8    9 ar  
    13    8   32 1   
    14    9   10 1   
    15   10   11 ar  
    16   10   12 ar  
    17   11   16 ar  
    18   12   13 1   
    19   12   14 ar  
    20   13   33 1   
    21   13   34 1   
    22   13   47 1   
    23   14   15 ar  
    24   15   16 ar  
    25   15   35 1   
    26   16   17 1   
    27   17   18 ar  
    28   17   19 ar  
    29   18   26 ar  
    30   18   36 1   
    31   19   20 ar  
    32   19   37 1   
    33   20   21 1   
    34   20   23 ar  
    35   21   22 1   
    36   22   38 1   
    37   22   39 1   
    38   22   40 1   
    39   23   24 1   
    40   23   26 ar  
    41   24   25 1   
    42   25   41 1   
    43   25   42 1   
    44   25   43 1   
    45   26   27 1   
    46   27   28 1   
    47   28   44 1   
    48   28   45 1   
    49   28   46 1   
@<TRIPOS>SUBSTRUCTURE
     1 T3M         1 TEMP              0 ****  ****    0 ROOT
