@<TRIPOS>MOLECULE
T3M
   46    48     1     0     0
SMALL
bcc


@<TRIPOS>ATOM
      1 O26         7.5250    1.1610   -0.2150 o         1 T3M     -0.824800
      2 C24         6.6960    1.2170    0.7360 c         1 T3M      0.906200
      3 O25         6.9290    1.7430    1.8600 o         1 T3M     -0.824800
      4 C23         5.3210    0.5990    0.5130 ca        1 T3M     -0.109600
      5 C22         4.3690    0.5900    1.5360 ca        1 T3M     -0.112500
      6 C21         3.1180    0.0050    1.3380 ca        1 T3M     -0.141000
      7 C27         4.9990    0.0280   -0.7240 ca        1 T3M     -0.112500
      8 C28         3.7560   -0.5610   -0.9300 ca        1 T3M     -0.141000
      9 C20         2.8130   -0.5880    0.1090 cp        1 T3M     -0.194500
     10 C19         1.5130   -1.2460   -0.1060 cp        1 T3M      0.333500
     11 N14         0.3820   -0.5360   -0.0240 nb        1 T3M     -0.589000
     12 C17         1.4920   -2.6790   -0.4200 ca        1 T3M      0.559900
     13 N18         2.6540   -3.4190   -0.3540 nh        1 T3M     -0.945500
     14 N16         0.3040   -3.3010   -0.7150 nb        1 T3M     -0.732000
     15 C15        -0.8060   -2.5490   -0.6360 ca        1 T3M      0.332900
     16 C13        -0.7970   -1.1800   -0.2730 cp        1 T3M      0.257500
     17 C12        -2.0620   -0.4380   -0.1840 cp        1 T3M     -0.049500
     18 C4         -3.2150   -1.0960    0.2610 ca        1 T3M     -0.207500
     19 C11        -2.1180    0.9100   -0.5560 ca        1 T3M     -0.207500
     20 C8         -3.3320    1.6030   -0.4790 ca        1 T3M      0.128600
     21 O9         -3.4870    2.9230   -0.8550 os        1 T3M     -0.321900
     22 C10        -2.2830    3.6600   -1.0500 c3        1 T3M      0.112200
     23 C5         -4.5030    0.9570   -0.0300 ca        1 T3M      0.035100
     24 O6         -5.6840    1.6490    0.1720 os        1 T3M     -0.312900
     25 C7         -6.3540    1.9990   -1.0400 c3        1 T3M      0.116700
     26 C3         -4.4310   -0.4070    0.3220 ca        1 T3M      0.128600
     27 O2         -5.6270   -0.9870    0.7010 os        1 T3M     -0.321900
     28 C1         -5.5210   -2.2320    1.3820 c3        1 T3M      0.112200
     29 H22         4.6330    1.0560    2.4990 ha        1 T3M      0.156500
     30 H27         5.7570    0.0600   -1.5250 ha        1 T3M      0.156500
     31 H21         2.3720    0.0070    2.1440 ha        1 T3M      0.115000
     32 H28         3.5030   -0.9910   -1.9100 ha        1 T3M      0.115000
     33 H181        3.5090   -2.9130   -0.3180 hn        1 T3M      0.436800
     34 H182        2.6680   -4.3270   -0.7480 hn        1 T3M      0.436800
     35 H15        -1.7470   -3.0670   -0.8890 h4        1 T3M      0.019100
     36 H4         -3.1580   -2.1480    0.5700 ha        1 T3M      0.152500
     37 H11        -1.2050    1.4210   -0.8950 ha        1 T3M      0.152500
     38 H101       -1.7520    3.2990   -1.9640 h1        1 T3M      0.044867
     39 H102       -2.6430    4.7100   -1.1920 h1        1 T3M      0.044867
     40 H103       -1.6190    3.5860   -0.1550 h1        1 T3M      0.044867
     41 H71C       -7.2550    2.5610   -0.6900 h1        1 T3M      0.037367
     42 H72C       -5.7000    2.6470   -1.6720 h1        1 T3M      0.037367
     43 H73C       -6.6520    1.0790   -1.5980 h1        1 T3M      0.037367
     44 H11C       -5.1940   -3.0350    0.6760 h1        1 T3M      0.044867
     45 H12C       -4.8170   -2.1610    2.2460 h1        1 T3M      0.044867
     46 H13C       -6.5660   -2.4240    1.7360 h1        1 T3M      0.044867
@<TRIPOS>BOND
     1    1    2 1   
     2    2    3 1   
     3    2    4 1   
     4    4    5 ar  
     5    4    7 ar  
     6    5    6 ar  
     7    5   29 1   
     8    6    9 ar  
     9    6   31 1   
    10    7    8 ar  
    11    7   30 1   
    12    8    9 ar  
    13    8   32 1   
    14    9   10 1   
    15   10   11 ar  
    16   10   12 ar  
    17   11   16 ar  
    18   12   13 1   
    19   12   14 ar  
    20   13   33 1   
    21   13   34 1   
    22   14   15 ar  
    23   15   16 ar  
    24   15   35 1   
    25   16   17 1   
    26   17   18 ar  
    27   17   19 ar  
    28   18   26 ar  
    29   18   36 1   
    30   19   20 ar  
    31   19   37 1   
    32   20   21 1   
    33   20   23 ar  
    34   21   22 1   
    35   22   38 1   
    36   22   39 1   
    37   22   40 1   
    38   23   24 1   
    39   23   26 ar  
    40   24   25 1   
    41   25   41 1   
    42   25   42 1   
    43   25   43 1   
    44   26   27 1   
    45   27   28 1   
    46   28   44 1   
    47   28   45 1   
    48   28   46 1   
@<TRIPOS>SUBSTRUCTURE
     1 T3M         1 TEMP              0 ****  ****    0 ROOT
