@<TRIPOS>MOLECULE
T3M
   46    48     1     0     0
SMALL
bcc


@<TRIPOS>ATOM
      1 O26         0.3990    0.3360    0.3430 o         1 T3M     -0.824800
      2 C24         1.6030    0.6960    0.2200 c         1 T3M      0.906200
      3 O25         2.2840    1.2410    1.1330 o         1 T3M     -0.824800
      4 C23         2.2780    0.4620   -1.1260 ca        1 T3M     -0.109600
      5 C22         3.5960    0.8730   -1.3430 ca        1 T3M     -0.112500
      6 C21         4.2060    0.6780   -2.5820 ca        1 T3M     -0.141000
      7 C27         1.5780   -0.1650   -2.1630 ca        1 T3M     -0.112500
      8 C28         2.1770   -0.3610   -3.4040 ca        1 T3M     -0.141000
      9 C20         3.4930    0.0750   -3.6230 cp        1 T3M     -0.194500
     10 C19         4.1060   -0.1020   -4.9490 cp        1 T3M      0.333500
     11 N14         5.1970   -0.8650   -5.0860 nb        1 T3M     -0.589000
     12 C17         3.4910    0.5600   -6.1050 ca        1 T3M      0.559900
     13 N18         2.4590    1.4560   -5.9200 nh        1 T3M     -0.945500
     14 N16         3.9830    0.3400   -7.3670 nb        1 T3M     -0.732000
     15 C15         5.0710   -0.4430   -7.4620 ca        1 T3M      0.332900
     16 C13         5.7050   -1.0350   -6.3430 cp        1 T3M      0.257500
     17 C12         6.9070   -1.8580   -6.5340 cp        1 T3M     -0.049500
     18 C4          7.8190   -1.5200   -7.5430 ca        1 T3M     -0.207500
     19 C11         7.1340   -2.9780   -5.7260 ca        1 T3M     -0.207500
     20 C8          8.2760   -3.7610   -5.9260 ca        1 T3M      0.128600
     21 O9          8.5630   -4.9000   -5.1990 os        1 T3M     -0.321900
     22 C10         7.7930   -5.0920   -4.0140 c3        1 T3M      0.112200
     23 C5          9.2070   -3.4340   -6.9350 ca        1 T3M      0.035100
     24 O6         10.4020   -4.1170   -7.0720 os        1 T3M     -0.312900
     25 C7         10.2530   -5.4170   -7.6440 c3        1 T3M      0.116700
     26 C3          8.9520   -2.3130   -7.7510 ca        1 T3M      0.128600
     27 O2          9.8770   -2.0850   -8.7530 os        1 T3M     -0.321900
     28 C1          9.8360   -0.7930   -9.3500 c3        1 T3M      0.112200
     29 H22         4.1370    1.3520   -0.5110 ha        1 T3M      0.156500
     30 H27         0.5460   -0.4980   -1.9680 ha        1 T3M      0.156500
     31 H21         5.2450    0.9970   -2.7440 ha        1 T3M      0.115000
     32 H28         1.6280   -0.8710   -4.2080 ha        1 T3M      0.115000
     33 H181        2.0130    1.4530   -5.0310 hn        1 T3M      0.436800
     34 H182        1.9280    1.7470   -6.7050 hn        1 T3M      0.436800
     35 H15         5.4420   -0.6150   -8.4870 h4        1 T3M      0.019100
     36 H4          7.6440   -0.6280   -8.1590 ha        1 T3M      0.152500
     37 H11         6.4170   -3.2290   -4.9290 ha        1 T3M      0.152500
     38 H101        6.7350   -5.3370   -4.2760 h1        1 T3M      0.044867
     39 H102        8.2890   -5.9660   -3.5220 h1        1 T3M      0.044867
     40 H103        7.8360   -4.1900   -3.3580 h1        1 T3M      0.044867
     41 H71C        9.5860   -6.0480   -7.0070 h1        1 T3M      0.037367
     42 H72C       11.2950   -5.8210   -7.6550 h1        1 T3M      0.037367
     43 H73C        9.8460   -5.3400   -8.6810 h1        1 T3M      0.037367
     44 H11C       10.7550   -0.7730   -9.9890 h1        1 T3M      0.044867
     45 H12C        8.9190   -0.6850   -9.9790 h1        1 T3M      0.044867
     46 H13C        9.8760    0.0100   -8.5760 h1        1 T3M      0.044867
@<TRIPOS>BOND
     1    1    2 1   
     2    2    3 1   
     3    2    4 1   
     4    4    5 ar  
     5    4    7 ar  
     6    5    6 ar  
     7    5   29 1   
     8    6    9 ar  
     9    6   31 1   
    10    7    8 ar  
    11    7   30 1   
    12    8    9 ar  
    13    8   32 1   
    14    9   10 1   
    15   10   11 ar  
    16   10   12 ar  
    17   11   16 ar  
    18   12   13 1   
    19   12   14 ar  
    20   13   33 1   
    21   13   34 1   
    22   14   15 ar  
    23   15   16 ar  
    24   15   35 1   
    25   16   17 1   
    26   17   18 ar  
    27   17   19 ar  
    28   18   26 ar  
    29   18   36 1   
    30   19   20 ar  
    31   19   37 1   
    32   20   21 1   
    33   20   23 ar  
    34   21   22 1   
    35   22   38 1   
    36   22   39 1   
    37   22   40 1   
    38   23   24 1   
    39   23   26 ar  
    40   24   25 1   
    41   25   41 1   
    42   25   42 1   
    43   25   43 1   
    44   26   27 1   
    45   27   28 1   
    46   28   44 1   
    47   28   45 1   
    48   28   46 1   
@<TRIPOS>SUBSTRUCTURE
     1 T3M         1 TEMP              0 ****  ****    0 ROOT
