@<TRIPOS>MOLECULE
T3O
   41    43     1     0     0
SMALL
bcc


@<TRIPOS>ATOM
      1 CAN         1.2600    0.4380    1.5640 c3        1 T3O     -0.075400
      2 CAD         1.0770    1.2690    0.3020 c3        1 T3O     -0.046500
      3 CAI         2.4220    1.6460   -0.2470 c2        1 T3O     -0.120400
      4 CAL         2.4820    2.8970   -1.0350 c3        1 T3O     -0.054900
      5 CAO         3.4960    0.8730   -0.0230 c2        1 T3O     -0.155200
      6 CAM         3.4610   -0.3730    0.7820 c3        1 T3O     -0.040200
      7 CAP         2.0560   -0.8060    1.1920 c3        1 T3O     -0.076700
      8 CAK         1.2930   -1.6130    0.1240 c3        1 T3O      0.160800
      9 CAF         2.1700   -2.7010   -0.4990 c3        1 T3O     -0.103100
     10 CAQ         0.0730   -2.2820    0.7550 c3        1 T3O     -0.103100
     11 OAR         0.8900   -0.8140   -0.9990 os        1 T3O     -0.410600
     12 CAB         0.2970    0.4570   -0.7420 c3        1 T3O      0.202400
     13 CAA        -1.1800    0.3330   -0.4850 ca        1 T3O     -0.141300
     14 CAC        -1.9190   -0.4750   -1.3670 ca        1 T3O     -0.084000
     15 CAH        -3.2960   -0.6010   -1.2470 ca        1 T3O     -0.189000
     16 CAJ        -3.9550    0.0980   -0.2220 ca        1 T3O      0.125100
     17 OAS        -5.3210   -0.0580   -0.1500 oh        1 T3O     -0.498100
     18 CAG        -3.2360    0.9040    0.6680 ca        1 T3O     -0.189000
     19 CAE        -1.8530    1.0140    0.5300 ca        1 T3O     -0.084000
     20 HAN1        0.2640    0.1610    1.9940 hc        1 T3O      0.049200
     21 HAN2        1.8150    1.0290    2.3360 hc        1 T3O      0.049200
     22 HAD         0.5080    2.2100    0.5340 hc        1 T3O      0.061700
     23 HAL1        3.4980    3.0590   -1.4700 hc        1 T3O      0.040700
     24 HAL2        1.7410    2.8630   -1.8730 hc        1 T3O      0.040700
     25 HAL3        2.2320    3.7730   -0.3850 hc        1 T3O      0.040700
     26 HAO         4.4850    1.1430   -0.4250 ha        1 T3O      0.122000
     27 HAM1        3.9780   -1.1940    0.2180 hc        1 T3O      0.050700
     28 HAM2        4.0600   -0.1960    1.7190 hc        1 T3O      0.050700
     29 HAP         2.1500   -1.4720    2.0950 hc        1 T3O      0.053700
     30 HAF1        2.8770   -2.2570   -1.2390 hc        1 T3O      0.044033
     31 HAF2        2.7420   -3.2220    0.3030 hc        1 T3O      0.044033
     32 HAF3        1.5310   -3.4430   -1.0340 hc        1 T3O      0.044033
     33 HAQ1       -0.4990   -2.8340   -0.0300 hc        1 T3O      0.044033
     34 HAQ2        0.4000   -3.0020    1.5420 hc        1 T3O      0.044033
     35 HAQ3       -0.6100   -1.5250    1.2090 hc        1 T3O      0.044033
     36 HAB         0.4120    0.9720   -1.7490 h1        1 T3O      0.076700
     37 HAC        -1.3830   -1.0220   -2.1600 ha        1 T3O      0.141500
     38 HAH        -3.8760   -1.2320   -1.9350 ha        1 T3O      0.141500
     39 HOAS       -5.6430    0.4760    0.5910 ho        1 T3O      0.418000
     40 HAG        -3.7560    1.4470    1.4700 ha        1 T3O      0.141500
     41 HAE        -1.3050    1.6470    1.2440 ha        1 T3O      0.141500
@<TRIPOS>BOND
     1    1    2 1   
     2    1    7 1   
     3    1   20 1   
     4    1   21 1   
     5    2    3 1   
     6    2   12 1   
     7    2   22 1   
     8    3    4 1   
     9    3    5 2   
    10    4   23 1   
    11    4   24 1   
    12    4   25 1   
    13    5    6 1   
    14    5   26 1   
    15    6    7 1   
    16    6   27 1   
    17    6   28 1   
    18    7    8 1   
    19    7   29 1   
    20    8    9 1   
    21    8   10 1   
    22    8   11 1   
    23    9   30 1   
    24    9   31 1   
    25    9   32 1   
    26   10   33 1   
    27   10   34 1   
    28   10   35 1   
    29   11   12 1   
    30   12   13 1   
    31   12   36 1   
    32   13   14 ar  
    33   13   19 ar  
    34   14   15 ar  
    35   14   37 1   
    36   15   16 ar  
    37   15   38 1   
    38   16   17 1   
    39   16   18 ar  
    40   17   39 1   
    41   18   19 ar  
    42   18   40 1   
    43   19   41 1   
@<TRIPOS>SUBSTRUCTURE
     1 T3O         1 TEMP              0 ****  ****    0 ROOT
