@<TRIPOS>MOLECULE
T3O
   41    43     1     0     0
SMALL
bcc


@<TRIPOS>ATOM
      1 CAN         0.0690    0.1100    0.1150 c3        1 T3O     -0.075400
      2 CAD         1.5850   -0.0220    0.0780 c3        1 T3O     -0.046500
      3 CAI         2.1210   -0.0190    1.4800 c2        1 T3O     -0.120400
      4 CAL         3.5040    0.4820    1.6520 c3        1 T3O     -0.054900
      5 CAO         1.3690   -0.4500    2.5030 c2        1 T3O     -0.155200
      6 CAM        -0.0260   -0.9340    2.3540 c3        1 T3O     -0.040200
      7 CAP        -0.4830   -1.0700    0.9050 c3        1 T3O     -0.076700
      8 CAK        -0.0750   -2.3900    0.2220 c3        1 T3O      0.160800
      9 CAF        -0.3420   -3.6000    1.1200 c3        1 T3O     -0.103100
     10 CAQ        -0.8670   -2.5690   -1.0730 c3        1 T3O     -0.103100
     11 OAR         1.3330   -2.4690   -0.0480 os        1 T3O     -0.410600
     12 CAB         1.9720   -1.3310   -0.6250 c3        1 T3O      0.202400
     13 CAA         1.8320   -1.3220   -2.1220 ca        1 T3O     -0.141300
     14 CAC         2.0920   -2.5270   -2.7980 ca        1 T3O     -0.084000
     15 CAH         2.0490   -2.5990   -4.1840 ca        1 T3O     -0.189000
     16 CAJ         1.7400   -1.4390   -4.9160 ca        1 T3O      0.125100
     17 OAS         1.7150   -1.5650   -6.2860 oh        1 T3O     -0.498100
     18 CAG         1.4760   -0.2310   -4.2600 ca        1 T3O     -0.189000
     19 CAE         1.5220   -0.1830   -2.8670 ca        1 T3O     -0.084000
     20 HAN1       -0.3450    0.1220   -0.9240 hc        1 T3O      0.049200
     21 HAN2       -0.2210    1.0700    0.6130 hc        1 T3O      0.049200
     22 HAD         2.0380    0.8410   -0.4820 hc        1 T3O      0.061700
     23 HAL1        3.5600    1.5630    1.3690 hc        1 T3O      0.040700
     24 HAL2        3.8480    0.3760    2.7100 hc        1 T3O      0.040700
     25 HAL3        4.2060   -0.0880    0.9930 hc        1 T3O      0.040700
     26 HAO         1.7580   -0.4530    3.5340 ha        1 T3O      0.122000
     27 HAM1       -0.1400   -1.9090    2.8970 hc        1 T3O      0.050700
     28 HAM2       -0.7040   -0.1960    2.8670 hc        1 T3O      0.050700
     29 HAP        -1.6080   -1.0340    0.8930 hc        1 T3O      0.053700
     30 HAF1       -0.3220   -4.5350    0.5120 hc        1 T3O      0.044033
     31 HAF2        0.4450   -3.6830    1.9070 hc        1 T3O      0.044033
     32 HAF3       -1.3440   -3.4950    1.5980 hc        1 T3O      0.044033
     33 HAQ1       -0.6910   -1.7170   -1.7710 hc        1 T3O      0.044033
     34 HAQ2       -0.5420   -3.5070   -1.5840 hc        1 T3O      0.044033
     35 HAQ3       -1.9560   -2.6380   -0.8430 hc        1 T3O      0.044033
     36 HAB         3.0650   -1.5440   -0.3980 h1        1 T3O      0.076700
     37 HAC         2.3230   -3.4280   -2.2070 ha        1 T3O      0.141500
     38 HAH         2.2510   -3.5390   -4.7150 ha        1 T3O      0.141500
     39 HOAS        1.4960   -0.6990   -6.6600 ho        1 T3O      0.418000
     40 HAG         1.2330    0.6720   -4.8360 ha        1 T3O      0.141500
     41 HAE         1.3040    0.7750   -2.3700 ha        1 T3O      0.141500
@<TRIPOS>BOND
     1    1    2 1   
     2    1    7 1   
     3    1   20 1   
     4    1   21 1   
     5    2    3 1   
     6    2   12 1   
     7    2   22 1   
     8    3    4 1   
     9    3    5 2   
    10    4   23 1   
    11    4   24 1   
    12    4   25 1   
    13    5    6 1   
    14    5   26 1   
    15    6    7 1   
    16    6   27 1   
    17    6   28 1   
    18    7    8 1   
    19    7   29 1   
    20    8    9 1   
    21    8   10 1   
    22    8   11 1   
    23    9   30 1   
    24    9   31 1   
    25    9   32 1   
    26   10   33 1   
    27   10   34 1   
    28   10   35 1   
    29   11   12 1   
    30   12   13 1   
    31   12   36 1   
    32   13   14 ar  
    33   13   19 ar  
    34   14   15 ar  
    35   14   37 1   
    36   15   16 ar  
    37   15   38 1   
    38   16   17 1   
    39   16   18 ar  
    40   17   39 1   
    41   18   19 ar  
    42   18   40 1   
    43   19   41 1   
@<TRIPOS>SUBSTRUCTURE
     1 T3O         1 TEMP              0 ****  ****    0 ROOT
