@<TRIPOS>MOLECULE
T3O
   41    43     1     0     0
SMALL
bcc


@<TRIPOS>ATOM
      1 CAN         0.0780    0.1120    0.1160 c3        1 T3O     -0.075400
      2 CAD         1.5940   -0.0260    0.0760 c3        1 T3O     -0.046500
      3 CAI         2.1320   -0.0260    1.4770 c2        1 T3O     -0.120400
      4 CAL         3.5170    0.4680    1.6480 c3        1 T3O     -0.054900
      5 CAO         1.3790   -0.4550    2.5010 c2        1 T3O     -0.155200
      6 CAM        -0.0180   -0.9330    2.3540 c3        1 T3O     -0.040200
      7 CAP        -0.4770   -1.0650    0.9050 c3        1 T3O     -0.076700
      8 CAK        -0.0760   -2.3870    0.2200 c3        1 T3O      0.160800
      9 CAF        -0.3480   -3.5960    1.1180 c3        1 T3O     -0.103100
     10 CAQ        -0.8720   -2.5610   -1.0730 c3        1 T3O     -0.103100
     11 OAR         1.3310   -2.4710   -0.0520 os        1 T3O     -0.410600
     12 CAB         1.9740   -1.3360   -0.6280 c3        1 T3O      0.202400
     13 CAA         1.8320   -1.3250   -2.1250 ca        1 T3O     -0.141300
     14 CAC         2.0850   -2.5300   -2.8030 ca        1 T3O     -0.084000
     15 CAH         2.0400   -2.6010   -4.1890 ca        1 T3O     -0.189000
     16 CAJ         1.7360   -1.4390   -4.9190 ca        1 T3O      0.125100
     17 OAS         1.7080   -1.5630   -6.2900 oh        1 T3O     -0.498100
     18 CAG         1.4770   -0.2310   -4.2620 ca        1 T3O     -0.189000
     19 CAE         1.5260   -0.1840   -2.8690 ca        1 T3O     -0.084000
     20 HAN1       -0.3380    0.1280   -0.9230 hc        1 T3O      0.049200
     21 HAN2       -0.2070    1.0740    0.6150 hc        1 T3O      0.049200
     22 HAD         2.0500    0.8360   -0.4830 hc        1 T3O      0.062700
     23 HAL1        3.8630    0.3590    2.7050 hc        1 T3O      0.040700
     24 HAL2        4.2160   -0.1040    0.9870 hc        1 T3O      0.040700
     25 HAL3        3.5780    1.5490    1.3660 hc        1 T3O      0.040700
     26 HAO         1.7700   -0.4610    3.5320 ha        1 T3O      0.122000
     27 HAM1       -0.6920   -0.1920    2.8690 hc        1 T3O      0.050700
     28 HAM2       -0.1360   -1.9080    2.8960 hc        1 T3O      0.050700
     29 HAP        -1.6020   -1.0240    0.8950 hc        1 T3O      0.053700
     30 HAF1        0.4400   -3.6840    1.9030 hc        1 T3O      0.044033
     31 HAF2       -1.3480   -3.4870    1.5970 hc        1 T3O      0.044033
     32 HAF3       -0.3330   -4.5310    0.5090 hc        1 T3O      0.044033
     33 HAQ1       -1.9610   -2.6240   -0.8420 hc        1 T3O      0.044033
     34 HAQ2       -0.5510   -3.5000   -1.5860 hc        1 T3O      0.044033
     35 HAQ3       -0.6930   -1.7090   -1.7720 hc        1 T3O      0.044033
     36 HAB         3.0660   -1.5540   -0.4040 h1        1 T3O      0.076700
     37 HAC         2.3140   -3.4330   -2.2130 ha        1 T3O      0.141500
     38 HAH         2.2370   -3.5420   -4.7210 ha        1 T3O      0.141500
     39 HOAS        1.4920   -0.6970   -6.6620 ho        1 T3O      0.418000
     40 HAG         1.2380    0.6740   -4.8370 ha        1 T3O      0.141500
     41 HAE         1.3130    0.7740   -2.3700 ha        1 T3O      0.141500
@<TRIPOS>BOND
     1    1    2 1   
     2    1    7 1   
     3    1   20 1   
     4    1   21 1   
     5    2    3 1   
     6    2   12 1   
     7    2   22 1   
     8    3    4 1   
     9    3    5 2   
    10    4   23 1   
    11    4   24 1   
    12    4   25 1   
    13    5    6 1   
    14    5   26 1   
    15    6    7 1   
    16    6   27 1   
    17    6   28 1   
    18    7    8 1   
    19    7   29 1   
    20    8    9 1   
    21    8   10 1   
    22    8   11 1   
    23    9   30 1   
    24    9   31 1   
    25    9   32 1   
    26   10   33 1   
    27   10   34 1   
    28   10   35 1   
    29   11   12 1   
    30   12   13 1   
    31   12   36 1   
    32   13   14 ar  
    33   13   19 ar  
    34   14   15 ar  
    35   14   37 1   
    36   15   16 ar  
    37   15   38 1   
    38   16   17 1   
    39   16   18 ar  
    40   17   39 1   
    41   18   19 ar  
    42   18   40 1   
    43   19   41 1   
@<TRIPOS>SUBSTRUCTURE
     1 T3O         1 TEMP              0 ****  ****    0 ROOT
