@<TRIPOS>MOLECULE
T3P
   34    35     1     0     0
SMALL
bcc


@<TRIPOS>ATOM
      1 P          -0.1460   -1.0810   -4.1920 p5        1 T3P      1.324900
      2 OP1         0.9130   -0.0040   -4.2680 o         1 T3P     -0.924833
      3 OP2         0.1410   -2.3810   -4.8760 o         1 T3P     -0.924833
      4 OP3        -1.5580   -0.5780   -4.1970 o         1 T3P     -0.924833
      5 O5'         2.5970    1.5600   -2.4510 oh        1 T3P     -0.672800
      6 C5'         1.9910    1.2970   -1.2090 c3        1 T3P      0.153400
      7 C4'         1.5210   -0.1500   -1.0990 c3        1 T3P      0.060100
      8 O4'         1.4950   -0.5330    0.2960 os        1 T3P     -0.455600
      9 C3'         0.1000   -0.3670   -1.7040 c3        1 T3P      0.239100
     10 O3'         0.0580   -1.4790   -2.4890 os        1 T3P     -0.547200
     11 C2'        -0.7980   -0.5290   -0.4490 c3        1 T3P     -0.143400
     12 C1'         0.1730   -0.9050    0.6760 c3        1 T3P      0.313500
     13 N1         -0.1220   -0.3510    2.0220 n         1 T3P     -0.349000
     14 C2         -0.3390    1.0360    2.2360 c         1 T3P      0.801500
     15 O2         -0.4560    1.8780    1.3260 o         1 T3P     -0.603500
     16 N3         -0.4720    1.4920    3.5720 n         1 T3P     -0.599500
     17 C4         -0.3370    0.6650    4.6900 c         1 T3P      0.725700
     18 O4         -0.4690    1.1640    5.8290 o         1 T3P     -0.681500
     19 C5         -0.0500   -0.7460    4.4140 cc        1 T3P     -0.330400
     20 C5M         0.1210   -1.6570    5.5600 c3        1 T3P     -0.009900
     21 C6          0.0670   -1.1660    3.1160 cd        1 T3P      0.081600
     22 H5'         2.0630    1.1200   -3.1550 ho        1 T3P      0.503000
     23 H5'1        1.1280    1.9980   -1.0440 h1        1 T3P      0.010200
     24 H5''        2.7790    1.5100   -0.4350 h1        1 T3P      0.010200
     25 H3'        -0.2100    0.5540   -2.2800 h1        1 T3P      0.075700
     26 H2'        -1.5360   -1.3480   -0.6150 hc        1 T3P      0.065200
     27 H2''       -1.3390    0.4240   -0.2450 hc        1 T3P      0.065200
     28 H1'         0.1850   -2.0300    0.8200 h2        1 T3P      0.051700
     29 H3         -0.6370    2.4660    3.6950 hn        1 T3P      0.334500
     30 H51        -0.5630   -1.3590    6.3940 hc        1 T3P      0.032367
     31 H52        -0.0990   -2.7140    5.2710 hc        1 T3P      0.032367
     32 H53         1.1720   -1.6080    5.9430 hc        1 T3P      0.032367
     33 H6          0.3050   -2.2250    2.8880 h4        1 T3P      0.161000
     34 H4'         2.2590   -0.8430   -1.5850 h1        1 T3P      0.091700
@<TRIPOS>BOND
     1    1    2 1   
     2    1    3 1   
     3    1    4 1   
     4    1   10 1   
     5    5    6 1   
     6    5   22 1   
     7    6    7 1   
     8    6   23 1   
     9    6   24 1   
    10    7    8 1   
    11    7    9 1   
    12    7   34 1   
    13    8   12 1   
    14    9   10 1   
    15    9   11 1   
    16    9   25 1   
    17   11   12 1   
    18   11   26 1   
    19   11   27 1   
    20   12   13 1   
    21   12   28 1   
    22   13   14 1   
    23   13   21 1   
    24   14   15 2   
    25   14   16 1   
    26   16   17 1   
    27   16   29 1   
    28   17   18 2   
    29   17   19 1   
    30   19   20 1   
    31   19   21 2   
    32   20   30 1   
    33   20   31 1   
    34   20   32 1   
    35   21   33 1   
@<TRIPOS>SUBSTRUCTURE
     1 T3P         1 TEMP              0 ****  ****    0 ROOT
