@<TRIPOS>MOLECULE
T3S
   45    47     1     0     0
SMALL
bcc


@<TRIPOS>ATOM
      1 C21        -0.2000    0.9100   -0.4900 c3        1 T3S      0.167300
      2 C22         1.3170    0.9800   -0.6450 c3        1 T3S     -0.076400
      3 C23         2.0050    0.8380    0.6950 c3        1 T3S     -0.078400
      4 C24         1.4720    1.8690    1.6660 c3        1 T3S     -0.076400
      5 C25        -0.0510    1.8040    1.7700 c3        1 T3S      0.167300
      6 N26        -0.7280    1.8610    0.4830 n3        1 T3S     -0.719600
      7 C5'        -2.1750    1.7400    0.5780 c3        1 T3S      0.152800
      8 C4'        -2.8470    2.6030    1.6530 c3        1 T3S      0.138100
      9 O4'        -2.4540    3.9780    1.5560 os        1 T3S     -0.409600
     10 C3'        -4.3850    2.5480    1.4980 c3        1 T3S      0.117100
     11 O3'        -4.9050    2.0080    2.7000 oh        1 T3S     -0.594800
     12 C2'        -4.8310    4.0010    1.2880 c3        1 T3S     -0.136400
     13 C1'        -3.5290    4.7920    1.0690 c3        1 T3S      0.311500
     14 N1         -3.2700    5.2510   -0.2980 n         1 T3S     -0.377000
     15 C6         -2.4050    6.3320   -0.4590 cc        1 T3S      0.042600
     16 C5         -1.9710    6.7660   -1.6730 cd        1 T3S     -0.248400
     17 C5M        -1.0910    7.9390   -1.8410 c3        1 T3S     -0.031900
     18 C4         -2.3690    6.0420   -2.8940 c         1 T3S      0.717700
     19 O4         -2.0460    6.3540   -4.0520 o         1 T3S     -0.609500
     20 N3         -3.1790    4.9100   -2.7000 ns        1 T3S     -0.584500
     21 C2         -3.5920    4.4630   -1.4360 c         1 T3S      0.814500
     22 O2         -4.2680    3.4120   -1.3580 o         1 T3S     -0.665500
     23 H21        -0.6770    1.1470   -1.4830 h1        1 T3S      0.031200
     24 H21A       -0.4810   -0.1520   -0.2230 h1        1 T3S      0.031200
     25 H22         1.6390    0.1580   -1.3350 hc        1 T3S      0.046700
     26 H22A        1.6060    1.9550   -1.1150 hc        1 T3S      0.046700
     27 H23         3.1110    0.9660    0.5720 hc        1 T3S      0.039200
     28 H23A        1.8280   -0.1920    1.1030 hc        1 T3S      0.039200
     29 H24         1.7810    2.8930    1.3310 hc        1 T3S      0.046700
     30 H24A        1.9010    1.6970    2.6860 hc        1 T3S      0.046700
     31 H25        -0.4010    2.6950    2.3660 h1        1 T3S      0.031200
     32 H25A       -0.3310    0.8710    2.3440 h1        1 T3S      0.031200
     33 H5'        -2.4970    0.6750    0.7860 h1        1 T3S      0.047200
     34 H5'A       -2.5890    2.0400   -0.4290 h1        1 T3S      0.047200
     35 H4'        -2.5420    2.2800    2.6870 h1        1 T3S      0.090700
     36 H3'        -4.6860    1.9130    0.6200 h1        1 T3S      0.077700
     37 HO3'       -5.8510    1.8820    2.5610 ho        1 T3S      0.407000
     38 H2'        -5.3320    4.3890    2.2110 hc        1 T3S      0.081200
     39 H2'A       -5.5430    4.0860    0.4330 hc        1 T3S      0.081200
     40 H1'        -3.5040    5.7190    1.7210 h2        1 T3S      0.085700
     41 H6         -2.0980    6.8380    0.4770 h4        1 T3S      0.166000
     42 H5M        -0.9710    8.4980   -0.8810 hc        1 T3S      0.052033
     43 H5MA       -0.0810    7.6110   -2.1950 hc        1 T3S      0.052033
     44 H5MB       -1.5170    8.6290   -2.6130 hc        1 T3S      0.052033
     45 HN3        -3.4480    4.3550   -3.4850 hn        1 T3S      0.350500
@<TRIPOS>BOND
     1    1    2 1   
     2    1    6 1   
     3    1   23 1   
     4    1   24 1   
     5    2    3 1   
     6    2   25 1   
     7    2   26 1   
     8    3    4 1   
     9    3   27 1   
    10    3   28 1   
    11    4    5 1   
    12    4   29 1   
    13    4   30 1   
    14    5    6 1   
    15    5   31 1   
    16    5   32 1   
    17    6    7 1   
    18    7    8 1   
    19    7   33 1   
    20    7   34 1   
    21    8    9 1   
    22    8   10 1   
    23    8   35 1   
    24    9   13 1   
    25   10   11 1   
    26   10   12 1   
    27   10   36 1   
    28   11   37 1   
    29   12   13 1   
    30   12   38 1   
    31   12   39 1   
    32   13   14 1   
    33   13   40 1   
    34   14   15 1   
    35   14   21 1   
    36   15   16 2   
    37   15   41 1   
    38   16   17 1   
    39   16   18 1   
    40   17   42 1   
    41   17   43 1   
    42   17   44 1   
    43   18   19 2   
    44   18   20 1   
    45   20   21 1   
    46   20   45 1   
    47   21   22 2   
@<TRIPOS>SUBSTRUCTURE
     1 T3S         1 TEMP              0 ****  ****    0 ROOT
