@<TRIPOS>MOLECULE
T3S
   45    47     1     0     0
SMALL
bcc


@<TRIPOS>ATOM
      1 C21         2.9780   -1.2330    1.1860 c3        1 T3S      0.167300
      2 C22         3.5070   -2.5850    0.7170 c3        1 T3S     -0.076400
      3 C23         4.4930   -2.4160   -0.4180 c3        1 T3S     -0.078400
      4 C24         3.8650   -1.6170   -1.5390 c3        1 T3S     -0.076400
      5 C25         3.3080   -0.2870   -1.0340 c3        1 T3S      0.167300
      6 N26         2.4170   -0.4230    0.1090 n3        1 T3S     -0.719600
      7 C5'         1.9330    0.8480    0.6260 c3        1 T3S      0.152800
      8 C4'         1.4240    1.8450   -0.4220 c3        1 T3S      0.138100
      9 O4'         0.4600    1.2500   -1.3000 os        1 T3S     -0.409600
     10 C3'         0.7410    3.0470    0.2710 c3        1 T3S      0.117100
     11 O3'         1.4650    4.2070   -0.0990 oh        1 T3S     -0.594800
     12 C2'        -0.6940    3.0750   -0.2720 c3        1 T3S     -0.136400
     13 C1'        -0.8580    1.7520   -1.0420 c3        1 T3S      0.311500
     14 N1         -1.7010    0.7340   -0.4110 n         1 T3S     -0.377000
     15 C6         -2.2560   -0.2410   -1.2380 cc        1 T3S      0.042600
     16 C5         -2.9390   -1.3200   -0.7660 cd        1 T3S     -0.248400
     17 C5M        -3.5640   -2.3250   -1.6470 c3        1 T3S     -0.031900
     18 C4         -3.0620   -1.5280    0.6880 c         1 T3S      0.717700
     19 O4         -3.6710   -2.4650    1.2310 o         1 T3S     -0.609500
     20 N3         -2.4280   -0.5740    1.5020 n         1 T3S     -0.584500
     21 C2         -1.7050    0.5170    0.9930 c         1 T3S      0.814500
     22 O2         -1.1270    1.2850    1.7960 o         1 T3S     -0.665500
     23 H21         2.1570   -1.4050    1.9370 h1        1 T3S      0.031200
     24 H21A        3.8160   -0.6890    1.7170 h1        1 T3S      0.031200
     25 H22         3.9990   -3.0920    1.5860 hc        1 T3S      0.046700
     26 H22A        2.6530   -3.2300    0.3820 hc        1 T3S      0.046700
     27 H23         5.4110   -1.8890   -0.0460 hc        1 T3S      0.039200
     28 H23A        4.8130   -3.4210   -0.7990 hc        1 T3S      0.039200
     29 H24         4.6260   -1.4010   -2.3320 hc        1 T3S      0.046700
     30 H24A        3.0410   -2.2150   -2.0090 hc        1 T3S      0.046700
     31 H25         4.1760    0.3990   -0.8020 h1        1 T3S      0.031200
     32 H25A        2.7090    0.1810   -1.8670 h1        1 T3S      0.031200
     33 H5'         1.0830    0.6050    1.3290 h1        1 T3S      0.047200
     34 H5'A        2.7290    1.3940    1.2160 h1        1 T3S      0.047200
     35 H4'         2.2580    2.1950   -1.0920 h1        1 T3S      0.090700
     36 H3'         0.7370    2.9260    1.3890 h1        1 T3S      0.077700
     37 HO3'        1.0990    4.9380    0.4130 ho        1 T3S      0.407000
     38 H2'        -1.4360    3.1950    0.5530 hc        1 T3S      0.081200
     39 H2'A       -0.8180    3.9240   -0.9910 hc        1 T3S      0.081200
     40 H1'        -1.3010    1.9340   -2.0690 h2        1 T3S      0.085700
     41 H6         -2.1220   -0.0750   -2.3240 h4        1 T3S      0.166000
     42 H5M        -3.0170   -3.2980   -1.5640 hc        1 T3S      0.051700
     43 H5MA       -4.6240   -2.5000   -1.3350 hc        1 T3S      0.051700
     44 H5MB       -3.5490   -1.9940   -2.7140 hc        1 T3S      0.051700
     45 HN3        -2.4420   -0.6830    2.4930 hn        1 T3S      0.350500
@<TRIPOS>BOND
     1    1    2 1   
     2    1    6 1   
     3    1   23 1   
     4    1   24 1   
     5    2    3 1   
     6    2   25 1   
     7    2   26 1   
     8    3    4 1   
     9    3   27 1   
    10    3   28 1   
    11    4    5 1   
    12    4   29 1   
    13    4   30 1   
    14    5    6 1   
    15    5   31 1   
    16    5   32 1   
    17    6    7 1   
    18    7    8 1   
    19    7   33 1   
    20    7   34 1   
    21    8    9 1   
    22    8   10 1   
    23    8   35 1   
    24    9   13 1   
    25   10   11 1   
    26   10   12 1   
    27   10   36 1   
    28   11   37 1   
    29   12   13 1   
    30   12   38 1   
    31   12   39 1   
    32   13   14 1   
    33   13   40 1   
    34   14   15 1   
    35   14   21 1   
    36   15   16 2   
    37   15   41 1   
    38   16   17 1   
    39   16   18 1   
    40   17   42 1   
    41   17   43 1   
    42   17   44 1   
    43   18   19 2   
    44   18   20 1   
    45   20   21 1   
    46   20   45 1   
    47   21   22 2   
@<TRIPOS>SUBSTRUCTURE
     1 T3S         1 TEMP              0 ****  ****    0 ROOT
