@<TRIPOS>MOLECULE
T3S
   45    46     1     0     0
SMALL
bcc


@<TRIPOS>ATOM
      1 C21         2.4570   -1.1450    1.0240 c3        1 T3S     -0.065500
      2 C22         3.9510   -1.4490    0.9600 c3        1 T3S     -0.156500
      3 C23         4.4950   -1.3100   -0.4060 c3        1 T3S     -0.158000
      4 C24         4.1530   -0.0140   -1.0150 c3        1 T3S     -0.156500
      5 C25         2.6620    0.2840   -0.9460 c3        1 T3S     -0.065500
      6 N26         2.1230    0.1400    0.4140 n3        1 T3S     -0.270000
      7 C5'         0.6670    0.3020    0.3810 c3        1 T3S     -0.088000
      8 C4'         0.2770    1.5690    1.1450 c3        1 T3S     -0.004000
      9 O4'        -0.7910    2.4290    0.2890 os        1 T3S     -0.283000
     10 C3'        -0.3060    1.2590    2.2450 c3        1 T3S      0.021000
     11 O3'        -0.0300    2.2850    3.2780 oh        1 T3S     -0.327000
     12 C2'        -1.8450    1.2350    1.8980 c3        1 T3S     -0.182000
     13 C1'        -1.9620    1.8840    0.5110 c3        1 T3S      0.164000
     14 N1         -2.2480    0.8810   -0.4910 n         1 T3S     -0.273000
     15 C6         -3.0960   -0.2190   -0.1700 c2        1 T3S      0.037000
     16 C5         -3.6600   -1.0500   -1.2470 c1        1 T3S     -0.227000
     17 C5M        -4.7400   -2.0740   -0.9330 c2        1 T3S     -0.154000
     18 C4         -3.2410   -0.8260   -2.6390 c2        1 T3S      0.354000
     19 O4         -3.7060   -1.5110   -3.5320 o         1 T3S     -0.332000
     20 N3         -2.3650    0.2540   -2.9530 n         1 T3S     -0.366000
     21 C2         -1.8310    1.1020   -1.8800 c2        1 T3S      0.401000
     22 O2         -1.0730    2.0140   -2.1480 o         1 T3S     -0.380000
     23 H21         1.9700   -1.8520    0.5570 h1        1 T3S      0.071750
     24 H21A        2.1790   -1.1330    1.9560 h1        1 T3S      0.071750
     25 H22         4.1010   -2.3640    1.2680 hc        1 T3S      0.086000
     26 H22A        4.4230   -0.8350    1.5510 hc        1 T3S      0.086000
     27 H23         5.4700   -1.3960   -0.3700 hc        1 T3S      0.080500
     28 H23A        4.1360   -2.0250   -0.9640 hc        1 T3S      0.080500
     29 H24         4.6370    0.6900   -0.5490 hc        1 T3S      0.086000
     30 H24A        4.4310   -0.0210   -1.9520 hc        1 T3S      0.086000
     31 H25         2.1920   -0.3290   -1.5370 h1        1 T3S      0.071750
     32 H25A        2.5080    1.2010   -1.2520 h1        1 T3S      0.071750
     33 H5'         0.2430   -0.4730    0.7970 h1        1 T3S      0.096000
     34 H5'A        0.3700    0.3760   -0.5450 h1        1 T3S      0.096000
     35 H4'         1.0730    2.1090    1.3280 h1        1 T3S      0.115000
     36 H3'        -0.0120    0.3800    2.5500 h1        1 T3S      0.121000
     37 HO3'       -0.1420    1.9310    4.0830 ho        1 T3S      0.215000
     38 H2'        -2.1710    0.3160    1.8690 hc        1 T3S      0.124500
     39 H2'A       -2.3500    1.7540    2.5580 hc        1 T3S      0.124500
     40 H1'        -2.6620    2.5710    0.5160 h2        1 T3S      0.122000
     41 H6         -3.2640   -0.4520    0.7700 h4        1 T3S      0.166000
     42 H5M        -5.5720   -1.8260   -1.3970 ha        1 T3S      0.091333
     43 H5MA       -4.8980   -2.0950    0.0290 ha        1 T3S      0.091333
     44 H5MB       -4.4480   -2.9600   -1.2360 ha        1 T3S      0.091333
     45 HN3        -2.1050    0.3930   -3.8140 hn        1 T3S      0.265000
@<TRIPOS>BOND
     1    1    2 1   
     2    1    6 1   
     3    1   23 1   
     4    1   24 1   
     5    2    3 1   
     6    2   25 1   
     7    2   26 1   
     8    3    4 1   
     9    3   27 1   
    10    3   28 1   
    11    4    5 1   
    12    4   29 1   
    13    4   30 1   
    14    5    6 1   
    15    5   31 1   
    16    5   32 1   
    17    6    7 1   
    18    7    8 1   
    19    7   33 1   
    20    7   34 1   
    21    8    9 1   
    22    8   10 1   
    23    8   35 1   
    24    9   13 1   
    25   10   11 1   
    26   10   12 1   
    27   10   36 1   
    28   11   37 1   
    29   12   13 1   
    30   12   38 1   
    31   12   39 1   
    32   13   14 1   
    33   13   40 1   
    34   14   15 1   
    35   14   21 1   
    36   15   16 1   
    37   15   41 1   
    38   16   18 1   
    39   17   42 1   
    40   17   43 1   
    41   17   44 1   
    42   18   19 1   
    43   18   20 1   
    44   20   21 1   
    45   20   45 1   
    46   21   22 1   
@<TRIPOS>SUBSTRUCTURE
     1 T3S         1 TEMP              0 ****  ****    0 ROOT
