@<TRIPOS>MOLECULE
T3S
   45    47     1     0     0
SMALL
bcc


@<TRIPOS>ATOM
      1 C21        -0.2110    0.8970   -0.4630 c3        1 T3S      0.167300
      2 C22         1.3060    0.9600   -0.6270 c3        1 T3S     -0.076400
      3 C23         1.9990    0.8340    0.7120 c3        1 T3S     -0.078400
      4 C24         1.4750    1.8800    1.6710 c3        1 T3S     -0.076400
      5 C25        -0.0480    1.8220    1.7840 c3        1 T3S      0.167300
      6 N26        -0.7310    1.8630    0.4990 n3        1 T3S     -0.719600
      7 C5'        -2.1780    1.7480    0.6040 c3        1 T3S      0.152800
      8 C4'        -2.8420    2.6280    1.6700 c3        1 T3S      0.138100
      9 O4'        -2.4450    4.0000    1.5520 os        1 T3S     -0.409600
     10 C3'        -4.3810    2.5760    1.5230 c3        1 T3S      0.117100
     11 O3'        -4.8960    2.0540    2.7360 oh        1 T3S     -0.594800
     12 C2'        -4.8230    4.0270    1.2960 c3        1 T3S     -0.136400
     13 C1'        -3.5200    4.8110    1.0590 c3        1 T3S      0.311500
     14 N1         -3.2670    5.2500   -0.3160 n         1 T3S     -0.377000
     15 C6         -2.3980    6.3250   -0.4960 cc        1 T3S      0.042600
     16 C5         -1.9690    6.7410   -1.7190 cd        1 T3S     -0.248400
     17 C5M        -1.0870    7.9090   -1.9070 c3        1 T3S     -0.031900
     18 C4         -2.3760    6.0020   -2.9270 c         1 T3S      0.717700
     19 O4         -2.0580    6.2970   -4.0910 o         1 T3S     -0.609500
     20 N3         -3.1890    4.8750   -2.7130 n         1 T3S     -0.584500
     21 C2         -3.5970    4.4480   -1.4410 c         1 T3S      0.814500
     22 O2         -4.2760    3.3990   -1.3450 o         1 T3S     -0.665500
     23 H21        -0.6920    1.1220   -1.4570 h1        1 T3S      0.031200
     24 H21A       -0.4940   -0.1610   -0.1800 h1        1 T3S      0.031200
     25 H22         1.5950    1.9280   -1.1120 hc        1 T3S      0.046700
     26 H22A        1.6220    0.1280   -1.3070 hc        1 T3S      0.046700
     27 H23         3.1060    0.9580    0.5810 hc        1 T3S      0.039200
     28 H23A        1.8220   -0.1890    1.1340 hc        1 T3S      0.039200
     29 H24         1.9090    1.7220    2.6910 hc        1 T3S      0.046700
     30 H24A        1.7860    2.8990    1.3200 hc        1 T3S      0.046700
     31 H25        -0.3910    2.7220    2.3690 h1        1 T3S      0.031200
     32 H25A       -0.3280    0.8980    2.3720 h1        1 T3S      0.031200
     33 H5'        -2.5020    0.6880    0.8280 h1        1 T3S      0.047200
     34 H5'A       -2.5960    2.0350   -0.4060 h1        1 T3S      0.047200
     35 H4'        -2.5320    2.3180    2.7060 h1        1 T3S      0.090700
     36 H3'        -4.6880    1.9300    0.6560 h1        1 T3S      0.077700
     37 HO3'       -5.8440    1.9290    2.6030 ho        1 T3S      0.407000
     38 H2'        -5.5390    4.1030    0.4430 hc        1 T3S      0.081200
     39 H2'A       -5.3180    4.4290    2.2160 hc        1 T3S      0.081200
     40 H1'        -3.4890    5.7470    1.6970 h2        1 T3S      0.085700
     41 H6         -2.0850    6.8440    0.4310 h4        1 T3S      0.166000
     42 H5M        -0.0770    7.5720   -2.2540 hc        1 T3S      0.051700
     43 H5MA       -0.9660    8.4850   -0.9570 hc        1 T3S      0.051700
     44 H5MB       -1.5100    8.5850   -2.6920 hc        1 T3S      0.051700
     45 HN3        -3.4630    4.3110   -3.4890 hn        1 T3S      0.350500
@<TRIPOS>BOND
     1    1    2 1   
     2    1    6 1   
     3    1   23 1   
     4    1   24 1   
     5    2    3 1   
     6    2   25 1   
     7    2   26 1   
     8    3    4 1   
     9    3   27 1   
    10    3   28 1   
    11    4    5 1   
    12    4   29 1   
    13    4   30 1   
    14    5    6 1   
    15    5   31 1   
    16    5   32 1   
    17    6    7 1   
    18    7    8 1   
    19    7   33 1   
    20    7   34 1   
    21    8    9 1   
    22    8   10 1   
    23    8   35 1   
    24    9   13 1   
    25   10   11 1   
    26   10   12 1   
    27   10   36 1   
    28   11   37 1   
    29   12   13 1   
    30   12   38 1   
    31   12   39 1   
    32   13   14 1   
    33   13   40 1   
    34   14   15 1   
    35   14   21 1   
    36   15   16 2   
    37   15   41 1   
    38   16   17 1   
    39   16   18 1   
    40   17   42 1   
    41   17   43 1   
    42   17   44 1   
    43   18   19 2   
    44   18   20 1   
    45   20   21 1   
    46   20   45 1   
    47   21   22 2   
@<TRIPOS>SUBSTRUCTURE
     1 T3S         1 TEMP              0 ****  ****    0 ROOT
