@<TRIPOS>MOLECULE
T3S
   45    47     1     0     0
SMALL
bcc


@<TRIPOS>ATOM
      1 C21        -0.2200    0.8920   -0.4690 c3        1 T3S      0.167300
      2 C22         1.2950    0.9510   -0.6460 c3        1 T3S     -0.076400
      3 C23         2.0010    0.8290    0.6860 c3        1 T3S     -0.078400
      4 C24         1.4860    1.8790    1.6460 c3        1 T3S     -0.076400
      5 C25        -0.0350    1.8230    1.7730 c3        1 T3S      0.167300
      6 N26        -0.7300    1.8620    0.4940 n3        1 T3S     -0.719600
      7 C5'        -2.1760    1.7500    0.6120 c3        1 T3S      0.152800
      8 C4'        -2.8290    2.6340    1.6810 c3        1 T3S      0.138100
      9 O4'        -2.4310    4.0050    1.5560 os        1 T3S     -0.409600
     10 C3'        -4.3690    2.5840    1.5490 c3        1 T3S      0.117100
     11 O3'        -4.8750    2.0660    2.7670 oh        1 T3S     -0.594800
     12 C2'        -4.8110    4.0350    1.3210 c3        1 T3S     -0.136400
     13 C1'        -3.5080    4.8160    1.0710 c3        1 T3S      0.311500
     14 N1         -3.2670    5.2520   -0.3070 n         1 T3S     -0.377000
     15 C6         -2.4000    6.3260   -0.4980 cc        1 T3S      0.042600
     16 C5         -1.9790    6.7370   -1.7250 cd        1 T3S     -0.248400
     17 C5M        -1.1070    7.9110   -1.9250 c3        1 T3S     -0.031900
     18 C4         -2.3890    5.9900   -2.9270 c         1 T3S      0.717700
     19 O4         -2.0710    6.2750   -4.0930 o         1 T3S     -0.609500
     20 N3         -3.2050    4.8670   -2.7040 n         1 T3S     -0.584500
     21 C2         -3.6060    4.4460   -1.4270 c         1 T3S      0.814500
     22 O2         -4.2870    3.4000   -1.3220 o         1 T3S     -0.665500
     23 H21        -0.7090    1.1140   -1.4590 h1        1 T3S      0.031200
     24 H21A       -0.5020   -0.1650   -0.1800 h1        1 T3S      0.031200
     25 H22         1.5820    1.9180   -1.1370 hc        1 T3S      0.046700
     26 H22A        1.6040    0.1170   -1.3270 hc        1 T3S      0.046700
     27 H23         3.1060    0.9500    0.5460 hc        1 T3S      0.039200
     28 H23A        1.8260   -0.1930    1.1140 hc        1 T3S      0.039200
     29 H24         1.9290    1.7230    2.6630 hc        1 T3S      0.046700
     30 H24A        1.7960    2.8960    1.2900 hc        1 T3S      0.046700
     31 H25        -0.3120    0.9020    2.3660 h1        1 T3S      0.031200
     32 H25A       -0.3720    2.7260    2.3590 h1        1 T3S      0.031200
     33 H5'        -2.6030    2.0340   -0.3940 h1        1 T3S      0.047200
     34 H5'A       -2.5000    0.6900    0.8420 h1        1 T3S      0.047200
     35 H4'        -2.5100    2.3260    2.7160 h1        1 T3S      0.090700
     36 H3'        -4.6850    1.9360    0.6860 h1        1 T3S      0.077700
     37 HO3'       -5.8240    1.9430    2.6430 ho        1 T3S      0.407000
     38 H2'        -5.2970    4.4400    2.2440 hc        1 T3S      0.081200
     39 H2'A       -5.5340    4.1090    0.4740 hc        1 T3S      0.081200
     40 H1'        -3.4700    5.7530    1.7070 h2        1 T3S      0.085700
     41 H6         -2.0810    6.8480    0.4250 h4        1 T3S      0.166000
     42 H5M        -0.8110    8.3690   -0.9510 hc        1 T3S      0.052033
     43 H5MA       -0.1820    7.6070   -2.4790 hc        1 T3S      0.052033
     44 H5MB       -1.6380    8.6800   -2.5420 hc        1 T3S      0.052033
     45 HN3        -3.4830    4.2980   -3.4750 hn        1 T3S      0.350500
@<TRIPOS>BOND
     1    1    2 1   
     2    1    6 1   
     3    1   23 1   
     4    1   24 1   
     5    2    3 1   
     6    2   25 1   
     7    2   26 1   
     8    3    4 1   
     9    3   27 1   
    10    3   28 1   
    11    4    5 1   
    12    4   29 1   
    13    4   30 1   
    14    5    6 1   
    15    5   31 1   
    16    5   32 1   
    17    6    7 1   
    18    7    8 1   
    19    7   33 1   
    20    7   34 1   
    21    8    9 1   
    22    8   10 1   
    23    8   35 1   
    24    9   13 1   
    25   10   11 1   
    26   10   12 1   
    27   10   36 1   
    28   11   37 1   
    29   12   13 1   
    30   12   38 1   
    31   12   39 1   
    32   13   14 1   
    33   13   40 1   
    34   14   15 1   
    35   14   21 1   
    36   15   16 2   
    37   15   41 1   
    38   16   17 1   
    39   16   18 1   
    40   17   42 1   
    41   17   43 1   
    42   17   44 1   
    43   18   19 2   
    44   18   20 1   
    45   20   21 1   
    46   20   45 1   
    47   21   22 2   
@<TRIPOS>SUBSTRUCTURE
     1 T3S         1 TEMP              0 ****  ****    0 ROOT
