@<TRIPOS>MOLECULE
T40
   48    51     1     0     0
SMALL
bcc


@<TRIPOS>ATOM
      1 O          -0.0960    0.2950    0.1410 o         1 T40     -0.641500
      2 C6          1.1450    0.1780    0.1600 c         1 T40      0.706100
      3 C5          1.9520    0.0270    1.3850 ca        1 T40     -0.153600
      4 C           1.3070    0.0100    2.6310 ca        1 T40     -0.068000
      5 N           1.8270    0.1890   -1.0620 n         1 T40     -0.451100
      6 C7          3.2090    0.0650   -1.1350 cc        1 T40      0.112400
      7 C8          3.9700   -0.0740   -0.0020 cd        1 T40     -0.205200
      8 C4          3.3550   -0.0970    1.2980 ca        1 T40      0.017200
      9 C3          4.1070   -0.2420    2.4880 ca        1 T40     -0.090300
     10 C20         5.5820   -0.3770    2.4330 c3        1 T40     -0.051800
     11 C2          3.4490   -0.2570    3.7140 ca        1 T40     -0.097000
     12 C1          2.0560   -0.1320    3.7890 ca        1 T40     -0.151000
     13 C9          3.8380    0.0860   -2.4680 ca        1 T40     -0.079800
     14 C14         3.3020   -0.6540   -3.5290 ca        1 T40     -0.112500
     15 C13         3.9170   -0.6330   -4.7780 ca        1 T40     -0.120000
     16 C12         5.0740    0.1270   -4.9850 ca        1 T40     -0.071300
     17 C11         5.6100    0.8660   -3.9240 ca        1 T40     -0.120000
     18 C10         4.9960    0.8480   -2.6750 ca        1 T40     -0.112500
     19 C15         5.7560    0.0930   -6.3220 c3        1 T40      0.211100
     20 N1          6.1240    1.4080   -6.8330 n3        1 T40     -0.730600
     21 C19         7.0120    1.3050   -7.9850 c3        1 T40      0.165800
     22 C18         7.3920    2.6810   -8.5670 c3        1 T40      0.162300
     23 N2          6.2410    3.5230   -8.8220 n3        1 T40     -0.820200
     24 C17         5.3460    3.6230   -7.6860 c3        1 T40      0.162300
     25 C16         4.9640    2.2480   -7.1040 c3        1 T40      0.165800
     26 H           1.3040    0.3040   -1.9020 hn        1 T40      0.334500
     27 HA          0.2100    0.1100    2.6660 ha        1 T40      0.158000
     28 H1          1.5600   -0.1460    4.7700 ha        1 T40      0.137000
     29 H8          5.0600   -0.1790   -0.0810 ha        1 T40      0.152000
     30 H201        6.0380    0.5230    1.9500 hc        1 T40      0.045367
     31 H202        5.8690   -1.2790    1.8360 hc        1 T40      0.045367
     32 H203        6.0160   -0.4820    3.4580 hc        1 T40      0.045367
     33 H2          4.0300   -0.3680    4.6430 ha        1 T40      0.133000
     34 H14         2.4010   -1.2700   -3.3790 ha        1 T40      0.140500
     35 H10         5.4180    1.4360   -1.8450 ha        1 T40      0.140500
     36 H13         3.4880   -1.2200   -5.6050 ha        1 T40      0.145000
     37 H11         6.5180    1.4680   -4.0820 ha        1 T40      0.145000
     38 H151        6.7090   -0.5020   -6.2020 h1        1 T40      0.043200
     39 H152        5.1000   -0.4660   -7.0560 h1        1 T40      0.043200
     40 H191        6.5580    0.6780   -8.8070 h1        1 T40      0.039700
     41 H192        7.9590    0.8000   -7.6470 h1        1 T40      0.039700
     42 H161        4.2430    1.7450   -7.8130 h1        1 T40      0.039700
     43 H162        4.4310    2.4160   -6.1270 h1        1 T40      0.039700
     44 H181        7.9110    2.5070   -9.5510 h1        1 T40      0.034950
     45 H182        8.1320    3.1680   -7.8670 h1        1 T40      0.034950
     46 HB          6.5400    4.4380   -9.1050 hn        1 T40      0.364800
     47 H171        5.7800    4.2520   -6.8540 h1        1 T40      0.034950
     48 H172        4.4020    4.1230   -8.0400 h1        1 T40      0.034950
@<TRIPOS>BOND
     1    1    2 2   
     2    2    3 1   
     3    2    5 1   
     4    3    4 ar  
     5    3    8 ar  
     6    4   12 ar  
     7    4   27 1   
     8    5    6 1   
     9    5   26 1   
    10    6    7 2   
    11    6   13 1   
    12    7    8 1   
    13    7   29 1   
    14    8    9 ar  
    15    9   10 1   
    16    9   11 ar  
    17   10   30 1   
    18   10   31 1   
    19   10   32 1   
    20   11   12 ar  
    21   11   33 1   
    22   12   28 1   
    23   13   14 ar  
    24   13   18 ar  
    25   14   15 ar  
    26   14   34 1   
    27   15   16 ar  
    28   15   36 1   
    29   16   17 ar  
    30   16   19 1   
    31   17   18 ar  
    32   17   37 1   
    33   18   35 1   
    34   19   20 1   
    35   19   38 1   
    36   19   39 1   
    37   20   21 1   
    38   20   25 1   
    39   21   22 1   
    40   21   40 1   
    41   21   41 1   
    42   22   23 1   
    43   22   44 1   
    44   22   45 1   
    45   23   24 1   
    46   23   46 1   
    47   24   25 1   
    48   24   47 1   
    49   24   48 1   
    50   25   42 1   
    51   25   43 1   
@<TRIPOS>SUBSTRUCTURE
     1 T40         1 TEMP              0 ****  ****    0 ROOT
