@<TRIPOS>MOLECULE
T40
   48    51     1     0     0
SMALL
bcc


@<TRIPOS>ATOM
      1 O          -0.0970    0.3040    0.1450 o         1 T40     -0.641500
      2 C6          1.1450    0.1840    0.1620 c         1 T40      0.706100
      3 C5          1.9520    0.0300    1.3860 ca        1 T40     -0.153600
      4 C           1.3080    0.0130    2.6320 ca        1 T40     -0.068000
      5 N           1.8250    0.1940   -1.0610 ns        1 T40     -0.451100
      6 C7          3.2070    0.0670   -1.1350 cc        1 T40      0.112400
      7 C8          3.9680   -0.0750   -0.0030 cd        1 T40     -0.205200
      8 C4          3.3540   -0.0980    1.2970 ca        1 T40      0.017200
      9 C3          4.1080   -0.2450    2.4860 ca        1 T40     -0.090300
     10 C20         5.5820   -0.3830    2.4300 c3        1 T40     -0.051800
     11 C2          3.4500   -0.2590    3.7130 ca        1 T40     -0.097000
     12 C1          2.0580   -0.1310    3.7900 ca        1 T40     -0.151000
     13 C9          3.8340    0.0880   -2.4690 ca        1 T40     -0.079800
     14 C14         3.2950   -0.6500   -3.5300 ca        1 T40     -0.112500
     15 C13         3.9090   -0.6290   -4.7800 ca        1 T40     -0.120000
     16 C12         5.0690    0.1270   -4.9870 ca        1 T40     -0.071300
     17 C11         5.6070    0.8630   -3.9260 ca        1 T40     -0.120000
     18 C10         4.9950    0.8460   -2.6750 ca        1 T40     -0.112500
     19 C15         5.7490    0.0920   -6.3240 c3        1 T40      0.211100
     20 N1          6.1240    1.4060   -6.8340 n3        1 T40     -0.730600
     21 C19         7.0100    1.3000   -7.9870 c3        1 T40      0.165800
     22 C18         7.3970    2.6750   -8.5670 c3        1 T40      0.162300
     23 N2          6.2500    3.5240   -8.8180 n7        1 T40     -0.820200
     24 C17         5.3580    3.6270   -7.6810 c3        1 T40      0.162300
     25 C16         4.9690    2.2520   -7.1020 c3        1 T40      0.165800
     26 H           1.3010    0.3110   -1.9000 hn        1 T40      0.334500
     27 HA          0.2110    0.1160    2.6680 ha        1 T40      0.158000
     28 H1          1.5620   -0.1450    4.7710 ha        1 T40      0.137000
     29 H8          5.0580   -0.1830   -0.0830 ha        1 T40      0.152000
     30 H201        5.8660   -1.2860    1.8320 hc        1 T40      0.045367
     31 H202        6.0400    0.5160    1.9470 hc        1 T40      0.045367
     32 H203        6.0170   -0.4900    3.4540 hc        1 T40      0.045367
     33 H2          4.0320   -0.3730    4.6410 ha        1 T40      0.133000
     34 H14         2.3930   -1.2630   -3.3800 ha        1 T40      0.140500
     35 H10         5.4190    1.4320   -1.8460 ha        1 T40      0.140500
     36 H13         3.4780   -1.2140   -5.6060 ha        1 T40      0.145000
     37 H11         6.5180    1.4620   -4.0830 ha        1 T40      0.145000
     38 H151        6.6980   -0.5090   -6.2060 h1        1 T40      0.043200
     39 H152        5.0890   -0.4620   -7.0590 h1        1 T40      0.043200
     40 H191        7.9550    0.7890   -7.6500 h1        1 T40      0.039700
     41 H192        6.5510    0.6770   -8.8090 h1        1 T40      0.039700
     42 H161        4.2440    1.7550   -7.8110 h1        1 T40      0.039700
     43 H162        4.4380    2.4220   -6.1240 h1        1 T40      0.039700
     44 H181        8.1410    3.1570   -7.8660 h1        1 T40      0.034950
     45 H182        7.9140    2.5000   -9.5520 h1        1 T40      0.034950
     46 HB          6.5550    4.4380   -9.1000 hn        1 T40      0.364800
     47 H171        5.7960    4.2520   -6.8490 h1        1 T40      0.034950
     48 H172        4.4160    4.1330   -8.0330 h1        1 T40      0.034950
@<TRIPOS>BOND
     1    1    2 2   
     2    2    3 1   
     3    2    5 1   
     4    3    4 ar  
     5    3    8 ar  
     6    4   12 ar  
     7    4   27 1   
     8    5    6 1   
     9    5   26 1   
    10    6    7 2   
    11    6   13 1   
    12    7    8 1   
    13    7   29 1   
    14    8    9 ar  
    15    9   10 1   
    16    9   11 ar  
    17   10   30 1   
    18   10   31 1   
    19   10   32 1   
    20   11   12 ar  
    21   11   33 1   
    22   12   28 1   
    23   13   14 ar  
    24   13   18 ar  
    25   14   15 ar  
    26   14   34 1   
    27   15   16 ar  
    28   15   36 1   
    29   16   17 ar  
    30   16   19 1   
    31   17   18 ar  
    32   17   37 1   
    33   18   35 1   
    34   19   20 1   
    35   19   38 1   
    36   19   39 1   
    37   20   21 1   
    38   20   25 1   
    39   21   22 1   
    40   21   40 1   
    41   21   41 1   
    42   22   23 1   
    43   22   44 1   
    44   22   45 1   
    45   23   24 1   
    46   23   46 1   
    47   24   25 1   
    48   24   47 1   
    49   24   48 1   
    50   25   42 1   
    51   25   43 1   
@<TRIPOS>SUBSTRUCTURE
     1 T40         1 TEMP              0 ****  ****    0 ROOT
