@<TRIPOS>MOLECULE
T41
   38    39     1     0     0
SMALL
bcc


@<TRIPOS>ATOM
      1 N1          0.2630    0.5890    2.1770 n         1 T41     -0.351000
      2 C2          0.0250    0.9770    3.5130 c         1 T41      0.800500
      3 N3         -0.9730    0.3040    4.2400 n         1 T41     -0.597500
      4 C4         -1.7700   -0.7220    3.6900 c         1 T41      0.718700
      5 C5         -1.4980   -1.0640    2.3000 cc        1 T41     -0.299400
      6 C5M        -2.2940   -2.1180    1.6380 c3        1 T41     -0.040900
      7 C6         -0.5140   -0.4060    1.6060 cd        1 T41      0.062600
      8 O2          0.6740    1.8870    4.0920 o         1 T41     -0.711500
      9 O4         -2.6270   -1.2350    4.4420 o         1 T41     -0.691500
     10 C1'         1.2680    1.3320    1.4060 c3        1 T41      0.283500
     11 C2'         2.3820    0.4680    0.7270 c3        1 T41      0.114100
     12 O2'         2.6980   -0.6990    1.4580 os        1 T41     -0.437600
     13 C3'         1.8820    0.3080   -0.7150 c3        1 T41      0.078100
     14 C4'         0.9180    1.4910   -0.9350 c3        1 T41      0.066100
     15 O3'         2.9680    0.3450   -1.6110 oh        1 T41     -0.650800
     16 O4'         0.6570    2.0860    0.3600 os        1 T41     -0.440600
     17 C5'        -0.4320    1.0870   -1.5800 c3        1 T41      0.223400
     18 O5'        -0.2800    0.3670   -2.7310 os        1 T41     -0.569200
     19 C6'         2.4150   -1.9400    0.8200 c3        1 T41      0.102700
     20 P          -0.3020   -1.3650   -2.6390 p5        1 T41      1.342900
     21 O1P        -0.6760   -1.5800   -1.1830 o         1 T41     -0.925167
     22 O2P        -1.2740   -1.8040   -3.6820 o         1 T41     -0.925167
     23 O3P         1.1810   -1.5810   -2.8340 o         1 T41     -0.925167
     24 H3         -1.1130    0.5910    5.1810 hn        1 T41      0.319500
     25 H5M1       -3.3830   -1.8730    1.6990 hc        1 T41      0.056033
     26 H5M2       -1.9900   -2.2030    0.5530 hc        1 T41      0.056033
     27 H5M3       -2.1330   -3.1010    2.1460 hc        1 T41      0.056033
     28 H6         -0.3140   -0.6790    0.5200 h4        1 T41      0.297000
     29 H1'         1.7230    2.0950    2.1050 h2        1 T41      0.090700
     30 H2'1        3.3280    1.0810    0.7440 h1        1 T41      0.057700
     31 H3'         1.2940   -0.6570   -0.8750 h1        1 T41      0.158700
     32 H4'         1.4150    2.2960   -1.5390 h1        1 T41      0.048700
     33 HA          2.7020   -0.2450   -2.3510 ho        1 T41      0.483000
     34 H5'1       -1.0490    0.5280   -0.8230 h1        1 T41     -0.000800
     35 H5'2       -0.9630    2.0550   -1.8230 h1        1 T41     -0.000800
     36 H11         2.8280   -2.6980    1.5330 h1        1 T41      0.050700
     37 H12         1.3130   -2.0830    0.6840 h1        1 T41      0.050700
     38 H13         2.9320   -2.0020   -0.1700 h1        1 T41      0.050700
@<TRIPOS>BOND
     1    1    2 1   
     2    1    7 1   
     3    1   10 1   
     4    2    3 1   
     5    2    8 2   
     6    3    4 1   
     7    3   24 1   
     8    4    5 1   
     9    4    9 2   
    10    5    6 1   
    11    5    7 2   
    12    6   25 1   
    13    6   26 1   
    14    6   27 1   
    15    7   28 1   
    16   10   11 1   
    17   10   16 1   
    18   10   29 1   
    19   11   12 1   
    20   11   13 1   
    21   11   30 1   
    22   12   19 1   
    23   13   14 1   
    24   13   15 1   
    25   13   31 1   
    26   14   16 1   
    27   14   17 1   
    28   14   32 1   
    29   15   33 1   
    30   17   18 1   
    31   17   34 1   
    32   17   35 1   
    33   18   20 1   
    34   19   36 1   
    35   19   37 1   
    36   19   38 1   
    37   20   21 1   
    38   20   22 1   
    39   20   23 1   
@<TRIPOS>SUBSTRUCTURE
     1 T41         1 TEMP              0 ****  ****    0 ROOT
