@<TRIPOS>MOLECULE
T44
   35    36     1     0     0
SMALL
bcc


@<TRIPOS>ATOM
      1 C1         -0.0480   -0.0220   -0.2540 ca        1 T44     -0.118300
      2 C2          1.3270    0.2110   -0.1510 ca        1 T44     -0.089000
      3 C3          1.9340    0.3880    1.0930 ca        1 T44      0.011900
      4 C4          1.1400    0.3450    2.2510 ca        1 T44      0.152100
      5 C5         -0.2460    0.1210    2.1640 ca        1 T44      0.011900
      6 C6         -0.8250   -0.0600    0.9090 ca        1 T44     -0.089000
      7 C7         -0.6820   -0.2210   -1.5850 c3        1 T44     -0.052100
      8 C8         -1.0080   -1.6800   -1.8620 c3        1 T44     -0.077500
      9 C9         -1.7250   -1.7680   -3.3050 c         1 T44      0.939600
     10 C1'         2.1080    1.6360    3.9850 ca        1 T44      0.063100
     11 C2'         3.0480    1.6090    5.0280 ca        1 T44     -0.074000
     12 C3'         3.4500    2.8010    5.6190 ca        1 T44     -0.018100
     13 C4'         2.9110    4.0220    5.1560 ca        1 T44      0.184100
     14 C5'         1.9720    4.0380    4.1090 ca        1 T44     -0.018100
     15 C6'         1.5680    2.8370    3.5270 ca        1 T44     -0.074000
     16 N8          0.2000   -2.5590   -1.8580 n4        1 T44     -0.834600
     17 O4          1.7260    0.3770    3.5140 os        1 T44     -0.241200
     18 O4'         3.3580    5.1570    5.7810 oh        1 T44     -0.475100
     19 O9         -2.8180   -1.1860   -3.3720 o         1 T44     -0.750800
     20 O10        -1.0790   -2.4170   -4.1670 o         1 T44     -0.750800
     21 I3          3.9370    0.6740    1.1080 i         1 T44     -0.094400
     22 I3'         4.8030    2.6880    7.1190 i         1 T44     -0.108900
     23 I5         -1.4660    0.0260    3.7760 i         1 T44     -0.094400
     24 I5'         1.1540    5.7410    3.3870 i         1 T44     -0.108900
     25 H2          1.9330    0.2750   -1.0710 ha        1 T44      0.157500
     26 H6         -1.9130   -0.2280    0.8160 ha        1 T44      0.157500
     27 H71        -0.0270    0.1910   -2.4000 hc        1 T44      0.098700
     28 H72        -1.6630    0.3320   -1.6460 hc        1 T44      0.098700
     29 H8         -1.7310   -2.0710   -1.0960 hx        1 T44      0.091700
     30 H2'         3.4450    0.6370    5.3640 ha        1 T44      0.165500
     31 H6'         0.8300    2.8300    2.7080 ha        1 T44      0.165500
     32 HN81        0.0290   -3.4000   -1.3140 hn        1 T44      0.445467
     33 HN82        0.3620   -2.8290   -2.8580 hn        1 T44      0.445467
     34 HO4'        2.9160    5.9270    5.3860 ho        1 T44      0.436000
     35 H83         1.0130   -2.0690   -1.4900 hn        1 T44      0.445467
@<TRIPOS>BOND
     1    1    2 ar  
     2    1    6 ar  
     3    1    7 1   
     4    2    3 ar  
     5    2   25 1   
     6    3    4 ar  
     7    3   21 1   
     8    4    5 ar  
     9    4   17 1   
    10    5    6 ar  
    11    5   23 1   
    12    6   26 1   
    13    7    8 1   
    14    7   27 1   
    15    7   28 1   
    16    8    9 1   
    17    8   16 1   
    18    8   29 1   
    19    9   19 1   
    20    9   20 1   
    21   10   11 ar  
    22   10   15 ar  
    23   10   17 1   
    24   11   12 ar  
    25   11   30 1   
    26   12   13 ar  
    27   12   22 1   
    28   13   14 ar  
    29   13   18 1   
    30   14   15 ar  
    31   14   24 1   
    32   15   31 1   
    33   16   32 1   
    34   16   33 1   
    35   16   35 1   
    36   18   34 1   
@<TRIPOS>SUBSTRUCTURE
     1 T44         1 TEMP              0 ****  ****    0 ROOT
