@<TRIPOS>MOLECULE
T44
   34    35     1     0     0
SMALL
bcc


@<TRIPOS>ATOM
      1 C1         -0.0890   -0.2530    3.8100 ca        1 T44     -0.029300
      2 C2          1.1480   -0.1100    3.1680 ca        1 T44     -0.078500
      3 C3          1.2320    0.4090    1.8770 ca        1 T44      0.018400
      4 C4          0.0540    0.7990    1.2190 ca        1 T44      0.102100
      5 C5         -1.1920    0.6840    1.8530 ca        1 T44      0.018400
      6 C6         -1.2500    0.1610    3.1450 ca        1 T44     -0.078500
      7 C7         -0.1740   -0.8360    5.1750 c3        1 T44     -0.040100
      8 C8          0.1690    0.1790    6.2730 c3        1 T44      0.017500
      9 C9         -0.3780   -0.3880    7.6300 c         1 T44      0.890600
     10 C1'         0.0600    0.6160   -1.1410 ca        1 T44      0.094100
     11 C2'         0.1570    1.2940   -2.3690 ca        1 T44     -0.087000
     12 C3'         0.0900    0.5800   -3.5590 ca        1 T44     -0.008600
     13 C4'        -0.0740   -0.8200   -3.5210 ca        1 T44      0.159100
     14 C5'        -0.1710   -1.4920   -2.2910 ca        1 T44     -0.008600
     15 C6'        -0.1040   -0.7700   -1.0990 ca        1 T44     -0.087000
     16 N8          1.5830    0.5280    6.2900 n3        1 T44     -0.893800
     17 O4          0.1380    1.4370   -0.0230 os        1 T44     -0.236200
     18 O4'        -0.1320   -1.4620   -4.7350 oh        1 T44     -0.487100
     19 O9          0.4140   -0.4270    8.6120 o         1 T44     -0.834300
     20 O10        -1.5840   -0.7550    7.6550 o         1 T44     -0.834300
     21 I3          3.0750    0.5770    1.0500 i         1 T44     -0.143900
     22 I3'         0.2390    1.6270   -5.2860 i         1 T44     -0.131900
     23 I5         -2.9360    1.2610    0.9960 i         1 T44     -0.143900
     24 I5'        -0.4090   -3.4980   -2.1510 i         1 T44     -0.131900
     25 H2          2.0610   -0.4000    3.7160 ha        1 T44      0.166500
     26 H6         -2.2190    0.0720    3.6670 ha        1 T44      0.166500
     27 H71         0.5100   -1.7220    5.2460 hc        1 T44      0.068200
     28 H72        -1.2210   -1.1940    5.3830 hc        1 T44      0.068200
     29 H8         -0.4090    1.1260    6.0690 h1        1 T44      0.045700
     30 H2'         0.2860    2.3890   -2.3610 ha        1 T44      0.169500
     31 H6'        -0.1780   -1.2820   -0.1250 ha        1 T44      0.169500
     32 HN81        1.7110    1.2260    7.0020 hn        1 T44      0.335300
     33 HN82        2.1000   -0.2790    6.5950 hn        1 T44      0.335300
     34 HO4'       -0.2480   -2.4130   -4.5730 ho        1 T44      0.429000
@<TRIPOS>BOND
     1    1    2 ar  
     2    1    6 ar  
     3    1    7 1   
     4    2    3 ar  
     5    2   25 1   
     6    3    4 ar  
     7    3   21 1   
     8    4    5 ar  
     9    4   17 1   
    10    5    6 ar  
    11    5   23 1   
    12    6   26 1   
    13    7    8 1   
    14    7   27 1   
    15    7   28 1   
    16    8    9 1   
    17    8   16 1   
    18    8   29 1   
    19    9   19 1   
    20    9   20 1   
    21   10   11 ar  
    22   10   15 ar  
    23   10   17 1   
    24   11   12 ar  
    25   11   30 1   
    26   12   13 ar  
    27   12   22 1   
    28   13   14 ar  
    29   13   18 1   
    30   14   15 ar  
    31   14   24 1   
    32   15   31 1   
    33   16   32 1   
    34   16   33 1   
    35   18   34 1   
@<TRIPOS>SUBSTRUCTURE
     1 T44         1 TEMP              0 ****  ****    0 ROOT
