@<TRIPOS>MOLECULE
T44
   35    36     1     0     0
SMALL
bcc


@<TRIPOS>ATOM
      1 C1         -0.0560   -0.0220   -0.2490 ca        1 T44     -0.118300
      2 C2          1.3160    0.2240   -0.1550 ca        1 T44     -0.089000
      3 C3          1.9310    0.4010    1.0860 ca        1 T44      0.011900
      4 C4          1.1470    0.3430    2.2490 ca        1 T44      0.152100
      5 C5         -0.2380    0.1050    2.1710 ca        1 T44      0.011900
      6 C6         -0.8250   -0.0750    0.9200 ca        1 T44     -0.089000
      7 C7         -0.6980   -0.2210   -1.5760 c3        1 T44     -0.052100
      8 C8         -1.0100   -1.6820   -1.8600 c3        1 T44     -0.077500
      9 C9         -1.7360   -1.7690   -3.2980 c         1 T44      0.939600
     10 C1'         2.1180    1.6340    3.9810 ca        1 T44      0.063100
     11 C2'         3.0720    1.6100    5.0120 ca        1 T44     -0.074000
     12 C3'         3.4700    2.8020    5.6040 ca        1 T44     -0.018100
     13 C4'         2.9140    4.0210    5.1550 ca        1 T44      0.184100
     14 C5'         1.9610    4.0340    4.1200 ca        1 T44     -0.018100
     15 C6'         1.5610    2.8320    3.5360 ca        1 T44     -0.074000
     16 N8          0.2080   -2.5470   -1.8700 n4        1 T44     -0.834600
     17 O4          1.7410    0.3740    3.5080 os        1 T44     -0.241200
     18 O4'         3.3580    5.1560    5.7800 oh        1 T44     -0.475100
     19 O9         -2.8360   -1.2000   -3.3530 o         1 T44     -0.750800
     20 O10        -1.0880   -2.4050   -4.1680 o         1 T44     -0.750800
     21 I3          3.9310    0.7060    1.0870 i         1 T44     -0.094400
     22 I3'         4.8430    2.6950    7.0860 i         1 T44     -0.108900
     23 I5         -1.4440   -0.0120    3.7920 i         1 T44     -0.094400
     24 I5'         1.1170    5.7330    3.4190 i         1 T44     -0.108900
     25 H2          1.9150    0.2990   -1.0790 ha        1 T44      0.157500
     26 H6         -1.9110   -0.2540    0.8350 ha        1 T44      0.157500
     27 H71        -1.6870    0.3210   -1.6260 hc        1 T44      0.098700
     28 H72        -0.0550    0.2030   -2.3930 hc        1 T44      0.098700
     29 H8         -1.7220   -2.0860   -1.0910 hx        1 T44      0.091700
     30 H2'         3.4830    0.6400    5.3370 ha        1 T44      0.165500
     31 H6'         0.8120    2.8230    2.7270 ha        1 T44      0.165500
     32 HN81        0.0510   -3.3940   -1.3310 hn        1 T44      0.445467
     33 HN82        1.0190   -2.0500   -1.5040 hn        1 T44      0.445467
     34 HO4'        2.9030    5.9240    5.3950 ho        1 T44      0.436000
     35 H83         0.3670   -2.8080   -2.8730 hn        1 T44      0.445467
@<TRIPOS>BOND
     1    1    2 ar  
     2    1    6 ar  
     3    1    7 1   
     4    2    3 ar  
     5    2   25 1   
     6    3    4 ar  
     7    3   21 1   
     8    4    5 ar  
     9    4   17 1   
    10    5    6 ar  
    11    5   23 1   
    12    6   26 1   
    13    7    8 1   
    14    7   27 1   
    15    7   28 1   
    16    8    9 1   
    17    8   16 1   
    18    8   29 1   
    19    9   19 1   
    20    9   20 1   
    21   10   11 ar  
    22   10   15 ar  
    23   10   17 1   
    24   11   12 ar  
    25   11   30 1   
    26   12   13 ar  
    27   12   22 1   
    28   13   14 ar  
    29   13   18 1   
    30   14   15 ar  
    31   14   24 1   
    32   15   31 1   
    33   16   32 1   
    34   16   33 1   
    35   16   35 1   
    36   18   34 1   
@<TRIPOS>SUBSTRUCTURE
     1 T44         1 TEMP              0 ****  ****    0 ROOT
