@<TRIPOS>MOLECULE
T44
   35    36     1     0     0
SMALL
bcc


@<TRIPOS>ATOM
      1 C1         -0.0500   -0.0260   -0.2510 ca        1 T44     -0.118300
      2 C2          1.3230    0.2150   -0.1510 ca        1 T44     -0.089000
      3 C3          1.9320    0.3950    1.0920 ca        1 T44      0.011900
      4 C4          1.1410    0.3460    2.2510 ca        1 T44      0.152100
      5 C5         -0.2430    0.1140    2.1670 ca        1 T44      0.011900
      6 C6         -0.8250   -0.0690    0.9140 ca        1 T44     -0.089000
      7 C7         -0.6870   -0.2290   -1.5800 c3        1 T44     -0.052100
      8 C8         -1.0040   -1.6890   -1.8580 c3        1 T44     -0.077500
      9 C9         -1.7230   -1.7800   -3.2990 c         1 T44      0.939600
     10 C1'         2.1090    1.6410    3.9820 ca        1 T44      0.063100
     11 C2'         3.0560    1.6190    5.0190 ca        1 T44     -0.074000
     12 C3'         3.4550    2.8120    5.6080 ca        1 T44     -0.018100
     13 C4'         2.9070    4.0310    5.1500 ca        1 T44      0.184100
     14 C5'         1.9610    4.0430    4.1090 ca        1 T44     -0.018100
     15 C6'         1.5590    2.8390    3.5290 ca        1 T44     -0.074000
     16 N8          0.2100   -2.5600   -1.8570 nz        1 T44     -0.834600
     17 O4          1.7300    0.3810    3.5130 os        1 T44     -0.241200
     18 O4'         3.3520    5.1680    5.7730 oh        1 T44     -0.475100
     19 O9         -2.8200   -1.2060   -3.3640 o         1 T44     -0.750800
     20 O10        -1.0740   -2.4250   -4.1630 o         1 T44     -0.750800
     21 I3          3.9330    0.6920    1.1010 i         1 T44     -0.094400
     22 I3'         4.8190    2.7060    7.0990 i         1 T44     -0.108900
     23 I5         -1.4580    0.0110    3.7830 i         1 T44     -0.094400
     24 I5'         1.1280    5.7420    3.3940 i         1 T44     -0.108900
     25 H2          1.9260    0.2830   -1.0720 ha        1 T44      0.157500
     26 H6         -1.9120   -0.2440    0.8240 ha        1 T44      0.157500
     27 H71        -1.6720    0.3180   -1.6380 hc        1 T44      0.098700
     28 H72        -0.0370    0.1890   -2.3970 hc        1 T44      0.098700
     29 H8         -1.7220   -2.0860   -1.0910 hx        1 T44      0.091700
     30 H2'         3.4610    0.6490    5.3510 ha        1 T44      0.165500
     31 H6'         0.8160    2.8300    2.7150 ha        1 T44      0.165500
     32 HN81        0.3720   -2.8270   -2.8580 hn        1 T44      0.445467
     33 HN82        0.0460   -3.4030   -1.3140 hn        1 T44      0.445467
     34 HO4'        2.9020    5.9360    5.3810 ho        1 T44      0.436000
     35 H83         1.0210   -2.0650   -1.4900 hn        1 T44      0.445467
@<TRIPOS>BOND
     1    1    2 ar  
     2    1    6 ar  
     3    1    7 1   
     4    2    3 ar  
     5    2   25 1   
     6    3    4 ar  
     7    3   21 1   
     8    4    5 ar  
     9    4   17 1   
    10    5    6 ar  
    11    5   23 1   
    12    6   26 1   
    13    7    8 1   
    14    7   27 1   
    15    7   28 1   
    16    8    9 1   
    17    8   16 1   
    18    8   29 1   
    19    9   19 1   
    20    9   20 1   
    21   10   11 ar  
    22   10   15 ar  
    23   10   17 1   
    24   11   12 ar  
    25   11   30 1   
    26   12   13 ar  
    27   12   22 1   
    28   13   14 ar  
    29   13   18 1   
    30   14   15 ar  
    31   14   24 1   
    32   15   31 1   
    33   16   32 1   
    34   16   33 1   
    35   16   35 1   
    36   18   34 1   
@<TRIPOS>SUBSTRUCTURE
     1 T44         1 TEMP              0 ****  ****    0 ROOT
