@<TRIPOS>MOLECULE
T45
   14    14     1     0     0
SMALL
bcc


@<TRIPOS>ATOM
      1 O1         -0.8610   -1.1150   -0.5250 o         1 T45     -0.512000
      2 C3          0.0260   -0.3150   -0.2280 c         1 T45      0.573600
      3 O           1.2880   -0.5230   -0.7270 os        1 T45     -0.437900
      4 C4          1.4520   -1.6720   -1.5620 c3        1 T45      0.127700
      5 C2         -0.0510    0.8740    0.6090 cc        1 T45      0.158500
      6 N3         -1.1780    1.3320    1.2420 nd        1 T45     -0.419800
      7 N2         -0.7790    2.4260    1.8800 na        1 T45      0.149900
      8 N1          0.5170    2.7550    1.7400 nd        1 T45     -0.497800
      9 C1          1.0350    1.7970    0.9350 cc        1 T45      0.263900
     10 H4C1        1.2070   -2.5970   -0.9880 h1        1 T45      0.054033
     11 H4C2        2.5340   -1.6360   -1.8430 h1        1 T45      0.054033
     12 H4C3        0.7920   -1.5890   -2.4580 h1        1 T45      0.054033
     13 H1          2.0730    1.7450    0.6060 h4        1 T45      0.075100
     14 H2         -1.4080    2.9750    2.4350 hn        1 T45      0.356700
@<TRIPOS>BOND
     1    1    2 2   
     2    2    3 1   
     3    2    5 1   
     4    3    4 1   
     5    4   10 1   
     6    4   11 1   
     7    4   12 1   
     8    5    6 2   
     9    5    9 1   
    10    6    7 1   
    11    7    8 1   
    12    7   14 1   
    13    8    9 2   
    14    9   13 1   
@<TRIPOS>SUBSTRUCTURE
     1 T45         1 TEMP              0 ****  ****    0 ROOT
