@<TRIPOS>MOLECULE
T48
   37    38     1     0     0
SMALL
bcc


@<TRIPOS>ATOM
      1 O3P        -1.6010   -0.9670   -5.5960 o         1 T48     -0.930833
      2 P          -0.6960   -0.2440   -4.6460 p5        1 T48      1.332900
      3 O1P         0.7570   -0.1260   -5.0030 o         1 T48     -0.930833
      4 O2P        -1.2710    0.9730   -3.9510 o         1 T48     -0.930833
      5 O5'        -0.6310   -1.3210   -3.2720 os        1 T48     -0.563200
      6 C5'         0.1590   -0.8600   -2.2570 c3        1 T48      0.243400
      7 C4'        -0.6960   -0.3390   -1.0800 c3        1 T48     -0.171700
      8 C3'        -0.8040    1.1980   -1.0240 c3        1 T48      0.193100
      9 O3'        -2.0940    1.6350   -1.3890 oh        1 T48     -0.687800
     10 C2'        -0.5760    1.6140    0.4470 c3        1 T48     -0.105400
     11 C1'        -0.7010    0.3100    1.2510 c3        1 T48      0.082700
     12 N1         -0.1250    0.3100    2.5970 n         1 T48     -0.327000
     13 C2          1.2230    0.6850    2.8310 c         1 T48      0.800500
     14 O2          1.9890    1.1170    1.9460 o         1 T48     -0.620500
     15 N3          1.7220    0.5920    4.1510 n         1 T48     -0.595500
     16 C4          0.9790    0.0880    5.2250 c         1 T48      0.725700
     17 O4          1.5170    0.0330    6.3510 o         1 T48     -0.673500
     18 C5         -0.3890   -0.3370    4.9170 cc        1 T48     -0.325400
     19 C5M        -1.2120   -0.8760    6.0140 c3        1 T48     -0.010900
     20 C          -0.1470   -0.7730    0.2840 c3        1 T48      0.131100
     21 C6         -0.8560   -0.2290    3.6340 cd        1 T48      0.087600
     22 O          -0.6110   -2.0450    0.7100 oh        1 T48     -0.647800
     23 H5'1        0.8550   -0.0500   -2.6180 h1        1 T48     -0.007800
     24 H5'2        0.7830   -1.7160   -1.8510 h1        1 T48     -0.007800
     25 H4'        -1.7320   -0.7580   -1.2110 hc        1 T48      0.079700
     26 H3'        -0.0410    1.6740   -1.6980 h1        1 T48      0.080700
     27 HA         -2.1570    1.4940   -2.3660 ho        1 T48      0.508000
     28 H2'1       -1.3430    2.3560    0.7740 hc        1 T48      0.052200
     29 H2'2        0.4400    2.0670    0.5540 hc        1 T48      0.052200
     30 H1'        -1.8050    0.0970    1.3860 h1        1 T48      0.069700
     31 H3          2.6700    0.8610    4.2890 hn        1 T48      0.336500
     32 H5M1       -0.5710   -1.4480    6.7310 hc        1 T48      0.034700
     33 H5M2       -1.7020   -0.0430    6.5790 hc        1 T48      0.034700
     34 H5M3       -2.0100   -1.5550    5.6230 hc        1 T48      0.034700
     35 H           0.9760   -0.7860    0.3010 h1        1 T48      0.059700
     36 H6         -1.8750   -0.5770    3.3700 h4        1 T48      0.168000
     37 HB         -0.8450   -2.5310   -0.0930 ho        1 T48      0.429000
@<TRIPOS>BOND
     1    1    2 1   
     2    2    3 1   
     3    2    4 1   
     4    2    5 1   
     5    5    6 1   
     6    6    7 1   
     7    6   23 1   
     8    6   24 1   
     9    7    8 1   
    10    7   20 1   
    11    7   25 1   
    12    8    9 1   
    13    8   10 1   
    14    8   26 1   
    15    9   27 1   
    16   10   11 1   
    17   10   28 1   
    18   10   29 1   
    19   11   12 1   
    20   11   20 1   
    21   11   30 1   
    22   12   13 1   
    23   12   21 1   
    24   13   14 2   
    25   13   15 1   
    26   15   16 1   
    27   15   31 1   
    28   16   17 2   
    29   16   18 1   
    30   18   19 1   
    31   18   21 2   
    32   19   32 1   
    33   19   33 1   
    34   19   34 1   
    35   20   22 1   
    36   20   35 1   
    37   21   36 1   
    38   22   37 1   
@<TRIPOS>SUBSTRUCTURE
     1 T48         1 TEMP              0 ****  ****    0 ROOT
