@<TRIPOS>MOLECULE
T48
   37    38     1     0     0
SMALL
bcc


@<TRIPOS>ATOM
      1 O3P        -3.2360   -1.3210    3.6710 o         1 T48     -0.725500
      2 P          -1.7460   -1.3190    3.7630 p5        1 T48      1.345900
      3 O1P        -1.3330   -1.2170    5.2030 o         1 T48     -0.725500
      4 O2P        -1.2120   -2.5850    3.1820 o         1 T48     -0.725500
      5 O5'        -1.1580   -0.0560    2.9420 os        1 T48     -0.584200
      6 C5'        -1.0980   -0.1390    1.5000 c3        1 T48      0.208400
      7 C4'        -1.5090    1.2000    0.8970 c3        1 T48     -0.145700
      8 C3'        -2.3050    1.0060   -0.1710 c3        1 T48      0.140100
      9 O3'        -3.2190    2.0830   -0.3010 oh        1 T48     -0.623800
     10 C2'        -1.3020    0.9690   -1.4380 c3        1 T48     -0.124400
     11 C1'         0.1100    1.4960   -0.8880 c3        1 T48      0.132700
     12 N1          1.0450    0.3930   -0.7720 n         1 T48     -0.304000
     13 C2          2.2320    0.5320    0.0660 c         1 T48      0.751500
     14 O2          2.3330    1.4720    0.8150 o         1 T48     -0.757500
     15 N3          3.3370   -0.4210   -0.0600 n         1 T48     -0.594500
     16 C4          3.2300   -1.5170   -0.9540 c         1 T48      0.710700
     17 O4          4.1490   -2.3210   -1.0510 o         1 T48     -0.766500
     18 C5          2.0100   -1.7030   -1.7430 cc        1 T48     -0.443400
     19 C5M         1.9310   -2.8160   -2.7680 c3        1 T48      0.046100
     20 C          -0.1590    2.0130    0.3310 c3        1 T48      0.159100
     21 C6          0.8960   -0.7500   -1.6010 cd        1 T48     -0.135400
     22 O          -0.4310    3.3910    0.2250 oh        1 T48     -0.626800
     23 H5'1       -0.1960   -0.3510    1.2270 h1        1 T48      0.014700
     24 H5'2       -1.7120   -0.8450    1.1850 h1        1 T48      0.014700
     25 H4'        -1.9750    1.7470    1.5720 hc        1 T48      0.036700
     26 H3'        -2.7960    0.1400   -0.0880 h1        1 T48      0.090700
     27 HA         -3.9940    1.7780   -0.5200 ho        1 T48      0.384000
     28 H2'1       -1.6230    1.5450   -2.1330 hc        1 T48      0.054700
     29 H2'2       -1.2150    0.0760   -1.7630 hc        1 T48      0.054700
     30 H1'         0.4750    2.1990   -1.4880 h1        1 T48      0.070700
     31 H3          4.0880   -0.3310    0.4710 hn        1 T48      0.298500
     32 H5M1        2.0700   -3.6730   -2.3280 hc        1 T48     -0.000967
     33 H5M2        2.6390   -2.6800   -3.4650 hc        1 T48     -0.000967
     34 H5M3        1.0570   -2.8070   -3.1890 hc        1 T48     -0.000967
     35 H           0.5980    1.8660    0.9310 h1        1 T48      0.086700
     36 H6          0.0540   -0.8740   -2.1430 h4        1 T48      0.237000
     37 HB         -0.0340    3.8190    0.8820 ho        1 T48      0.448000
@<TRIPOS>BOND
     1    1    2 1   
     2    2    3 1   
     3    2    4 1   
     4    2    5 1   
     5    5    6 1   
     6    6    7 1   
     7    6   23 1   
     8    6   24 1   
     9    7    8 1   
    10    7   20 1   
    11    7   25 1   
    12    8    9 1   
    13    8   10 1   
    14    8   26 1   
    15    9   27 1   
    16   10   11 1   
    17   10   28 1   
    18   10   29 1   
    19   11   12 1   
    20   11   20 1   
    21   11   30 1   
    22   12   13 1   
    23   12   21 1   
    24   13   14 2   
    25   13   15 1   
    26   15   16 1   
    27   15   31 1   
    28   16   17 2   
    29   16   18 1   
    30   18   19 1   
    31   18   21 2   
    32   19   32 1   
    33   19   33 1   
    34   19   34 1   
    35   20   22 1   
    36   20   35 1   
    37   21   36 1   
    38   22   37 1   
@<TRIPOS>SUBSTRUCTURE
     1 T48         1 TEMP              0 ****  ****    0 ROOT
