@<TRIPOS>MOLECULE
T49
   34    35     1     0     0
SMALL
bcc


@<TRIPOS>ATOM
      1 O3P         1.5190   -0.5850   -0.3970 o         1 T49     -0.924500
      2 P           1.4470   -0.8420   -1.8920 p5        1 T49      1.340900
      3 O1P         2.5160   -1.6880   -2.4980 o         1 T49     -0.924500
      4 O2P         0.9340    0.3740   -2.6250 o         1 T49     -0.924500
      5 O5'        -0.0010   -1.7910   -2.0050 os        1 T49     -0.566200
      6 C5'        -0.7690   -1.9290   -0.8840 c3        1 T49      0.233400
      7 C4'        -1.9290   -0.9130   -0.8070 c3        1 T49     -0.006600
      8 C3'        -1.4570    0.5420   -0.8750 c3        1 T49      0.126100
      9 O3'        -1.8020    1.1180   -2.1200 oh        1 T49     -0.659800
     10 C2'        -2.1020    1.3730    0.2350 c3        1 T49     -0.101400
     11 C1'        -2.3930    0.4920    1.4480 c3        1 T49      0.214800
     12 N1         -1.3430    0.4610    2.4520 n         1 T49     -0.343000
     13 C2         -1.6860    0.7550    3.7910 c         1 T49      0.791500
     14 O2         -2.8510    1.0760    4.1430 o         1 T49     -0.711500
     15 N3         -0.6820    0.7000    4.7700 n         1 T49     -0.596500
     16 C4          0.6600    0.3700    4.4830 c         1 T49      0.715700
     17 O4          1.4540    0.3520    5.4470 o         1 T49     -0.683500
     18 C5          0.9620    0.0920    3.0820 cc        1 T49     -0.283400
     19 C5M         2.3470   -0.2490    2.6980 c3        1 T49     -0.048900
     20 C6         -0.0270    0.1420    2.1350 cd        1 T49      0.057600
     21 S          -2.8010   -1.1250    0.7580 ss        1 T49     -0.433200
     22 H5'1       -0.1450   -1.8410    0.0510 h1        1 T49      0.002200
     23 H5'2       -1.2500   -2.9540   -0.8990 h1        1 T49      0.002200
     24 H4'        -2.6600   -1.1150   -1.6240 h1        1 T49      0.072700
     25 H3'        -0.3180    0.5550   -0.7760 h1        1 T49      0.147700
     26 HA         -1.0130    0.9770   -2.6910 ho        1 T49      0.486000
     27 H2'1       -3.0710    1.8000   -0.1310 hc        1 T49      0.055200
     28 H2'2       -1.4280    2.2290    0.4900 hc        1 T49      0.055200
     29 H1'        -3.3330    0.8440    1.9620 h2        1 T49      0.097700
     30 H3         -0.9560    0.8970    5.7050 hn        1 T49      0.321500
     31 H5M1        3.0360    0.5940    2.9530 hc        1 T49      0.061700
     32 H5M2        2.6880   -1.1550    3.2560 hc        1 T49      0.061700
     33 H5M3        2.4000   -0.4520    1.5860 hc        1 T49      0.061700
     34 H6          0.2340   -0.0860    1.0500 h4        1 T49      0.302000
@<TRIPOS>BOND
     1    1    2 1   
     2    2    3 1   
     3    2    4 1   
     4    2    5 1   
     5    5    6 1   
     6    6    7 1   
     7    6   22 1   
     8    6   23 1   
     9    7    8 1   
    10    7   21 1   
    11    7   24 1   
    12    8    9 1   
    13    8   10 1   
    14    8   25 1   
    15    9   26 1   
    16   10   11 1   
    17   10   27 1   
    18   10   28 1   
    19   11   12 1   
    20   11   21 1   
    21   11   29 1   
    22   12   13 1   
    23   12   20 1   
    24   13   14 2   
    25   13   15 1   
    26   15   16 1   
    27   15   30 1   
    28   16   17 2   
    29   16   18 1   
    30   18   19 1   
    31   18   20 2   
    32   19   31 1   
    33   19   32 1   
    34   19   33 1   
    35   20   34 1   
@<TRIPOS>SUBSTRUCTURE
     1 T49         1 TEMP              0 ****  ****    0 ROOT
