@<TRIPOS>MOLECULE
T4A
   29    30     1     0     0
SMALL
bcc


@<TRIPOS>ATOM
      1 C1         -0.1800   -0.4910    4.2080 ca        1 T4A     -0.006300
      2 C2          0.9920    0.0380    3.6410 ca        1 T4A     -0.093000
      3 C3          0.9730    0.6210    2.3780 ca        1 T4A      0.021400
      4 C4         -0.2400    0.6910    1.6700 ca        1 T4A      0.088100
      5 C5         -1.4250    0.1980    2.2330 ca        1 T4A      0.021400
      6 C6         -1.3830   -0.3860    3.5010 ca        1 T4A     -0.093000
      7 C7         -0.1340   -1.1600    5.5270 c3        1 T4A     -0.191100
      8 C8          0.6280   -0.3430    6.6060 c         1 T4A      0.921600
      9 C1'        -0.0980    0.6220   -0.6920 ca        1 T4A      0.099100
     10 C6'        -0.1820    1.3460   -1.8940 ca        1 T4A     -0.088500
     11 C5'        -0.0040    0.6930   -3.1070 ca        1 T4A     -0.007100
     12 C4'         0.2590   -0.6920   -3.1190 ca        1 T4A      0.155100
     13 C3'         0.3430   -1.4110   -1.9150 ca        1 T4A     -0.007100
     14 C2'         0.1640   -0.7500   -0.7000 ca        1 T4A     -0.088500
     15 I3          2.7170    1.3550    1.6490 i         1 T4A     -0.154400
     16 I5         -3.2280    0.2970    1.3100 i         1 T4A     -0.154400
     17 I5'        -0.1410    1.8050   -4.7940 i         1 T4A     -0.136400
     18 I3'         0.7170   -3.4000   -1.8480 i         1 T4A     -0.136400
     19 O8          1.8550   -0.1110    6.4100 o         1 T4A     -0.827300
     20 O9         -0.0210    0.0020    7.6270 o         1 T4A     -0.827300
     21 O4         -0.2920    1.3820    0.4540 os        1 T4A     -0.235200
     22 O4'         0.4230   -1.2730   -4.3550 oh        1 T4A     -0.489100
     23 H21         1.9150    0.0020    4.2610 ha        1 T4A      0.182500
     24 H61        -2.3080   -0.7660    3.9630 ha        1 T4A      0.182500
     25 H71         0.4080   -2.1360    5.4190 hc        1 T4A      0.047700
     26 H72        -1.1680   -1.3680    5.9020 hc        1 T4A      0.047700
     27 H6'1       -0.3890    2.4280   -1.8460 ha        1 T4A      0.170000
     28 H2'1        0.2280   -1.2980    0.2560 ha        1 T4A      0.170000
     29 H4'O        0.6080   -2.2180   -4.2250 ho        1 T4A      0.427000
@<TRIPOS>BOND
     1    1    2 ar  
     2    1    6 ar  
     3    1    7 1   
     4    2    3 ar  
     5    2   23 1   
     6    3    4 ar  
     7    3   15 1   
     8    4    5 ar  
     9    4   21 1   
    10    5    6 ar  
    11    5   16 1   
    12    6   24 1   
    13    7    8 1   
    14    7   25 1   
    15    7   26 1   
    16    8   19 1   
    17    8   20 1   
    18    9   10 ar  
    19    9   14 ar  
    20    9   21 1   
    21   10   11 ar  
    22   10   27 1   
    23   11   12 ar  
    24   11   17 1   
    25   12   13 ar  
    26   12   22 1   
    27   13   14 ar  
    28   13   18 1   
    29   14   28 1   
    30   22   29 1   
@<TRIPOS>SUBSTRUCTURE
     1 T4A         1 TEMP              0 ****  ****    0 ROOT
