@<TRIPOS>MOLECULE
T4A
   29    30     1     0     0
SMALL
bcc


@<TRIPOS>ATOM
      1 C1         -0.2640   -0.2340   -0.0620 ca        1 T4A     -0.006300
      2 C2          1.1380   -0.3280   -0.0080 ca        1 T4A     -0.093000
      3 C3          1.8230   -0.1020    1.1820 ca        1 T4A      0.021400
      4 C4          1.0970    0.2100    2.3450 ca        1 T4A      0.088100
      5 C5         -0.3020    0.2750    2.3180 ca        1 T4A      0.021400
      6 C6         -0.9690    0.0480    1.1130 ca        1 T4A     -0.093000
      7 C7         -0.9740   -0.4190   -1.3450 c3        1 T4A     -0.191100
      8 C8         -0.5190   -1.6830   -2.1250 c         1 T4A      0.921600
      9 C1'         2.1770    1.5950    3.9320 ca        1 T4A      0.099100
     10 C6'         2.8240    1.6680    5.1780 ca        1 T4A     -0.088500
     11 C5'         3.2810    2.8940    5.6480 ca        1 T4A     -0.007100
     12 C4'         3.0900    4.0520    4.8690 ca        1 T4A      0.155100
     13 C3'         2.4430    3.9740    3.6240 ca        1 T4A     -0.007100
     14 C2'         1.9870    2.7410    3.1560 ca        1 T4A     -0.088500
     15 I3          3.8440   -0.2600    1.1530 i         1 T4A     -0.154400
     16 I5         -1.4350    0.6690    3.9530 i         1 T4A     -0.154400
     17 I5'         4.2020    2.9170    7.4520 i         1 T4A     -0.136400
     18 I3'         2.1300    5.5910    2.4450 i         1 T4A     -0.136400
     19 O8          0.6840   -1.7380   -2.5060 o         1 T4A     -0.827300
     20 O9         -1.3950   -2.5560   -2.3610 o         1 T4A     -0.827300
     21 O4          1.7680    0.3190    3.5690 os        1 T4A     -0.235200
     22 O4'         3.5650    5.2310    5.3960 oh        1 T4A     -0.489100
     23 H21         1.6610   -0.6240   -0.9440 ha        1 T4A      0.182500
     24 H61        -2.0700    0.0830    1.0780 ha        1 T4A      0.182500
     25 H71        -0.7620    0.4610   -2.0070 hc        1 T4A      0.047700
     26 H72        -2.0800   -0.4810   -1.1810 hc        1 T4A      0.047700
     27 H6'1        2.9570    0.7420    5.7600 ha        1 T4A      0.170000
     28 H2'1        1.4790    2.6600    2.1800 ha        1 T4A      0.170000
     29 H4'O        3.3820    5.9440    4.7620 ho        1 T4A      0.427000
@<TRIPOS>BOND
     1    1    2 ar  
     2    1    6 ar  
     3    1    7 1   
     4    2    3 ar  
     5    2   23 1   
     6    3    4 ar  
     7    3   15 1   
     8    4    5 ar  
     9    4   21 1   
    10    5    6 ar  
    11    5   16 1   
    12    6   24 1   
    13    7    8 1   
    14    7   25 1   
    15    7   26 1   
    16    8   19 1   
    17    8   20 1   
    18    9   10 ar  
    19    9   14 ar  
    20    9   21 1   
    21   10   11 ar  
    22   10   27 1   
    23   11   12 ar  
    24   11   17 1   
    25   12   13 ar  
    26   12   22 1   
    27   13   14 ar  
    28   13   18 1   
    29   14   28 1   
    30   22   29 1   
@<TRIPOS>SUBSTRUCTURE
     1 T4A         1 TEMP              0 ****  ****    0 ROOT
