@<TRIPOS>MOLECULE
T4B
   61    65     1     0     0
SMALL
bcc


@<TRIPOS>ATOM
      1 C1          0.5950   -3.5220    7.8240 ca        1 T4B     -0.117000
      2 C2          4.1920   -2.3030    7.6420 cp        1 T4B     -0.024000
      3 C3          4.8100   -2.7210    6.4580 ca        1 T4B     -0.202000
      4 C7          2.9870   -3.7540    9.2410 ca        1 T4B     -0.123000
      5 C8          1.8490   -4.4210    9.6820 ca        1 T4B     -0.128000
      6 C9          6.0640   -3.4040    4.0360 c3        1 T4B     -0.012600
      7 C10         6.7010   -3.2980    2.6190 c         1 T4B      0.927600
      8 C11         5.9650   -2.0670    6.0050 ca        1 T4B      0.158100
      9 C12         6.5260   -1.0210    6.7710 ca        1 T4B     -0.164000
     10 C13         5.9160   -0.6400    7.9570 ca        1 T4B     -0.106000
     11 C14         4.7510   -1.2710    8.4010 ca        1 T4B     -0.166000
     12 C15         0.6780   -4.5670    4.2270 c3        1 T4B     -0.087100
     13 C16         1.9210   -1.2630    2.6280 ca        1 T4B     -0.031000
     14 C19         1.7830   -1.3130    4.0670 cc        1 T4B     -0.176300
     15 C20         1.8250   -2.4670    4.8740 cd        1 T4B     -0.067600
     16 C21         2.0010   -3.8760    4.4610 c3        1 T4B     -0.024100
     17 C22         3.2590   -1.5950    0.6310 ca        1 T4B     -0.133000
     18 C24         2.2010    3.0910    3.3290 ca        1 T4B     -0.142000
     19 C27         1.4840    1.2030    4.6670 ca        1 T4B     -0.100500
     20 C30         0.8390   -0.8730    1.8230 ca        1 T4B     -0.115000
     21 C           0.6560   -4.3080    8.9710 ca        1 T4B     -0.141000
     22 C4          0.6090    2.0440    5.3680 ca        1 T4B     -0.105000
     23 C5          1.7440   -2.8450    7.3690 ca        1 T4B      0.027800
     24 C6          2.9590   -2.9650    8.0830 cp        1 T4B      0.003000
     25 O           6.0000   -2.7300    1.7370 o         1 T4B     -0.822800
     26 O1          7.8210   -3.8370    2.4360 o         1 T4B     -0.822800
     27 O2          6.6150   -2.3510    4.8340 os        1 T4B     -0.288900
     28 C17         3.1320   -1.6230    2.0210 ca        1 T4B     -0.115000
     29 N           1.6440   -2.0230    6.2020 na        1 T4B      0.148300
     30 N1          1.5120   -0.6900    6.2760 nd        1 T4B     -0.492800
     31 C18         1.5800   -0.2110    4.9970 cc        1 T4B      0.361800
     32 C23         2.2840    1.7370    3.6450 ca        1 T4B     -0.105000
     33 C25         1.3250    3.9240    4.0270 ca        1 T4B     -0.138000
     34 C26         0.5320    3.3980    5.0460 ca        1 T4B     -0.142000
     35 C28         2.1800   -1.2080   -0.1610 ca        1 T4B     -0.146000
     36 C29         0.9720   -0.8460    0.4370 ca        1 T4B     -0.133000
     37 H91         6.3160   -4.3830    4.5150 h1        1 T4B      0.021200
     38 H92         4.9530   -3.2890    3.9450 h1        1 T4B      0.021200
     39 H3          4.3770   -3.5510    5.8840 ha        1 T4B      0.143000
     40 H14         4.2650   -0.9450    9.3300 ha        1 T4B      0.123000
     41 H13         6.3490    0.1760    8.5530 ha        1 T4B      0.119000
     42 H12         7.4330   -0.5200    6.4040 ha        1 T4B      0.147000
     43 H1         -0.3550   -3.4300    7.2750 ha        1 T4B      0.143000
     44 H          -0.2450   -4.8370    9.3160 ha        1 T4B      0.128000
     45 H8          1.8920   -5.0380   10.5920 ha        1 T4B      0.128000
     46 H7          3.9320   -3.8410    9.8000 ha        1 T4B      0.143000
     47 H4         -0.0140    1.6360    6.1780 ha        1 T4B      0.149500
     48 H26        -0.1570    4.0520    5.5990 ha        1 T4B      0.123500
     49 H25         1.2630    4.9920    3.7760 ha        1 T4B      0.118000
     50 H24         2.8320    3.5020    2.5280 ha        1 T4B      0.123500
     51 H23         2.9730    1.0750    3.0940 ha        1 T4B      0.149500
     52 H17         4.0140   -1.9310    2.6170 ha        1 T4B      0.155500
     53 H22         4.2290   -1.8920    0.1940 ha        1 T4B      0.145500
     54 H28         2.2800   -1.1870   -1.2560 ha        1 T4B      0.117000
     55 H29         0.1210   -0.5380   -0.1860 ha        1 T4B      0.145500
     56 H30        -0.1130   -0.5860    2.2910 ha        1 T4B      0.155500
     57 H211        2.6080   -3.8760    3.5110 hc        1 T4B      0.071700
     58 H212        2.5850   -4.4440    5.2350 hc        1 T4B      0.071700
     59 H151        0.0720   -4.5860    5.1650 hc        1 T4B      0.034033
     60 H152        0.8560   -5.6190    3.8960 hc        1 T4B      0.034033
     61 H153        0.0920   -4.0400    3.4370 hc        1 T4B      0.034033
@<TRIPOS>BOND
     1    1   21 ar  
     2    1   23 ar  
     3    1   43 1   
     4    2    3 ar  
     5    2   11 ar  
     6    2   24 1   
     7    3    8 ar  
     8    3   39 1   
     9    4    5 ar  
    10    4   24 ar  
    11    4   46 1   
    12    5   21 ar  
    13    5   45 1   
    14    6    7 1   
    15    6   27 1   
    16    6   37 1   
    17    6   38 1   
    18    7   25 1   
    19    7   26 1   
    20    8    9 ar  
    21    8   27 1   
    22    9   10 ar  
    23    9   42 1   
    24   10   11 ar  
    25   10   41 1   
    26   11   40 1   
    27   12   16 1   
    28   12   59 1   
    29   12   60 1   
    30   12   61 1   
    31   13   14 1   
    32   13   20 ar  
    33   13   28 ar  
    34   14   15 2   
    35   14   31 1   
    36   15   16 1   
    37   15   29 1   
    38   16   57 1   
    39   16   58 1   
    40   17   28 ar  
    41   17   35 ar  
    42   17   53 1   
    43   18   32 ar  
    44   18   33 ar  
    45   18   50 1   
    46   19   22 ar  
    47   19   31 1   
    48   19   32 ar  
    49   20   36 ar  
    50   20   56 1   
    51   21   44 1   
    52   22   34 ar  
    53   22   47 1   
    54   23   24 ar  
    55   23   29 1   
    56   28   52 1   
    57   29   30 1   
    58   30   31 2   
    59   32   51 1   
    60   33   34 ar  
    61   33   49 1   
    62   34   48 1   
    63   35   36 ar  
    64   35   54 1   
    65   36   55 1   
@<TRIPOS>SUBSTRUCTURE
     1 T4B         1 TEMP              0 ****  ****    0 ROOT
