@<TRIPOS>MOLECULE
T4B
   61    65     1     0     0
SMALL
bcc


@<TRIPOS>ATOM
      1 C1          0.2430    0.2020   -0.0640 ca        1 T4B     -0.117000
      2 C2         -0.5640   -0.2390    3.6250 cp        1 T4B     -0.024000
      3 C3         -1.2550    0.8680    4.1300 ca        1 T4B     -0.202000
      4 C7          1.5620   -0.1740    2.3650 ca        1 T4B     -0.123000
      5 C8          2.2930   -0.0370    1.1890 ca        1 T4B     -0.128000
      6 C9         -2.7720    2.9960    5.1690 c3        1 T4B     -0.012600
      7 C10        -3.9610    3.8260    5.7350 c         1 T4B      0.927600
      8 C11        -1.9870    0.7510    5.3200 ca        1 T4B      0.158100
      9 C12        -1.9850   -0.4710    6.0290 ca        1 T4B     -0.164000
     10 C13        -1.2700   -1.5490    5.5290 ca        1 T4B     -0.106000
     11 C14        -0.5590   -1.4460    4.3300 ca        1 T4B     -0.166000
     12 C15        -2.0230    3.1790   -0.2900 c3        1 T4B     -0.087100
     13 C16        -5.2520    1.6410    1.2020 ca        1 T4B     -0.031000
     14 C19        -4.0690    0.8110    1.1390 cc        1 T4B     -0.176300
     15 C20        -2.7330    1.2560    1.1050 cd        1 T4B     -0.067600
     16 C21        -2.2230    2.6440    1.1090 c3        1 T4B     -0.024100
     17 C22        -6.6330    3.2470    2.3850 ca        1 T4B     -0.133000
     18 C24        -7.2770   -2.2100    1.9760 ca        1 T4B     -0.142000
     19 C27        -5.0910   -1.5830    1.1400 ca        1 T4B     -0.100500
     20 C30        -6.1510    1.6820    0.1240 ca        1 T4B     -0.115000
     21 C           1.6330    0.1560   -0.0230 ca        1 T4B     -0.141000
     22 C4         -5.0450   -2.7720    0.3980 ca        1 T4B     -0.105000
     23 C5         -0.5060    0.0680    1.1230 ca        1 T4B      0.027800
     24 C6          0.1620   -0.1180    2.3560 cp        1 T4B      0.003000
     25 O          -5.0210    3.8150    5.0500 o         1 T4B     -0.822800
     26 O1         -3.7660    4.4950    6.7800 o         1 T4B     -0.822800
     27 O2         -2.7470    1.7470    5.8710 os        1 T4B     -0.288900
     28 C17        -5.5030    2.4290    2.3340 ca        1 T4B     -0.115000
     29 N          -1.9340    0.0940    1.0450 na        1 T4B      0.148300
     30 N1         -2.6710   -1.0270    1.0580 nd        1 T4B     -0.492800
     31 C18        -3.9820   -0.6420    1.1050 cc        1 T4B      0.361800
     32 C23        -6.2150   -1.3090    1.9330 ca        1 T4B     -0.105000
     33 C25        -7.2280   -3.3900    1.2320 ca        1 T4B     -0.138000
     34 C26        -6.1120   -3.6680    0.4450 ca        1 T4B     -0.142000
     35 C28        -7.5200    3.2830    1.3110 ca        1 T4B     -0.146000
     36 C29        -7.2770    2.4980    0.1820 ca        1 T4B     -0.133000
     37 H91        -2.9330    2.8280    4.0730 h1        1 T4B      0.021200
     38 H92        -1.7990    3.5210    5.3440 h1        1 T4B      0.021200
     39 H3         -1.2300    1.8190    3.5800 ha        1 T4B      0.143000
     40 H14        -0.0160   -2.3140    3.9340 ha        1 T4B      0.123000
     41 H13        -1.2690   -2.5020    6.0770 ha        1 T4B      0.119000
     42 H12        -2.5610   -0.5450    6.9620 ha        1 T4B      0.147000
     43 H1         -0.2710    0.3440   -1.0280 ha        1 T4B      0.143000
     44 H           2.2080    0.2660   -0.9540 ha        1 T4B      0.128000
     45 H8          3.3920   -0.0800    1.2180 ha        1 T4B      0.128000
     46 H7          2.0800   -0.3250    3.3250 ha        1 T4B      0.143000
     47 H4         -4.1630   -3.0010   -0.2190 ha        1 T4B      0.149500
     48 H26        -6.0690   -4.5980   -0.1390 ha        1 T4B      0.123500
     49 H25        -8.0670   -4.0980    1.2690 ha        1 T4B      0.118000
     50 H24        -8.1540   -1.9880    2.6010 ha        1 T4B      0.123500
     51 H23        -6.2510   -0.3750    2.5180 ha        1 T4B      0.149500
     52 H17        -4.8260    2.4250    3.2100 ha        1 T4B      0.155500
     53 H22        -6.7910    3.8560    3.2930 ha        1 T4B      0.145500
     54 H28        -8.4100    3.9270    1.3510 ha        1 T4B      0.117000
     55 H29        -7.9770    2.5220   -0.6650 ha        1 T4B      0.145500
     56 H30        -5.9620    1.0640   -0.7650 ha        1 T4B      0.155500
     57 H211       -2.9740    3.2790    1.6590 hc        1 T4B      0.071700
     58 H212       -1.2520    2.7060    1.6730 hc        1 T4B      0.071700
     59 H151       -1.6590    4.2340   -0.2420 hc        1 T4B      0.034033
     60 H152       -1.2690    2.5660   -0.8420 hc        1 T4B      0.034033
     61 H153       -2.9820    3.1590   -0.8600 hc        1 T4B      0.034033
@<TRIPOS>BOND
     1    1   21 ar  
     2    1   23 ar  
     3    1   43 1   
     4    2    3 ar  
     5    2   11 ar  
     6    2   24 1   
     7    3    8 ar  
     8    3   39 1   
     9    4    5 ar  
    10    4   24 ar  
    11    4   46 1   
    12    5   21 ar  
    13    5   45 1   
    14    6    7 1   
    15    6   27 1   
    16    6   37 1   
    17    6   38 1   
    18    7   25 1   
    19    7   26 1   
    20    8    9 ar  
    21    8   27 1   
    22    9   10 ar  
    23    9   42 1   
    24   10   11 ar  
    25   10   41 1   
    26   11   40 1   
    27   12   16 1   
    28   12   59 1   
    29   12   60 1   
    30   12   61 1   
    31   13   14 1   
    32   13   20 ar  
    33   13   28 ar  
    34   14   15 2   
    35   14   31 1   
    36   15   16 1   
    37   15   29 1   
    38   16   57 1   
    39   16   58 1   
    40   17   28 ar  
    41   17   35 ar  
    42   17   53 1   
    43   18   32 ar  
    44   18   33 ar  
    45   18   50 1   
    46   19   22 ar  
    47   19   31 1   
    48   19   32 ar  
    49   20   36 ar  
    50   20   56 1   
    51   21   44 1   
    52   22   34 ar  
    53   22   47 1   
    54   23   24 ar  
    55   23   29 1   
    56   28   52 1   
    57   29   30 1   
    58   30   31 2   
    59   32   51 1   
    60   33   34 ar  
    61   33   49 1   
    62   34   48 1   
    63   35   36 ar  
    64   35   54 1   
    65   36   55 1   
@<TRIPOS>SUBSTRUCTURE
     1 T4B         1 TEMP              0 ****  ****    0 ROOT
