@<TRIPOS>MOLECULE
T4B
   61    65     1     0     0
SMALL
bcc


@<TRIPOS>ATOM
      1 C1          0.2390    0.2040   -0.0700 ca        1 T4B     -0.117000
      2 C2         -0.5620   -0.2410    3.6200 cp        1 T4B     -0.024000
      3 C3         -1.2520    0.8660    4.1270 ca        1 T4B     -0.202000
      4 C7          1.5620   -0.1740    2.3570 ca        1 T4B     -0.123000
      5 C8          2.2920   -0.0360    1.1810 ca        1 T4B     -0.128000
      6 C9         -2.7660    2.9940    5.1710 c3        1 T4B     -0.012600
      7 C10        -3.9540    3.8240    5.7390 c         1 T4B      0.927600
      8 C11        -1.9830    0.7480    5.3180 ca        1 T4B      0.158100
      9 C12        -1.9810   -0.4740    6.0260 ca        1 T4B     -0.164000
     10 C13        -1.2670   -1.5520    5.5230 ca        1 T4B     -0.106000
     11 C14        -0.5580   -1.4480    4.3240 ca        1 T4B     -0.166000
     12 C15        -2.0260    3.1810   -0.2880 c3        1 T4B     -0.087100
     13 C16        -5.2530    1.6420    1.2060 ca        1 T4B     -0.031000
     14 C19        -4.0700    0.8120    1.1410 cc        1 T4B     -0.176300
     15 C20        -2.7340    1.2570    1.1050 cd        1 T4B     -0.067600
     16 C21        -2.2240    2.6450    1.1100 c3        1 T4B     -0.024100
     17 C22        -6.6320    3.2470    2.3930 ca        1 T4B     -0.133000
     18 C24        -7.2770   -2.2110    1.9780 ca        1 T4B     -0.142000
     19 C27        -5.0930   -1.5830    1.1400 ca        1 T4B     -0.100500
     20 C30        -6.1540    1.6830    0.1310 ca        1 T4B     -0.115000
     21 C           1.6290    0.1570   -0.0300 ca        1 T4B     -0.141000
     22 C4         -5.0470   -2.7710    0.3970 ca        1 T4B     -0.105000
     23 C5         -0.5070    0.0690    1.1180 ca        1 T4B      0.027800
     24 C6          0.1620   -0.1180    2.3510 cp        1 T4B      0.003000
     25 O          -5.0150    3.8140    5.0550 o         1 T4B     -0.822800
     26 O1         -3.7580    4.4920    6.7850 o         1 T4B     -0.822800
     27 O2         -2.7410    1.7450    5.8710 os        1 T4B     -0.288900
     28 C17        -5.5020    2.4290    2.3390 ca        1 T4B     -0.115000
     29 N          -1.9350    0.0950    1.0420 na        1 T4B      0.148300
     30 N1         -2.6730   -1.0260    1.0550 nd        1 T4B     -0.492800
     31 C18        -3.9840   -0.6410    1.1050 cc        1 T4B      0.361800
     32 C23        -6.2160   -1.3100    1.9350 ca        1 T4B     -0.105000
     33 C25        -7.2300   -3.3890    1.2330 ca        1 T4B     -0.138000
     34 C26        -6.1140   -3.6670    0.4440 ca        1 T4B     -0.142000
     35 C28        -7.5210    3.2840    1.3210 ca        1 T4B     -0.146000
     36 C29        -7.2810    2.5000    0.1910 ca        1 T4B     -0.133000
     37 H91        -2.9280    2.8270    4.0750 h1        1 T4B      0.021200
     38 H92        -1.7930    3.5180    5.3450 h1        1 T4B      0.021200
     39 H3         -1.2260    1.8180    3.5790 ha        1 T4B      0.143000
     40 H14        -0.0160   -2.3160    3.9260 ha        1 T4B      0.123000
     41 H13        -1.2670   -2.5060    6.0700 ha        1 T4B      0.119000
     42 H12        -2.5560   -0.5490    6.9590 ha        1 T4B      0.147000
     43 H1         -0.2750    0.3460   -1.0330 ha        1 T4B      0.143000
     44 H           2.2040    0.2690   -0.9610 ha        1 T4B      0.128000
     45 H8          3.3900   -0.0790    1.2080 ha        1 T4B      0.128000
     46 H7          2.0810   -0.3260    3.3170 ha        1 T4B      0.143000
     47 H4         -4.1670   -2.9980   -0.2220 ha        1 T4B      0.149500
     48 H26        -6.0720   -4.5960   -0.1410 ha        1 T4B      0.123500
     49 H25        -8.0690   -4.0980    1.2700 ha        1 T4B      0.118000
     50 H24        -8.1530   -1.9890    2.6050 ha        1 T4B      0.123500
     51 H23        -6.2510   -0.3750    2.5210 ha        1 T4B      0.149500
     52 H17        -4.8230    2.4240    3.2140 ha        1 T4B      0.155500
     53 H22        -6.7880    3.8560    3.3020 ha        1 T4B      0.145500
     54 H28        -8.4110    3.9280    1.3630 ha        1 T4B      0.117000
     55 H29        -7.9810    2.5250   -0.6550 ha        1 T4B      0.145500
     56 H30        -5.9680    1.0660   -0.7590 ha        1 T4B      0.155500
     57 H211       -2.9750    3.2790    1.6620 hc        1 T4B      0.071700
     58 H212       -1.2530    2.7060    1.6720 hc        1 T4B      0.071700
     59 H151       -1.6620    4.2360   -0.2410 hc        1 T4B      0.034033
     60 H152       -1.2740    2.5690   -0.8430 hc        1 T4B      0.034033
     61 H153       -2.9860    3.1620   -0.8580 hc        1 T4B      0.034033
@<TRIPOS>BOND
     1    1   21 ar  
     2    1   23 ar  
     3    1   43 1   
     4    2    3 ar  
     5    2   11 ar  
     6    2   24 1   
     7    3    8 ar  
     8    3   39 1   
     9    4    5 ar  
    10    4   24 ar  
    11    4   46 1   
    12    5   21 ar  
    13    5   45 1   
    14    6    7 1   
    15    6   27 1   
    16    6   37 1   
    17    6   38 1   
    18    7   25 1   
    19    7   26 1   
    20    8    9 ar  
    21    8   27 1   
    22    9   10 ar  
    23    9   42 1   
    24   10   11 ar  
    25   10   41 1   
    26   11   40 1   
    27   12   16 1   
    28   12   59 1   
    29   12   60 1   
    30   12   61 1   
    31   13   14 1   
    32   13   20 ar  
    33   13   28 ar  
    34   14   15 2   
    35   14   31 1   
    36   15   16 1   
    37   15   29 1   
    38   16   57 1   
    39   16   58 1   
    40   17   28 ar  
    41   17   35 ar  
    42   17   53 1   
    43   18   32 ar  
    44   18   33 ar  
    45   18   50 1   
    46   19   22 ar  
    47   19   31 1   
    48   19   32 ar  
    49   20   36 ar  
    50   20   56 1   
    51   21   44 1   
    52   22   34 ar  
    53   22   47 1   
    54   23   24 ar  
    55   23   29 1   
    56   28   52 1   
    57   29   30 1   
    58   30   31 2   
    59   32   51 1   
    60   33   34 ar  
    61   33   49 1   
    62   34   48 1   
    63   35   36 ar  
    64   35   54 1   
    65   36   55 1   
@<TRIPOS>SUBSTRUCTURE
     1 T4B         1 TEMP              0 ****  ****    0 ROOT
