@<TRIPOS>MOLECULE
T4E
   32    34     1     0     0
SMALL
bcc


@<TRIPOS>ATOM
      1 N2          2.1380   -2.8840    0.2210 nb        1 T4E     -0.382000
      2 N1          1.0000   -2.3640    0.3210 nb        1 T4E     -0.236000
      3 C6          0.8050   -1.0010    0.2080 cp        1 T4E      0.211500
      4 C5          1.9280   -0.1600   -0.0700 cq        1 T4E      0.456500
      5 N4          3.1770   -0.6780   -0.1710 nb        1 T4E     -0.726000
      6 C3          3.2760   -2.0510    0.0000 ca        1 T4E      0.816900
      7 C10        -3.1540    0.4680    0.8060 ca        1 T4E      0.143100
      8 C11        -2.0840    1.0050    1.5460 ca        1 T4E     -0.155000
      9 C12        -0.7980    0.5280    1.3400 ca        1 T4E     -0.071000
     10 C7         -0.5520   -0.4830    0.3980 cp        1 T4E     -0.151500
     11 C8         -1.6160   -1.0280   -0.3290 ca        1 T4E     -0.058000
     12 C9         -2.9150   -0.5500   -0.1330 ca        1 T4E     -0.076600
     13 C16         1.5230    4.0380   -0.7220 ca        1 T4E     -0.113000
     14 C17         2.4140    3.5650    0.2410 ca        1 T4E     -0.136000
     15 C18         2.5490    2.1940    0.4590 ca        1 T4E     -0.093500
     16 C13         1.7760    1.2910   -0.2820 cq        1 T4E     -0.163500
     17 C14         0.8860    1.7680   -1.2530 ca        1 T4E     -0.093500
     18 C15         0.7620    3.1390   -1.4700 ca        1 T4E     -0.136000
     19 N3          4.5280   -2.6360    0.0030 nh        1 T4E     -0.930500
     20 CL1        -4.1920   -1.2210   -1.0390 cl        1 T4E     -0.093400
     21 H1         -2.2880    1.7970    2.2810 ha        1 T4E      0.157000
     22 H2          0.0400    0.9480    1.9180 ha        1 T4E      0.146000
     23 H3         -1.4340   -1.8380   -1.0530 ha        1 T4E      0.159000
     24 H4          1.4220    5.1200   -0.8940 ha        1 T4E      0.135000
     25 H5          3.0180    4.2730    0.8280 ha        1 T4E      0.137000
     26 H6          3.2640    1.8220    1.2080 ha        1 T4E      0.143500
     27 H7          0.2830    1.0580   -1.8400 ha        1 T4E      0.143500
     28 H8          0.0630    3.5100   -2.2330 ha        1 T4E      0.137000
     29 H9          5.3010   -2.1000   -0.3130 hn        1 T4E      0.443800
     30 H10         4.5840   -3.6240   -0.0580 hn        1 T4E      0.443800
     31 H11        -5.0470    0.5380    0.5250 ho        1 T4E      0.431000
     32 O1         -4.3910    1.0010    1.0700 oh        1 T4E     -0.489100
@<TRIPOS>BOND
     1    1    2 ar  
     2    1    6 ar  
     3    2    3 ar  
     4    3    4 1   
     5    3   10 1   
     6    4    5 2   
     7    4   16 1   
     8    5    6 ar  
     9    6   19 1   
    10    7    8 ar  
    11    7   12 ar  
    12    7   32 1   
    13    8    9 ar  
    14    8   21 1   
    15    9   10 ar  
    16    9   22 1   
    17   10   11 ar  
    18   11   12 ar  
    19   11   23 1   
    20   12   20 1   
    21   13   14 ar  
    22   13   18 ar  
    23   13   24 1   
    24   14   15 ar  
    25   14   25 1   
    26   15   16 1   
    27   15   26 1   
    28   16   17 2   
    29   17   18 ar  
    30   17   27 1   
    31   18   28 1   
    32   19   29 1   
    33   19   30 1   
    34   31   32 1   
@<TRIPOS>SUBSTRUCTURE
     1 T4E         1 TEMP              0 ****  ****    0 ROOT
