@<TRIPOS>MOLECULE
T4E
   32    33     1     0     0
SMALL
bcc


@<TRIPOS>ATOM
      1 N2          0.1230    0.7440   -0.0220 n2        1 T4E     -0.120000
      2 N1          1.3580    0.8210    0.1830 n2        1 T4E      0.020000
      3 C6          1.9200    0.5380    1.4140 c2        1 T4E     -0.165000
      4 C5          1.0590    0.1420    2.4900 c2        1 T4E      0.113000
      5 N4         -0.2810    0.0500    2.3180 n2        1 T4E     -0.193000
      6 C3         -0.7440    0.3450    1.0420 c2        1 T4E      0.106000
      7 C10         6.3660    0.1790    1.1200 c2        1 T4E      0.112000
      8 C11         5.6280    1.2950    0.8840 c2        1 T4E     -0.226000
      9 C12         4.1990    1.2190    0.6990 c2        1 T4E     -0.060000
     10 C7          3.3590    0.6570    1.6030 c2        1 T4E     -0.098000
     11 C8          4.4270   -1.3430    1.2900 c1        1 T4E      0.211000
     12 C9          5.7460   -1.1430    1.1370 c2        1 T4E     -0.391000
     13 C16         3.5380   -0.0350    5.8500 c2        1 T4E     -0.147000
     14 C17         2.2450    0.6470    6.0250 c2        1 T4E     -0.087000
     15 C18         1.5220    0.5740    4.9130 c1        1 T4E     -0.118000
     16 C13         1.5890   -0.1740    3.8160 c2        1 T4E     -0.053000
     17 C14         2.4320   -1.4060    4.0410 c3        1 T4E     -0.115000
     18 C15         3.5670   -1.0660    4.9740 c2        1 T4E     -0.152000
     19 N3         -2.0900    0.2090    0.7740 nv        1 T4E     -0.332000
     20 Cl1         6.7260   -2.5200    0.8950 cl        1 T4E      0.020000
     21 H1          6.1090    2.2800    0.7890 ha        1 T4E      0.170000
     22 H2          3.8260    1.6520   -0.2490 ha        1 T4E      0.160000
     23 H3          3.7120    0.3900    2.6210 ha        1 T4E      0.157000
     24 H4          4.4330   -1.7420    4.9120 ha        1 T4E      0.140000
     25 H5          4.3780    0.2330    6.5000 ha        1 T4E      0.144000
     26 H6          1.9350    1.0220    7.0040 ha        1 T4E      0.163000
     27 H7          1.8480   -2.2630    4.4690 hc        1 T4E      0.133500
     28 H8          2.8450   -1.7310    3.0440 hc        1 T4E      0.133500
     29 H9         -2.7170    0.0640    1.5270 hn        1 T4E      0.243000
     30 H10        -2.4420    0.5510   -0.0860 hn        1 T4E      0.243000
     31 H11         8.1410   -0.5280    1.2590 ho        1 T4E      0.230000
     32 O1          7.7090    0.3360    1.3550 oh        1 T4E     -0.243000
@<TRIPOS>BOND
     1    1    2 1   
     2    1    6 1   
     3    2    3 1   
     4    3    4 1   
     5    3   10 1   
     6    4    5 1   
     7    4   16 1   
     8    5    6 1   
     9    6   19 1   
    10    7    8 1   
    11    7   12 1   
    12    7   32 1   
    13    8    9 1   
    14    8   21 1   
    15    9   10 1   
    16    9   22 1   
    17   10   23 1   
    18   11   12 1   
    19   12   20 1   
    20   13   14 1   
    21   13   18 1   
    22   13   25 1   
    23   14   15 1   
    24   14   26 1   
    25   15   16 1   
    26   16   17 1   
    27   17   18 1   
    28   17   27 1   
    29   17   28 1   
    30   18   24 1   
    31   19   29 1   
    32   19   30 1   
    33   31   32 1   
@<TRIPOS>SUBSTRUCTURE
     1 T4E         1 TEMP              0 ****  ****    0 ROOT
