@<TRIPOS>MOLECULE
T4E
   32    24     1     0     0
SMALL
bcc


@<TRIPOS>ATOM
      1 N2         -3.3570    0.0820   -1.6010 n1        1 T4E     -0.122000
      2 N1         -2.0580    0.3130   -1.8890 n1        1 T4E      0.026000
      3 C6         -1.1270    0.1390   -0.9520 c1        1 T4E     -0.161000
      4 C5         -1.4900   -0.2760    0.3070 c1        1 T4E      0.087000
      5 N4         -2.7740   -0.5030    0.5890 n1        1 T4E     -0.201000
      6 C3         -3.7140   -0.3270   -0.3600 c1        1 T4E      0.105000
      7 C10         2.9240    0.6710   -2.2270 c1        1 T4E      0.094000
      8 C11         2.2480   -0.5000   -2.5370 c1        1 T4E     -0.214000
      9 C12         0.9550   -0.6960   -2.0780 c1        1 T4E     -0.061000
     10 C7          0.3370    0.2780   -1.3090 c2        1 T4E     -0.041000
     11 C8          1.0130    1.4480   -0.9990 c2        1 T4E     -0.074000
     12 C9          2.3070    1.6440   -1.4590 c1        1 T4E     -0.094000
     13 C16         1.1990   -0.6100    3.6130 c1        1 T4E     -0.118750
     14 C17         0.5210    0.5760    3.3900 c1        1 T4E     -0.118750
     15 C18        -0.3050    0.7060    2.2860 c1        1 T4E     -0.118750
     16 C13        -0.4540   -0.3520    1.4030 c1        1 T4E     -0.054000
     17 C14         0.2260   -1.5400    1.6270 c1        1 T4E     -0.096000
     18 C15         1.0520   -1.6680    2.7320 c1        1 T4E     -0.118750
     19 N3         -5.1170   -0.1830   -0.4820 n3        1 T4E     -0.337000
     20 CL1         2.9900    3.2140   -1.7840 cl        1 T4E      0.008000
     21 O1          4.2000    0.9090   -2.7690 oh        1 T4E     -0.236000
     22 H1          2.6820   -1.1850   -3.0780 ha        1 T4E      0.139000
     23 H2          0.4790   -1.5200   -2.2960 ha        1 T4E      0.149000
     24 H3          0.5790    2.1340   -0.4580 ha        1 T4E      0.155000
     25 H4          1.7810   -0.7010    4.3920 ha        1 T4E      0.137500
     26 H5          0.6250    1.3220    4.0120 ha        1 T4E      0.137500
     27 H6         -0.7840    1.5430    2.1290 ha        1 T4E      0.137500
     28 H7          0.1220   -2.2860    1.0060 ha        1 T4E      0.141000
     29 H8          1.5300   -2.5050    2.8890 ha        1 T4E      0.137500
     30 H9         -5.6480   -0.2310    0.2600 hn        1 T4E      0.244000
     31 H10        -5.4920   -0.0350   -1.3020 hn        1 T4E      0.244000
     32 H11         4.5510    0.1410   -3.0500 ho        1 T4E      0.222000
@<TRIPOS>BOND
     1    1    6 1   
     2    2    3 1   
     3    3   10 1   
     4    4    5 1   
     5    6   19 1   
     6    7    8 1   
     7    7   21 1   
     8    8   22 1   
     9    9   10 1   
    10    9   23 1   
    11   10   11 1   
    12   11   12 1   
    13   11   24 1   
    14   13   18 1   
    15   13   25 1   
    16   14   15 1   
    17   14   26 1   
    18   15   27 1   
    19   16   17 1   
    20   17   28 1   
    21   18   29 1   
    22   19   30 1   
    23   19   31 1   
    24   21   32 1   
@<TRIPOS>SUBSTRUCTURE
     1 T4E         1 TEMP              0 ****  ****    0 ROOT
