@<TRIPOS>MOLECULE
T4E
   33    33     1     0     0
SMALL
bcc


@<TRIPOS>ATOM
      1 N2          0.6550    1.1580    0.2130 n2        1 T4E     -0.013000
      2 N1          1.8520    1.0900    0.6200 n2        1 T4E      0.006000
      3 C6          2.2000    0.3700    1.7400 c2        1 T4E      0.011000
      4 C5          1.1740   -0.3150    2.4940 c2        1 T4E      0.098000
      5 N4         -0.1160   -0.2620    2.0700 n2        1 T4E     -0.092000
      6 C3         -0.3250    0.4690    0.9300 c2        1 T4E     -0.133000
      7 C10         6.1710   -0.0380    0.8150 c2        1 T4E      0.245000
      8 C11         5.6670    1.2900    1.1250 c2        1 T4E     -0.173000
      9 C12         4.4600    1.4440    1.7040 c2        1 T4E     -0.067000
     10 C7          3.6470    0.2660    2.1160 c3        1 T4E     -0.099000
     11 C8          4.1370   -1.0610    1.6750 c1        1 T4E     -0.129000
     12 C9          5.3940   -1.1670    1.1040 c2        1 T4E     -0.271000
     13 C16         4.6020    1.1620    5.6590 c1        1 T4E     -0.223000
     14 C17         0.2470   -0.2230    5.8810 c1        1 T4E     -0.139000
     15 C18         0.8000   -0.5990    4.8880 c1        1 T4E     -0.170000
     16 C13         1.4660   -1.0610    3.7360 c2        1 T4E     -0.032000
     17 C14         2.2820   -2.1300    3.7310 c2        1 T4E     -0.091000
     18 C15         5.1100    0.1070    5.4170 c1        1 T4E     -0.223000
     19 N3         -1.7160    0.5280    0.4160 n4        1 T4E      0.005000
     20 CL1         5.9740   -2.7180    0.7100 cl        1 T4E      0.017000
     21 H1          6.3110    2.1450    0.8550 ha        1 T4E      0.181000
     22 H2          4.0580    2.4460    1.9240 ha        1 T4E      0.157000
     23 H3          3.7200    0.2060    3.2640 hc        1 T4E      0.207000
     24 H4          5.5750   -0.8290    5.2260 ha        1 T4E      0.224500
     25 H5          4.1610    2.0990    5.8930 ha        1 T4E      0.224500
     26 H6         -0.2380    0.1050    6.7680 ha        1 T4E      0.239000
     27 H7          2.4800   -2.6980    4.6530 ha        1 T4E      0.169000
     28 H8          2.8030   -2.4740    2.8170 ha        1 T4E      0.169000
     29 H9         -2.3540    0.0410    1.0600 hn        1 T4E      0.276333
     30 H10        -2.0000    1.5120    0.3260 hn        1 T4E      0.276333
     31 H11         7.6610   -0.9640    0.0500 ho        1 T4E      0.267000
     32 H33        -1.7470    0.0770   -0.5070 hn        1 T4E      0.276333
     33 O1          7.3830   -0.0440    0.2340 oh        1 T4E     -0.194000
@<TRIPOS>BOND
     1    1    2 1   
     2    1    6 1   
     3    2    3 1   
     4    3    4 1   
     5    3   10 1   
     6    4    5 1   
     7    4   16 1   
     8    5    6 1   
     9    6   19 1   
    10    7    8 1   
    11    7   12 1   
    12    7   33 1   
    13    8    9 1   
    14    8   21 1   
    15    9   10 1   
    16    9   22 1   
    17   10   11 1   
    18   10   23 1   
    19   11   12 1   
    20   12   20 1   
    21   13   18 1   
    22   13   25 1   
    23   14   15 1   
    24   14   26 1   
    25   15   16 1   
    26   16   17 1   
    27   17   27 1   
    28   17   28 1   
    29   18   24 1   
    30   19   29 1   
    31   19   30 1   
    32   19   32 1   
    33   31   33 1   
@<TRIPOS>SUBSTRUCTURE
     1 T4E         1 TEMP              0 ****  ****    0 ROOT
