@<TRIPOS>MOLECULE
T4G
   36    38     1     0     0
SMALL
bcc


@<TRIPOS>ATOM
      1 N2          0.5350    0.0470    0.0040 n2        1 T4G     -0.110000
      2 N1          1.7510    0.0470    0.3150 n2        1 T4G      0.035000
      3 C6          2.1700   -0.0870    1.6240 c2        1 T4G     -0.134000
      4 C5          1.1960   -0.2020    2.6570 c2        1 T4G      0.081000
      5 N4         -0.1280   -0.2130    2.3680 n2        1 T4G     -0.216000
      6 C3         -0.4520   -0.1060    1.0240 c2        1 T4G      0.101000
      7 N5          6.0210    0.7790    0.5180 n2        1 T4G     -0.073000
      8 C10         5.3090    1.6590    1.3510 c2        1 T4G     -0.078000
      9 C11         4.1650    1.3040    2.0010 c2        1 T4G     -0.164000
     10 C7          3.6430   -0.0850    1.8970 c3        1 T4G     -0.099000
     11 C8          4.3690   -0.9980    0.9950 c1        1 T4G     -0.009000
     12 C9          5.5700   -0.4450    0.3650 c2        1 T4G     -0.111000
     13 C17         3.7060   -0.9110    5.8940 c2        1 T4G     -0.009000
     14 C18         3.5130    0.3780    5.4900 c2        1 T4G     -0.251000
     15 C19         2.5340    0.7350    4.5250 c1        1 T4G     -0.077000
     16 C14         1.5830   -0.3090    4.1110 c3        1 T4G     -0.119000
     17 C15         1.9030   -1.7130    4.4840 c2        1 T4G     -0.094000
     18 C16         2.8980   -1.9770    5.3610 c2        1 T4G     -0.195000
     19 N3         -1.7790   -0.2020    0.6450 nh        1 T4G     -0.327000
     20 C13         6.2750   -1.4140   -0.5340 c3        1 T4G     -0.158000
     21 H1          3.6000    1.9990    2.6440 ha        1 T4G      0.176000
     22 H2          3.8190   -0.5840    2.9160 hc        1 T4G      0.174000
     23 H3          3.1240   -3.0070    5.6790 ha        1 T4G      0.147000
     24 H4          4.4910   -1.1810    6.6200 ha        1 T4G      0.139000
     25 H5          4.1470    1.1900    5.8820 ha        1 T4G      0.154000
     26 H6          0.6730   -0.0170    4.7570 hc        1 T4G      0.203000
     27 H7          1.2790   -2.5080    4.0480 ha        1 T4G      0.152000
     28 H8         -2.4760   -0.1220    1.3460 hn        1 T4G      0.237500
     29 H9         -2.0180    0.0580   -0.2830 hn        1 T4G      0.237500
     30 H10         5.5600   -1.7490   -1.3270 hc        1 T4G      0.094333
     31 H11         7.1790   -0.9750   -1.0200 hc        1 T4G      0.094333
     32 H12         6.5790   -2.3060    0.0670 hc        1 T4G      0.094333
     33 H13         6.9030    3.0090    1.8950 hc        1 T4G      0.089667
     34 H14         5.2240    3.6460    2.1730 hc        1 T4G      0.089667
     35 H15         5.8940    3.5460    0.4880 hc        1 T4G      0.089667
     36 C12         5.8630    3.0410    1.4850 c3        1 T4G     -0.163000
@<TRIPOS>BOND
     1    1    2 1   
     2    1    6 1   
     3    2    3 1   
     4    3    4 1   
     5    3   10 1   
     6    4    5 1   
     7    4   16 1   
     8    5    6 1   
     9    6   19 1   
    10    7    8 1   
    11    7   12 1   
    12    8    9 1   
    13    8   36 1   
    14    9   10 1   
    15    9   21 1   
    16   10   11 1   
    17   10   22 1   
    18   11   12 1   
    19   12   20 1   
    20   13   14 1   
    21   13   18 1   
    22   13   24 1   
    23   14   15 1   
    24   14   25 1   
    25   15   16 1   
    26   16   17 1   
    27   16   26 1   
    28   17   18 1   
    29   17   27 1   
    30   18   23 1   
    31   19   28 1   
    32   19   29 1   
    33   20   30 1   
    34   20   31 1   
    35   20   32 1   
    36   33   36 1   
    37   34   36 1   
    38   35   36 1   
@<TRIPOS>SUBSTRUCTURE
     1 T4G         1 TEMP              0 ****  ****    0 ROOT
