@<TRIPOS>MOLECULE
T4G
   37    40     1     0     0
SMALL
bcc


@<TRIPOS>ATOM
      1 N2          0.1940    1.6340    1.5130 n2        1 T4G     -0.116200
      2 N1          1.2410    1.7260    2.1010 n2        1 T4G     -0.145200
      3 C6          2.1070    0.5330    2.3030 cy        1 T4G     -0.006800
      4 C5          1.1970   -0.7820    2.2920 ce        1 T4G      0.449900
      5 N4          0.0730   -0.8960    1.7020 n2        1 T4G     -0.568900
      6 C3         -0.3550    0.3200    0.9270 c3        1 T4G      0.457900
      7 N5          6.1420    0.4090    1.2490 n2        1 T4G     -0.116000
      8 C10         5.5120    1.6090    1.3220 ce        1 T4G      0.021300
      9 C11         4.1130    1.7240    1.3760 c2        1 T4G      0.019300
     10 C7          3.2720    0.5240    1.2930 c3        1 T4G     -0.084300
     11 C8          4.0150   -0.7420    1.2740 c2        1 T4G      0.019300
     12 C9          5.4150   -0.7390    1.2170 ce        1 T4G      0.021300
     13 C17         3.2600   -0.6170    5.8270 ca        1 T4G     -0.104000
     14 C18         3.2250    0.3730    4.8140 ca        1 T4G     -0.071000
     15 C19         2.5350    0.0510    3.6790 ca        1 T4G     -0.119300
     16 C14         1.8410   -1.2110    3.5470 ca        1 T4G     -0.163900
     17 C15         1.8690   -2.1630    4.5290 ca        1 T4G     -0.049000
     18 C16         2.6180   -1.8390    5.6870 ca        1 T4G     -0.109000
     19 N3         -1.7900    0.4080    0.7220 n3        1 T4G     -0.863800
     20 C13         6.1460   -2.0440    1.1390 c3        1 T4G     -0.069400
     21 H1          3.6280    2.7150    1.4620 ha        1 T4G      0.207000
     22 H2          2.8020    0.5780    0.2320 hc        1 T4G      0.205700
     23 H3          2.6690   -2.5790    6.5030 ha        1 T4G      0.163000
     24 H4          3.8100   -0.3940    6.7570 ha        1 T4G      0.161000
     25 H5          3.7220    1.3420    4.9660 ha        1 T4G      0.157000
     26 H6          3.4400   -1.6860    1.2960 ha        1 T4G      0.207000
     27 H7          1.3390   -3.1240    4.4510 ha        1 T4G      0.171000
     28 H8          0.1070    0.2490   -0.1150 h3        1 T4G      0.096700
     29 H9         -2.1380   -0.4410    0.3180 hn        1 T4G      0.390300
     30 H10         6.7420   -2.0990    0.1920 hc        1 T4G      0.086533
     31 H11         5.4230   -2.8960    1.1600 hc        1 T4G      0.086533
     32 H12         6.8530   -2.1490    2.0010 hc        1 T4G      0.086533
     33 H13         6.8910    2.9810    0.3910 hc        1 T4G      0.086533
     34 H14         7.1040    2.7970    2.1820 hc        1 T4G      0.086533
     35 H15         5.6970    3.7490    1.5300 hc        1 T4G      0.086533
     36 H33        -2.2920    0.6230    1.5610 hn        1 T4G      0.390300
     37 C12         6.3440    2.8540    1.3610 c3        1 T4G     -0.069400
@<TRIPOS>BOND
     1    1    2 2   
     2    1    6 1   
     3    2    3 1   
     4    3    4 1   
     5    3   10 1   
     6    3   15 1   
     7    4    5 2   
     8    4   16 1   
     9    5    6 1   
    10    6   19 1   
    11    6   28 1   
    12    7    8 1   
    13    7   12 1   
    14    8    9 2   
    15    8   37 1   
    16    9   10 1   
    17    9   21 1   
    18   10   11 1   
    19   10   22 1   
    20   11   12 2   
    21   11   26 1   
    22   12   20 1   
    23   13   14 ar  
    24   13   18 ar  
    25   13   24 1   
    26   14   15 ar  
    27   14   25 1   
    28   15   16 ar  
    29   16   17 ar  
    30   17   18 ar  
    31   17   27 1   
    32   18   23 1   
    33   19   29 1   
    34   19   36 1   
    35   20   30 1   
    36   20   31 1   
    37   20   32 1   
    38   33   37 1   
    39   34   37 1   
    40   35   37 1   
@<TRIPOS>SUBSTRUCTURE
     1 T4G         1 TEMP              0 ****  ****    0 ROOT
