@<TRIPOS>MOLECULE
T4G
   36    37     1     0     0
SMALL
bcc


@<TRIPOS>ATOM
      1 N2          0.7400   -0.0080   -0.1670 n2        1 T4G     -0.114000
      2 N1          1.9720   -0.0820    0.0630 n2        1 T4G      0.036000
      3 C6          2.4640   -0.3490    1.3230 c2        1 T4G     -0.150000
      4 C5          1.5530   -0.5040    2.4140 c2        1 T4G      0.080000
      5 N4          0.2110   -0.4390    2.2070 n2        1 T4G     -0.212000
      6 C3         -0.1880   -0.2150    0.8990 c2        1 T4G      0.102000
      7 N5          6.2910    0.7160    0.2750 n2        1 T4G     -0.080000
      8 C10         5.6480    1.3460    1.3550 c2        1 T4G     -0.067000
      9 C11         4.5230    0.8500    1.9420 c2        1 T4G     -0.188000
     10 C7          3.9500   -0.4480    1.4950 c3        1 T4G     -0.101000
     11 C8          4.6070   -1.0960    0.3450 c1        1 T4G      0.004000
     12 C9          5.7880   -0.4070   -0.1850 c2        1 T4G     -0.106000
     13 C17         2.4410   -0.3210    6.8280 c2        1 T4G     -0.056000
     14 C18         2.7940    0.9720    6.2920 c2        1 T4G     -0.441000
     15 C19         2.9060    1.3210    5.0220 c1        1 T4G      0.180000
     16 C14         2.0490   -0.6930    3.7800 c2        1 T4G     -0.158000
     17 C15         1.3050   -1.1700    4.7950 c2        1 T4G     -0.055000
     18 C16         1.7810   -1.2820    6.1560 c2        1 T4G     -0.175000
     19 N3         -1.5380   -0.2360    0.5990 nv        1 T4G     -0.328000
     20 C13         6.4060   -1.1000   -1.3600 c3        1 T4G     -0.160000
     21 H1          4.0080    1.3760    2.7630 ha        1 T4G      0.165000
     22 H2          4.1660   -1.2210    2.3140 hc        1 T4G      0.175000
     23 H3          1.5170   -2.2240    6.6680 ha        1 T4G      0.145000
     24 H4          2.7320   -0.4900    7.8800 ha        1 T4G      0.135000
     25 H5          2.9950    1.7600    7.0500 ha        1 T4G      0.192000
     26 H6          3.1270   -0.4690    3.9100 ha        1 T4G      0.151000
     27 H7          0.2620   -1.5040    4.6380 ha        1 T4G      0.156000
     28 H8         -2.1880   -0.1970    1.3460 hn        1 T4G      0.237000
     29 H9         -1.8230    0.1070   -0.2870 hn        1 T4G      0.237000
     30 H10         5.6300   -1.2070   -2.1580 hc        1 T4G      0.095667
     31 H11         7.2840   -0.5500   -1.7760 hc        1 T4G      0.095667
     32 H12         6.7310   -2.1220   -1.0430 hc        1 T4G      0.095667
     33 H13         7.3050    2.4600    2.1700 hc        1 T4G      0.090000
     34 H14         6.2690    3.3810    1.0040 hc        1 T4G      0.090000
     35 H15         5.6610    3.0410    2.6820 hc        1 T4G      0.090000
     36 C12         6.2540    2.6280    1.8300 c3        1 T4G     -0.164000
@<TRIPOS>BOND
     1    1    2 1   
     2    1    6 1   
     3    2    3 1   
     4    3    4 1   
     5    3   10 1   
     6    4    5 1   
     7    4   16 1   
     8    5    6 1   
     9    6   19 1   
    10    7    8 1   
    11    7   12 1   
    12    8    9 1   
    13    8   36 1   
    14    9   10 1   
    15    9   21 1   
    16   10   11 1   
    17   10   22 1   
    18   11   12 1   
    19   12   20 1   
    20   13   14 1   
    21   13   18 1   
    22   13   24 1   
    23   14   15 1   
    24   14   25 1   
    25   16   17 1   
    26   16   26 1   
    27   17   18 1   
    28   17   27 1   
    29   18   23 1   
    30   19   28 1   
    31   19   29 1   
    32   20   30 1   
    33   20   31 1   
    34   20   32 1   
    35   33   36 1   
    36   34   36 1   
    37   35   36 1   
@<TRIPOS>SUBSTRUCTURE
     1 T4G         1 TEMP              0 ****  ****    0 ROOT
