@<TRIPOS>MOLECULE
T4G
   36    38     1     0     0
SMALL
bcc


@<TRIPOS>ATOM
      1 N2          2.5780   -2.3470    0.4720 nb        1 T4G     -0.384000
      2 N1          1.3300   -2.2130    0.4720 nb        1 T4G     -0.230000
      3 C6          0.7240   -0.9980    0.2210 cp        1 T4G      0.197500
      4 C5          1.5390    0.1360   -0.0910 cq        1 T4G      0.463500
      5 N4          2.8930    0.0380   -0.0920 nb        1 T4G     -0.729000
      6 C3          3.4080   -1.2130    0.2160 ca        1 T4G      0.821900
      7 N5         -3.5520   -0.8510    0.4860 nb        1 T4G     -0.670000
      8 C10        -2.7790   -0.0400    1.2470 ca        1 T4G      0.416100
      9 C11        -1.3680   -0.0520    1.1850 ca        1 T4G     -0.232300
     10 C7         -0.7380   -0.9330    0.3000 cp        1 T4G     -0.076500
     11 C8         -1.5290   -1.7830   -0.4810 ca        1 T4G     -0.232300
     12 C9         -2.9340   -1.7080   -0.3600 ca        1 T4G      0.416100
     13 C17        -0.1360    3.9100   -1.1650 ca        1 T4G     -0.112000
     14 C18         0.8320    3.8370   -0.1640 ca        1 T4G     -0.136500
     15 C19         1.3820    2.6060    0.1920 ca        1 T4G     -0.092000
     16 C14         0.9500    1.4380   -0.4500 cq        1 T4G     -0.164500
     17 C15        -0.0180    1.5140   -1.4590 ca        1 T4G     -0.092000
     18 C16        -0.5570    2.7490   -1.8140 ca        1 T4G     -0.136500
     19 N3          4.7760   -1.3640    0.3210 nh        1 T4G     -0.932500
     20 C13        -3.7730   -2.6260   -1.1930 c3        1 T4G     -0.147900
     21 H1         -0.7790    0.6220    1.8210 ha        1 T4G      0.148500
     22 H2         -1.0690   -2.5040   -1.1700 ha        1 T4G      0.148500
     23 H3         -0.5650    4.8840   -1.4460 ha        1 T4G      0.135000
     24 H4          1.1680    4.7520    0.3460 ha        1 T4G      0.137000
     25 H5          2.1550    2.5530    0.9730 ha        1 T4G      0.143500
     26 H6         -0.3550    0.5970   -1.9660 ha        1 T4G      0.143500
     27 H7         -1.3180    2.8050   -2.6060 ha        1 T4G      0.137000
     28 H8          5.3620   -0.6330   -0.0020 hn        1 T4G      0.445300
     29 H9          5.1460   -2.2820    0.3700 hn        1 T4G      0.445300
     30 H10        -4.2070   -3.4300   -0.5480 hc        1 T4G      0.052867
     31 H11        -4.6150   -2.0730   -1.6780 hc        1 T4G      0.052867
     32 H12        -3.1500   -3.1020   -1.9890 hc        1 T4G      0.052867
     33 H13        -3.9550    0.3270    3.0120 hc        1 T4G      0.052867
     34 H14        -2.6930    1.5850    2.6590 hc        1 T4G      0.052867
     35 H15        -4.2160    1.5190    1.6720 hc        1 T4G      0.052867
     36 C12        -3.4460    0.9020    2.1980 c3        1 T4G     -0.147900
@<TRIPOS>BOND
     1    1    2 ar  
     2    1    6 ar  
     3    2    3 ar  
     4    3    4 1   
     5    3   10 1   
     6    4    5 2   
     7    4   16 1   
     8    5    6 ar  
     9    6   19 1   
    10    7    8 ar  
    11    7   12 ar  
    12    8    9 ar  
    13    8   36 1   
    14    9   10 ar  
    15    9   21 1   
    16   10   11 ar  
    17   11   12 ar  
    18   11   22 1   
    19   12   20 1   
    20   13   14 ar  
    21   13   18 ar  
    22   13   23 1   
    23   14   15 ar  
    24   14   24 1   
    25   15   16 1   
    26   15   25 1   
    27   16   17 2   
    28   17   18 ar  
    29   17   26 1   
    30   18   27 1   
    31   19   28 1   
    32   19   29 1   
    33   20   30 1   
    34   20   31 1   
    35   20   32 1   
    36   33   36 1   
    37   34   36 1   
    38   35   36 1   
@<TRIPOS>SUBSTRUCTURE
     1 T4G         1 TEMP              0 ****  ****    0 ROOT
