@<TRIPOS>MOLECULE
T4P
   48    49     1     0     0
SMALL
bcc


@<TRIPOS>ATOM
      1 O33        -2.8860    2.7620   -0.8080 o         1 T4P     -0.927167
      2 P          -1.6890    2.3760   -0.0030 p5        1 T4P      1.347900
      3 O31        -1.0950    3.3550    0.9740 o         1 T4P     -0.927167
      4 O32        -1.7380    1.0100    0.6710 o         1 T4P     -0.927167
      5 O27        -0.4710    2.1550   -1.1820 os        1 T4P     -0.571200
      6 C17        -0.5670    0.9910   -1.9120 c3        1 T4P      0.212400
      7 C16         0.8390    0.4910   -2.2640 c3        1 T4P     -0.133400
      8 C15         0.8870   -1.0010   -2.5740 c3        1 T4P      0.055000
      9 N5          0.9590   -1.9200   -1.4450 n         1 T4P     -0.250000
     10 C6         -0.2630   -2.0780   -0.6610 c         1 T4P      0.768500
     11 O6         -1.3520   -2.4600   -1.1030 o         1 T4P     -0.589500
     12 C9          1.9680   -1.6630   -0.4620 cc        1 T4P     -0.297600
     13 C4          3.3830   -1.4850   -0.6810 c         1 T4P      0.766700
     14 O4          3.9940   -1.4830   -1.7680 o         1 T4P     -0.659500
     15 N3          4.1410   -1.3210    0.5030 n         1 T4P     -0.593500
     16 C2          3.5790   -1.2490    1.7860 c         1 T4P      0.805500
     17 O2          4.3150   -1.0430    2.7800 o         1 T4P     -0.678500
     18 C8          1.4040   -1.6550    0.8390 cd        1 T4P      0.205200
     19 N1          2.1980   -1.5030    1.9730 n         1 T4P     -0.411100
     20 N7          0.0370   -1.9770    0.7710 n         1 T4P     -0.316000
     21 C10        -1.0250   -1.5570    1.6580 c3        1 T4P      0.022000
     22 C11        -0.6670   -0.6260    2.8300 c3        1 T4P      0.164100
     23 O19         0.1850    0.4170    2.4440 oh        1 T4P     -0.683800
     24 C12        -1.9800   -0.0870    3.4370 c3        1 T4P      0.067100
     25 O21        -2.6180   -1.0980    4.2060 oh        1 T4P     -0.624800
     26 C13        -1.7140    1.1620    4.3030 c3        1 T4P      0.083100
     27 O23        -2.3290    0.9760    5.5740 oh        1 T4P     -0.631800
     28 C14        -2.2030    2.4350    3.5980 c3        1 T4P      0.113400
     29 O26        -1.3040    3.4940    3.8360 oh        1 T4P     -0.659800
     30 H171       -1.1180    1.1700   -2.8830 h1        1 T4P      0.002200
     31 H172       -1.1250    0.2010   -1.3290 h1        1 T4P      0.002200
     32 H161        1.5340    0.7430   -1.4220 hc        1 T4P      0.043200
     33 H162        1.2060    1.0410   -3.1680 hc        1 T4P      0.043200
     34 H151        1.8100   -1.2190   -3.1850 h1        1 T4P      0.055700
     35 H152       -0.0280   -1.2940   -3.1630 h1        1 T4P      0.055700
     36 H3          5.1130   -1.1240    0.4280 hn        1 T4P      0.333500
     37 H1          1.7860   -1.0930    2.7930 hn        1 T4P      0.373500
     38 H101       -1.4770   -2.4980    2.0830 h1        1 T4P      0.107700
     39 H102       -1.7990   -1.0070    1.0210 h1        1 T4P      0.107700
     40 H11        -0.1090   -1.1990    3.6290 h1        1 T4P      0.003700
     41 H19        -0.3210    1.0090    1.8110 ho        1 T4P      0.517000
     42 H12        -2.6970    0.1520    2.5950 h1        1 T4P      0.149700
     43 H21        -2.1200   -1.1840    5.0280 ho        1 T4P      0.388000
     44 H13        -0.6170    1.2610    4.5370 h1        1 T4P      0.093700
     45 H23        -3.2800    0.9450    5.4180 ho        1 T4P      0.390000
     46 H141       -3.1960    2.7400    4.0260 h1        1 T4P      0.063200
     47 H142       -2.2900    2.2470    2.4830 h1        1 T4P      0.063200
     48 H26        -0.9000    3.7070    2.9690 ho        1 T4P      0.478000
@<TRIPOS>BOND
     1    1    2 1   
     2    2    3 1   
     3    2    4 1   
     4    2    5 1   
     5    5    6 1   
     6    6    7 1   
     7    6   30 1   
     8    6   31 1   
     9    7    8 1   
    10    7   32 1   
    11    7   33 1   
    12    8    9 1   
    13    8   34 1   
    14    8   35 1   
    15    9   10 1   
    16    9   12 1   
    17   10   11 2   
    18   10   20 1   
    19   12   13 1   
    20   12   18 2   
    21   13   14 2   
    22   13   15 1   
    23   15   16 1   
    24   15   36 1   
    25   16   17 2   
    26   16   19 1   
    27   18   19 1   
    28   18   20 1   
    29   19   37 1   
    30   20   21 1   
    31   21   22 1   
    32   21   38 1   
    33   21   39 1   
    34   22   23 1   
    35   22   24 1   
    36   22   40 1   
    37   23   41 1   
    38   24   25 1   
    39   24   26 1   
    40   24   42 1   
    41   25   43 1   
    42   26   27 1   
    43   26   28 1   
    44   26   44 1   
    45   27   45 1   
    46   28   29 1   
    47   28   46 1   
    48   28   47 1   
    49   29   48 1   
@<TRIPOS>SUBSTRUCTURE
     1 T4P         1 TEMP              0 ****  ****    0 ROOT
