@<TRIPOS>MOLECULE
T4P
   48    49     1     0     0
SMALL
bcc


@<TRIPOS>ATOM
      1 O33         5.5350    1.3420   -4.9580 o         1 T4P     -0.925500
      2 P           5.3520    2.7180   -4.3960 p5        1 T4P      1.341900
      3 O31         6.3640    3.2810   -3.4530 o         1 T4P     -0.925500
      4 O32         4.8570    3.6730   -5.4790 o         1 T4P     -0.925500
      5 O27         3.9580    2.5600   -3.3950 os        1 T4P     -0.565200
      6 C17         2.8260    2.0860   -4.0070 c3        1 T4P      0.237400
      7 C16         1.5970    2.8350   -3.4670 c3        1 T4P     -0.146400
      8 C15         0.2810    2.3960   -4.1030 c3        1 T4P      0.043000
      9 N5         -0.1120    3.0290   -5.3610 n         1 T4P     -0.252000
     10 C6          0.8000    2.7590   -6.4810 c         1 T4P      0.740500
     11 O6          0.9830    1.6500   -6.9880 o         1 T4P     -0.555500
     12 C9         -0.2060    4.4600   -5.3450 cc        1 T4P     -0.279600
     13 C4         -1.0500    5.2860   -4.5090 c         1 T4P      0.763700
     14 O4         -1.8330    4.9200   -3.6130 o         1 T4P     -0.647500
     15 N3         -0.9570    6.6740   -4.7790 n         1 T4P     -0.593500
     16 C2         -0.1000    7.2360   -5.7380 c         1 T4P      0.810500
     17 O2         -0.0630    8.4790   -5.9050 o         1 T4P     -0.684500
     18 C8          0.6310    5.0290   -6.3270 cd        1 T4P      0.162200
     19 N1          0.6870    6.3920   -6.5430 n         1 T4P     -0.422100
     20 N7          1.3090    4.0160   -7.0750 n         1 T4P     -0.295000
     21 C10         2.7640    4.1050   -7.1140 c3        1 T4P      0.001000
     22 C11         3.3930    4.7740   -8.3370 c3        1 T4P      0.130100
     23 O19         2.8700    6.0900   -8.4880 oh        1 T4P     -0.647800
     24 C12         4.9180    4.8050   -8.0520 c3        1 T4P      0.108100
     25 O21         5.4040    3.4840   -8.0600 oh        1 T4P     -0.695800
     26 C13         5.6700    5.6050   -9.1290 c3        1 T4P      0.085100
     27 O23         5.2520    5.2500  -10.4380 oh        1 T4P     -0.629800
     28 C14         7.1840    5.4260   -8.9830 c3        1 T4P      0.122400
     29 O26         7.6150    4.1990   -9.5330 oh        1 T4P     -0.637800
     30 H171        2.8890    2.2140   -5.1260 h1        1 T4P     -0.012300
     31 H172        2.6720    0.9870   -3.7850 h1        1 T4P     -0.012300
     32 H161        1.7570    3.9360   -3.5970 hc        1 T4P      0.044200
     33 H162        1.5290    2.6430   -2.3650 hc        1 T4P      0.044200
     34 H151       -0.5660    2.6080   -3.3890 h1        1 T4P      0.058700
     35 H152        0.3190    1.2890   -4.3130 h1        1 T4P      0.058700
     36 H3         -1.4720    7.3100   -4.2130 hn        1 T4P      0.336500
     37 H1          1.3650    6.7920   -7.1640 hn        1 T4P      0.389500
     38 H101        3.1640    4.6140   -6.1780 h1        1 T4P      0.149200
     39 H102        3.1840    3.0500   -7.0910 h1        1 T4P      0.149200
     40 H11         3.1910    4.1890   -9.2750 h1        1 T4P      0.037700
     41 H19         3.2740    6.4460   -9.2880 ho        1 T4P      0.404000
     42 H12         5.0950    5.2760   -7.0390 h1        1 T4P      0.118700
     43 H21         5.3610    3.1540   -7.1090 ho        1 T4P      0.519000
     44 H13         5.4080    6.6960   -9.0350 h1        1 T4P      0.050700
     45 H23         5.4790    4.3150  -10.5430 ho        1 T4P      0.421000
     46 H141        7.4660    5.4950   -7.8990 h1        1 T4P      0.041200
     47 H142        7.7260    6.2090   -9.5770 h1        1 T4P      0.041200
     48 H26         7.2350    3.4920   -8.9850 ho        1 T4P      0.445000
@<TRIPOS>BOND
     1    1    2 1   
     2    2    3 1   
     3    2    4 1   
     4    2    5 1   
     5    5    6 1   
     6    6    7 1   
     7    6   30 1   
     8    6   31 1   
     9    7    8 1   
    10    7   32 1   
    11    7   33 1   
    12    8    9 1   
    13    8   34 1   
    14    8   35 1   
    15    9   10 1   
    16    9   12 1   
    17   10   11 2   
    18   10   20 1   
    19   12   13 1   
    20   12   18 2   
    21   13   14 2   
    22   13   15 1   
    23   15   16 1   
    24   15   36 1   
    25   16   17 2   
    26   16   19 1   
    27   18   19 1   
    28   18   20 1   
    29   19   37 1   
    30   20   21 1   
    31   21   22 1   
    32   21   38 1   
    33   21   39 1   
    34   22   23 1   
    35   22   24 1   
    36   22   40 1   
    37   23   41 1   
    38   24   25 1   
    39   24   26 1   
    40   24   42 1   
    41   25   43 1   
    42   26   27 1   
    43   26   28 1   
    44   26   44 1   
    45   27   45 1   
    46   28   29 1   
    47   28   46 1   
    48   28   47 1   
    49   29   48 1   
@<TRIPOS>SUBSTRUCTURE
     1 T4P         1 TEMP              0 ****  ****    0 ROOT
