@<TRIPOS>MOLECULE
T4P
   48    49     1     0     0
SMALL
bcc


@<TRIPOS>ATOM
      1 O33         0.0000    0.0000    0.0000 o         1 T4P     -0.743500
      2 P           1.6090    0.0000    0.0000 p5        1 T4P      0.682900
      3 O31         2.1460    0.0000    1.5170 o         1 T4P     -0.743500
      4 O32         2.1030   -1.2090   -0.6970 o         1 T4P     -0.743500
      5 O27         2.1460    1.3140   -0.7590 os        1 T4P     -0.455200
      6 C17         1.6400    1.2560   -2.0950 c3        1 T4P      0.240400
      7 C16         2.1150    2.4830   -2.8750 c3        1 T4P     -0.072400
      8 C15         1.5730    2.4210   -4.3030 c3        1 T4P      0.021000
      9 N5          2.0290    3.5950   -5.0510 n         1 T4P      0.151000
     10 C6          3.1650    3.6890   -5.7700 c         1 T4P      0.543500
     11 O6          3.9900    2.8050   -5.9080 o         1 T4P     -0.715500
     12 C9          1.3650    4.8220   -5.1460 cc        1 T4P     -0.319600
     13 C4          0.1550    5.3150   -4.6190 c         1 T4P      0.633700
     14 O4         -0.5470    4.6060   -3.9190 o         1 T4P     -0.626500
     15 N3         -0.2230    6.5790   -4.9030 ns        1 T4P     -0.130500
     16 C2          0.5460    7.3650   -5.6740 c         1 T4P      0.580500
     17 O2          0.1860    8.5020   -5.9140 o         1 T4P     -0.758500
     18 C8          2.1340    5.6370   -5.9280 cd        1 T4P     -0.271800
     19 N1          1.7090    6.9200   -6.1880 ns        1 T4P      0.054900
     20 N7          3.2390    4.9200   -6.3100 n         1 T4P      0.078000
     21 C10         4.3240    5.4150   -7.1600 c3        1 T4P      0.032000
     22 C11         4.0010    5.1170   -8.6260 c3        1 T4P      0.145100
     23 O19         2.7810    5.7670   -8.9850 oh        1 T4P     -0.601800
     24 C12         5.1350    5.6330   -9.5140 c3        1 T4P      0.171100
     25 O21         6.3550    4.9830   -9.1540 oh        1 T4P     -0.554800
     26 C13         4.8120    5.3360  -10.9780 c3        1 T4P      0.166100
     27 O23         4.6710    3.9250  -11.1580 oh        1 T4P     -0.561800
     28 C14         5.9460    5.8510  -11.8670 c3        1 T4P      0.190400
     29 O26         5.6440    5.5740  -13.2350 oh        1 T4P     -0.596800
     30 H171        0.5570    1.2410   -2.0700 h1        1 T4P      0.001700
     31 H172        2.0020    0.3570   -2.5790 h1        1 T4P      0.001700
     32 H161        1.7530    3.3810   -2.3900 hc        1 T4P      0.011700
     33 H162        3.1980    2.4970   -2.9010 hc        1 T4P      0.011700
     34 H151        1.9340    1.5220   -4.7880 h1        1 T4P      0.047200
     35 H152        0.4900    2.4080   -4.2780 h1        1 T4P      0.047200
     36 H3         -1.0840    6.9340   -4.5360 hn        1 T4P      0.200500
     37 H1          2.2650    7.5240   -6.7600 hn        1 T4P      0.174500
     38 H101        4.4310    6.4840   -7.0250 h1        1 T4P      0.041200
     39 H102        5.2500    4.9230   -6.8880 h1        1 T4P      0.041200
     40 H11         3.8940    4.0470   -8.7620 h1        1 T4P      0.057700
     41 H19         2.1930    5.1400   -9.3730 ho        1 T4P      0.403000
     42 H12         5.2410    6.7030   -9.3780 h1        1 T4P      0.004700
     43 H21         6.9780    5.6260   -8.8560 ho        1 T4P      0.381000
     44 H13         3.8870    5.8290  -11.2510 h1        1 T4P      0.016700
     45 H23         4.0770    3.7570  -11.8710 ho        1 T4P      0.389000
     46 H141        6.0530    6.9210  -11.7310 h1        1 T4P     -0.004300
     47 H142        6.8710    5.3580  -11.5950 h1        1 T4P     -0.004300
     48 H26         6.2780    5.9970  -13.7890 ho        1 T4P      0.387000
@<TRIPOS>BOND
     1    1    2 1   
     2    2    3 1   
     3    2    4 1   
     4    2    5 1   
     5    5    6 1   
     6    6    7 1   
     7    6   30 1   
     8    6   31 1   
     9    7    8 1   
    10    7   32 1   
    11    7   33 1   
    12    8    9 1   
    13    8   34 1   
    14    8   35 1   
    15    9   10 1   
    16    9   12 1   
    17   10   11 2   
    18   10   20 1   
    19   12   13 1   
    20   12   18 2   
    21   13   14 2   
    22   13   15 1   
    23   15   16 1   
    24   15   36 1   
    25   16   17 2   
    26   16   19 1   
    27   18   19 1   
    28   18   20 1   
    29   19   37 1   
    30   20   21 1   
    31   21   22 1   
    32   21   38 1   
    33   21   39 1   
    34   22   23 1   
    35   22   24 1   
    36   22   40 1   
    37   23   41 1   
    38   24   25 1   
    39   24   26 1   
    40   24   42 1   
    41   25   43 1   
    42   26   27 1   
    43   26   28 1   
    44   26   44 1   
    45   27   45 1   
    46   28   29 1   
    47   28   46 1   
    48   28   47 1   
    49   29   48 1   
@<TRIPOS>SUBSTRUCTURE
     1 T4P         1 TEMP              0 ****  ****    0 ROOT
