@<TRIPOS>MOLECULE
T4S
   34    34     1     0     0
SMALL
bcc


@<TRIPOS>ATOM
      1 OP3        -2.5060    4.1980   -0.2180 o         1 T4S     -0.925500
      2 P          -1.0180    3.9340   -0.3100 p5        1 T4S      1.576500
      3 OP1        -0.4360    3.8610    1.0760 o         1 T4S     -0.925500
      4 OP2        -0.3530    5.0550   -1.0780 o         1 T4S     -0.925500
      5 O5'        -0.7710    2.5650   -1.0580 os        1 T4S     -0.730000
      6 N1          0.3670   -1.3370    0.0050 n         1 T4S     -0.247000
      7 C6          1.6110   -0.8620   -0.4680 c2        1 T4S      0.078000
      8 C2          0.2210   -1.7360    1.4130 c2        1 T4S      0.328000
      9 O2         -0.8080   -2.2750    1.7900 o         1 T4S     -0.414000
     10 N3          1.3210   -1.5250    2.3520 n2        1 T4S     -0.307000
     11 C4          2.5650   -1.0480    1.8870 c1        1 T4S     -0.033000
     12 SE          4.0380   -0.8580    3.1060 sh        1 T4S      0.121000
     13 C5          2.7490   -0.7470    0.4540 c1        1 T4S     -0.255000
     14 C5A         4.1340   -0.4530   -0.0890 c3        1 T4S     -0.183000
     15 C2'        -2.0600   -1.5470   -0.2180 c3        1 T4S     -0.198000
     16 C5'        -1.0880    1.3550   -0.3810 c3        1 T4S      0.073000
     17 C4'        -1.7740    0.4120   -1.3370 c3        1 T4S     -0.050000
     18 O4'        -0.7360   -0.7040   -1.8580 os        1 T4S     -0.295000
     19 C1'        -0.6890   -1.6210   -0.9260 c3        1 T4S      0.141000
     20 C3'        -2.7230   -0.2290   -0.7280 c3        1 T4S     -0.003000
     21 O3'        -3.8120   -0.5390   -1.6680 oh        1 T4S     -0.380000
     22 H6          1.7320   -0.6760   -1.4200 h4        1 T4S      0.304000
     23 HSE         3.6060   -1.0170    4.3530 hs        1 T4S      0.009000
     24 H5A1        4.4800    0.3610    0.3260 hc        1 T4S      0.101667
     25 H5A2        4.7310   -1.2020    0.1160 hc        1 T4S      0.101667
     26 H5A3        4.0840   -0.3290   -1.0640 hc        1 T4S      0.101667
     27 H2'        -1.9370   -1.5090    0.7530 hc        1 T4S      0.091000
     28 H2''       -2.6100   -2.3200   -0.4610 hc        1 T4S      0.091000
     29 H5'        -0.2710    0.9440   -0.0500 h1        1 T4S      0.037000
     30 H5''       -1.6860    1.5500    0.3730 h1        1 T4S      0.037000
     31 H4'        -2.1420    0.9150   -2.1020 h1        1 T4S      0.086000
     32 H1'        -0.5620   -2.5050   -1.3260 h2        1 T4S      0.133000
     33 H3'        -3.0620    0.2960    0.0240 h1        1 T4S      0.186000
     34 HO3'       -4.5950   -0.4070   -1.2680 ho        1 T4S      0.277000
@<TRIPOS>BOND
     1    1    2 1   
     2    2    3 1   
     3    2    4 1   
     4    2    5 1   
     5    5   16 1   
     6    6    7 1   
     7    6    8 1   
     8    6   19 1   
     9    7   13 1   
    10    7   22 1   
    11    8    9 1   
    12    8   10 1   
    13   10   11 1   
    14   11   12 1   
    15   12   23 1   
    16   13   14 1   
    17   14   24 1   
    18   14   25 1   
    19   14   26 1   
    20   15   19 1   
    21   15   20 1   
    22   15   27 1   
    23   15   28 1   
    24   16   17 1   
    25   16   29 1   
    26   16   30 1   
    27   17   18 1   
    28   17   20 1   
    29   17   31 1   
    30   18   19 1   
    31   19   32 1   
    32   20   21 1   
    33   20   33 1   
    34   21   34 1   
@<TRIPOS>SUBSTRUCTURE
     1 T4S         1 TEMP              0 ****  ****    0 ROOT
