@<TRIPOS>MOLECULE
T4S
   34    35     1     0     0
SMALL
bcc


@<TRIPOS>ATOM
      1 OP3         3.2090   12.5360    4.3380 o         1 T4S     -0.918833
      2 P           4.6490   12.8720    4.5380 p5        1 T4S      1.327900
      3 OP1         5.3490   13.6630    3.4580 o         1 T4S     -0.918833
      4 OP2         5.5540   11.8560    5.2040 o         1 T4S     -0.918833
      5 O5'         4.7130   13.9790    5.8670 os        1 T4S     -0.576200
      6 N1          7.7520   13.6060    8.1890 n         1 T4S     -0.350000
      7 C6          6.8530   12.6660    7.7690 cc        1 T4S      0.113600
      8 C2          8.3970   13.4480    9.4670 c         1 T4S      0.803900
      9 O2          9.2590   14.2910    9.8250 o         1 T4S     -0.696500
     10 N3          8.0740   12.3580   10.2880 nc        1 T4S     -0.705100
     11 C4          7.1990   11.4610    9.8370 cd        1 T4S      0.579500
     12 SE          6.8600   10.1550   10.9360 sh        1 T4S     -0.325000
     13 C5          6.5730   11.5410    8.5600 cd        1 T4S     -0.379800
     14 C5A         5.6650   10.5100    8.0230 c3        1 T4S     -0.072900
     15 C2'         8.6780   14.5330    6.0230 c3        1 T4S     -0.115400
     16 C5'         5.0360   15.2790    5.5940 c3        1 T4S      0.223400
     17 C4'         6.5230   15.6220    5.8010 c3        1 T4S      0.068100
     18 O4'         6.8750   15.6000    7.2000 os        1 T4S     -0.425600
     19 C1'         8.0550   14.8170    7.4100 c3        1 T4S      0.289500
     20 C3'         7.4880   14.6620    5.0750 c3        1 T4S      0.109100
     21 O3'         7.8640   15.1680    3.8140 oh        1 T4S     -0.650800
     22 H6          6.3110   12.7770    6.7530 h4        1 T4S      0.315000
     23 HSE         5.8940    9.5560   10.2570 hs        1 T4S      0.210800
     24 H5A1        4.6990   10.4910    8.5870 hc        1 T4S      0.059367
     25 H5A2        5.4350   10.7290    6.9350 hc        1 T4S      0.059367
     26 H5A3        6.1350    9.4960    8.0810 hc        1 T4S      0.059367
     27 H2'         9.1450   13.5240    5.9530 hc        1 T4S      0.050700
     28 H2''        9.4550   15.3030    5.8060 hc        1 T4S      0.050700
     29 H5'         4.8070   15.5310    4.5170 h1        1 T4S      0.004700
     30 H5''        4.4460   15.9560    6.2790 h1        1 T4S      0.004700
     31 H4'         6.7050   16.6810    5.4650 h1        1 T4S      0.019700
     32 H1'         8.7320   15.4590    8.0480 h2        1 T4S      0.090700
     33 H3'         6.9780   13.6530    4.9400 h1        1 T4S      0.142700
     34 HO3'        7.1560   14.8500    3.2170 ho        1 T4S      0.470000
@<TRIPOS>BOND
     1    1    2 1   
     2    2    3 1   
     3    2    4 1   
     4    2    5 1   
     5    5   16 1   
     6    6    7 1   
     7    6    8 1   
     8    6   19 1   
     9    7   13 2   
    10    7   22 1   
    11    8    9 2   
    12    8   10 1   
    13   10   11 2   
    14   11   12 1   
    15   11   13 1   
    16   12   23 1   
    17   13   14 1   
    18   14   24 1   
    19   14   25 1   
    20   14   26 1   
    21   15   19 1   
    22   15   20 1   
    23   15   27 1   
    24   15   28 1   
    25   16   17 1   
    26   16   29 1   
    27   16   30 1   
    28   17   18 1   
    29   17   20 1   
    30   17   31 1   
    31   18   19 1   
    32   19   32 1   
    33   20   21 1   
    34   20   33 1   
    35   21   34 1   
@<TRIPOS>SUBSTRUCTURE
     1 T4S         1 TEMP              0 ****  ****    0 ROOT
