@<TRIPOS>MOLECULE
T50
   41    44     1     0     0
SMALL
bcc


@<TRIPOS>ATOM
      1 N1          0.4340    0.1400   -0.4940 na        1 T50     -0.154300
      2 C2         -0.1650    1.3810   -0.1360 cc        1 T50      0.464400
      3 N3          0.7240    2.2660    0.3630 nd        1 T50     -0.537100
      4 C4          3.2460    2.0500    0.7350 ca        1 T50     -0.008300
      5 C5          4.3090    1.1680    0.5750 ca        1 T50     -0.159000
      6 C6          4.1350   -0.1200    0.0400 ca        1 T50     -0.106000
      7 C7          2.8930   -0.5890   -0.3560 ca        1 T50     -0.138000
      8 C8          1.7990    0.2730   -0.2020 ca        1 T50     -0.056200
      9 C9          1.9670    1.6090    0.3410 ca        1 T50      0.059400
     10 C17        -1.5900    1.6700   -0.3160 ca        1 T50     -0.183900
     11 C18        -2.1890    1.6500   -1.5950 ca        1 T50      0.184400
     12 C4A         3.4300    3.4070    1.2930 c3        1 T50     -0.050800
     13 C19        -3.5450    1.9870   -1.7600 ca        1 T50     -0.189500
     14 C20        -4.3030    2.3500   -0.6510 ca        1 T50     -0.068000
     15 C21        -3.7400    2.3820    0.6190 ca        1 T50     -0.189500
     16 C22        -2.3820    2.0450    0.7920 ca        1 T50      0.184400
     17 F1         -1.4610    1.3050   -2.6830 f         1 T50     -0.120400
     18 F2         -1.8530    2.0770    2.0330 f         1 T50     -0.120400
     19 C10        -0.2140   -1.0120   -1.0480 c3        1 T50      0.102600
     20 C11        -0.1250   -2.2630   -0.2200 ca        1 T50     -0.186300
     21 C12         0.6500   -3.3610   -0.6480 ca        1 T50      0.168400
     22 C13         0.7080   -4.5470    0.1080 ca        1 T50     -0.181500
     23 C14        -0.0050   -4.6380    1.2990 ca        1 T50     -0.071000
     24 C15        -0.7820   -3.5750    1.7450 ca        1 T50     -0.181500
     25 C16        -0.8460   -2.3920    0.9850 ca        1 T50      0.168400
     26 F3          1.3490   -3.2910   -1.8070 f         1 T50     -0.130400
     27 F4         -1.6230   -1.3750    1.4210 f         1 T50     -0.130400
     28 H5          5.3200    1.4840    0.8740 ha        1 T50      0.132000
     29 H6          5.0150   -0.7730   -0.0670 ha        1 T50      0.131000
     30 H7          2.7640   -1.5960   -0.7780 ha        1 T50      0.139000
     31 H4A1        2.8080    3.5310    2.2150 hc        1 T50      0.050033
     32 H4A2        4.5000    3.5960    1.5540 hc        1 T50      0.050033
     33 H4A3        3.1020    4.1770    0.5500 hc        1 T50      0.050033
     34 H19        -3.9870    1.9660   -2.7660 ha        1 T50      0.157500
     35 H20        -5.3640    2.6180   -0.7830 ha        1 T50      0.146000
     36 H21        -4.3370    2.6710    1.4960 ha        1 T50      0.157500
     37 H101       -1.3070   -0.7590   -1.1890 h1        1 T50      0.078700
     38 H102        0.2370   -1.2130   -2.0660 h1        1 T50      0.078700
     39 H13         1.3200   -5.3870   -0.2510 ha        1 T50      0.156500
     40 H14         0.0470   -5.5630    1.8950 ha        1 T50      0.147000
     41 H15        -1.3490   -3.6440    2.6850 ha        1 T50      0.156500
@<TRIPOS>BOND
     1    1    2 1   
     2    1    8 1   
     3    1   19 1   
     4    2    3 2   
     5    2   10 1   
     6    3    9 1   
     7    4    5 ar  
     8    4    9 ar  
     9    4   12 1   
    10    5    6 ar  
    11    5   28 1   
    12    6    7 ar  
    13    6   29 1   
    14    7    8 ar  
    15    7   30 1   
    16    8    9 ar  
    17   10   11 ar  
    18   10   16 ar  
    19   11   13 ar  
    20   11   17 1   
    21   12   31 1   
    22   12   32 1   
    23   12   33 1   
    24   13   14 ar  
    25   13   34 1   
    26   14   15 ar  
    27   14   35 1   
    28   15   16 ar  
    29   15   36 1   
    30   16   18 1   
    31   19   20 1   
    32   19   37 1   
    33   19   38 1   
    34   20   21 ar  
    35   20   25 ar  
    36   21   22 ar  
    37   21   26 1   
    38   22   23 ar  
    39   22   39 1   
    40   23   24 ar  
    41   23   40 1   
    42   24   25 ar  
    43   24   41 1   
    44   25   27 1   
@<TRIPOS>SUBSTRUCTURE
     1 T50         1 TEMP              0 ****  ****    0 ROOT
