@<TRIPOS>MOLECULE
T50
   41    44     1     0     0
SMALL
bcc


@<TRIPOS>ATOM
      1 N1          0.1690    0.1810   -0.1370 na        1 T50     -0.154300
      2 C2          1.5710   -0.0560   -0.0820 cc        1 T50      0.464400
      3 N3          2.0420   -0.1170    1.1830 nd        1 T50     -0.537100
      4 C4          0.8200    0.1090    3.4180 ca        1 T50     -0.008300
      5 C5         -0.4420    0.3100    3.9650 ca        1 T50     -0.159000
      6 C6         -1.5850    0.4780    3.1630 ca        1 T50     -0.106000
      7 C7         -1.5190    0.4570    1.7800 ca        1 T50     -0.138000
      8 C8         -0.2600    0.2640    1.1960 ca        1 T50     -0.056200
      9 C9          0.9250    0.0800    2.0140 ca        1 T50      0.059400
     10 C17         2.4060   -0.2390   -1.2720 ca        1 T50     -0.183900
     11 C18         2.1730   -1.2980   -2.1780 ca        1 T50      0.184400
     12 C4A         2.0200   -0.0720    4.2630 c3        1 T50     -0.050800
     13 C19         3.0180   -1.4950   -3.2850 ca        1 T50     -0.189500
     14 C20         4.0990   -0.6420   -3.4870 ca        1 T50     -0.068000
     15 C21         4.3540    0.4060   -2.6110 ca        1 T50     -0.189500
     16 C22         3.5110    0.6110   -1.5000 ca        1 T50      0.184400
     17 F1          1.1300   -2.1390   -1.9900 f         1 T50     -0.120400
     18 F2          3.7710    1.6360   -0.6610 f         1 T50     -0.120400
     19 C10        -0.6480    0.3050   -1.3070 c3        1 T50      0.102600
     20 C11        -1.3520    1.6220   -1.4670 ca        1 T50     -0.186300
     21 C12        -2.7540    1.7160   -1.3340 ca        1 T50      0.168400
     22 C13        -3.4190    2.9430   -1.5170 ca        1 T50     -0.181500
     23 C14        -2.6870    4.0830   -1.8290 ca        1 T50     -0.071000
     24 C15        -1.3050    4.0220   -1.9740 ca        1 T50     -0.181500
     25 C16        -0.6400    2.7940   -1.7970 ca        1 T50      0.168400
     26 F3         -3.4830    0.6150   -1.0320 f         1 T50     -0.130400
     27 F4          0.7020    2.7460   -1.9610 f         1 T50     -0.130400
     28 H5         -0.5560    0.3380    5.0600 ha        1 T50      0.132000
     29 H6         -2.5590    0.6280    3.6540 ha        1 T50      0.131000
     30 H7         -2.4170    0.5850    1.1580 ha        1 T50      0.139000
     31 H4A1        1.7640   -0.0210    5.3490 hc        1 T50      0.050033
     32 H4A2        2.4930   -1.0650    4.0520 hc        1 T50      0.050033
     33 H4A3        2.7740    0.7230    4.0350 hc        1 T50      0.050033
     34 H19         2.8180   -2.3280   -3.9740 ha        1 T50      0.157500
     35 H20         4.7620   -0.8010   -4.3520 ha        1 T50      0.146000
     36 H21         5.2080    1.0800   -2.7670 ha        1 T50      0.157500
     37 H101        0.0150    0.1460   -2.2090 h1        1 T50      0.078700
     38 H102       -1.4200   -0.5220   -1.2850 h1        1 T50      0.078700
     39 H13        -4.5130    2.9850   -1.4070 ha        1 T50      0.156500
     40 H14        -3.2070    5.0440   -1.9650 ha        1 T50      0.147000
     41 H15        -0.7220    4.9210   -2.2230 ha        1 T50      0.156500
@<TRIPOS>BOND
     1    1    2 1   
     2    1    8 1   
     3    1   19 1   
     4    2    3 2   
     5    2   10 1   
     6    3    9 1   
     7    4    5 ar  
     8    4    9 ar  
     9    4   12 1   
    10    5    6 ar  
    11    5   28 1   
    12    6    7 ar  
    13    6   29 1   
    14    7    8 ar  
    15    7   30 1   
    16    8    9 ar  
    17   10   11 ar  
    18   10   16 ar  
    19   11   13 ar  
    20   11   17 1   
    21   12   31 1   
    22   12   32 1   
    23   12   33 1   
    24   13   14 ar  
    25   13   34 1   
    26   14   15 ar  
    27   14   35 1   
    28   15   16 ar  
    29   15   36 1   
    30   16   18 1   
    31   19   20 1   
    32   19   37 1   
    33   19   38 1   
    34   20   21 ar  
    35   20   25 ar  
    36   21   22 ar  
    37   21   26 1   
    38   22   23 ar  
    39   22   39 1   
    40   23   24 ar  
    41   23   40 1   
    42   24   25 ar  
    43   24   41 1   
    44   25   27 1   
@<TRIPOS>SUBSTRUCTURE
     1 T50         1 TEMP              0 ****  ****    0 ROOT
