@<TRIPOS>MOLECULE
T50
   41    44     1     0     0
SMALL
bcc


@<TRIPOS>ATOM
      1 N1          0.1680    0.1810   -0.1470 na        1 T50     -0.154300
      2 C2          1.5700   -0.0580   -0.0760 cc        1 T50      0.464400
      3 N3          2.0240   -0.1340    1.1940 nd        1 T50     -0.537100
      4 C4          0.7730    0.0670    3.4150 ca        1 T50     -0.008300
      5 C5         -0.4970    0.2620    3.9480 ca        1 T50     -0.159000
      6 C6         -1.6290    0.4400    3.1330 ca        1 T50     -0.106000
      7 C7         -1.5450    0.4350    1.7500 ca        1 T50     -0.138000
      8 C8         -0.2780    0.2480    1.1810 ca        1 T50     -0.056200
      9 C9          0.8960    0.0550    2.0120 ca        1 T50      0.059400
     10 C17         2.4200   -0.2270   -1.2580 ca        1 T50     -0.183900
     11 C18         2.1990   -1.2750   -2.1780 ca        1 T50      0.184400
     12 C4A         1.9610   -0.1240    4.2730 c3        1 T50     -0.050800
     13 C19         3.0590   -1.4600   -3.2760 ca        1 T50     -0.189500
     14 C20         4.1420   -0.6050   -3.4540 ca        1 T50     -0.068000
     15 C21         4.3850    0.4330   -2.5620 ca        1 T50     -0.189500
     16 C22         3.5290    0.6250   -1.4600 ca        1 T50      0.184400
     17 F1          1.1530   -2.1180   -2.0130 f         1 T50     -0.120400
     18 F2          3.7770    1.6410   -0.6060 f         1 T50     -0.120400
     19 C10        -0.6330    0.3180   -1.3260 c3        1 T50      0.102600
     20 C11        -1.3350    1.6380   -1.4800 ca        1 T50     -0.186300
     21 C12        -2.7380    1.7310   -1.3650 ca        1 T50      0.168400
     22 C13        -3.4010    2.9590   -1.5420 ca        1 T50     -0.181500
     23 C14        -2.6630    4.1030   -1.8310 ca        1 T50     -0.071000
     24 C15        -1.2800    4.0440   -1.9580 ca        1 T50     -0.181500
     25 C16        -0.6180    2.8130   -1.7870 ca        1 T50      0.168400
     26 F3         -3.4720    0.6270   -1.0850 f         1 T50     -0.130400
     27 F4          0.7260    2.7670   -1.9340 f         1 T50     -0.130400
     28 H5         -0.6250    0.2770    5.0410 ha        1 T50      0.132000
     29 H6         -2.6090    0.5840    3.6120 ha        1 T50      0.131000
     30 H7         -2.4340    0.5700    1.1180 ha        1 T50      0.139000
     31 H4A1        1.6900   -0.0850    5.3570 hc        1 T50      0.050033
     32 H4A2        2.4360   -1.1150    4.0590 hc        1 T50      0.050033
     33 H4A3        2.7190    0.6730    4.0640 hc        1 T50      0.050033
     34 H19         2.8670   -2.2850   -3.9780 ha        1 T50      0.157500
     35 H20         4.8160   -0.7550   -4.3120 ha        1 T50      0.146000
     36 H21         5.2420    1.1080   -2.7000 ha        1 T50      0.157500
     37 H101        0.0410    0.1700   -2.2210 h1        1 T50      0.078700
     38 H102       -1.4050   -0.5090   -1.3250 h1        1 T50      0.078700
     39 H13        -4.4950    3.0010   -1.4460 ha        1 T50      0.156500
     40 H14        -3.1820    5.0660   -1.9620 ha        1 T50      0.147000
     41 H15        -0.6930    4.9450   -2.1880 ha        1 T50      0.156500
@<TRIPOS>BOND
     1    1    2 1   
     2    1    8 1   
     3    1   19 1   
     4    2    3 2   
     5    2   10 1   
     6    3    9 1   
     7    4    5 ar  
     8    4    9 ar  
     9    4   12 1   
    10    5    6 ar  
    11    5   28 1   
    12    6    7 ar  
    13    6   29 1   
    14    7    8 ar  
    15    7   30 1   
    16    8    9 ar  
    17   10   11 ar  
    18   10   16 ar  
    19   11   13 ar  
    20   11   17 1   
    21   12   31 1   
    22   12   32 1   
    23   12   33 1   
    24   13   14 ar  
    25   13   34 1   
    26   14   15 ar  
    27   14   35 1   
    28   15   16 ar  
    29   15   36 1   
    30   16   18 1   
    31   19   20 1   
    32   19   37 1   
    33   19   38 1   
    34   20   21 ar  
    35   20   25 ar  
    36   21   22 ar  
    37   21   26 1   
    38   22   23 ar  
    39   22   39 1   
    40   23   24 ar  
    41   23   40 1   
    42   24   25 ar  
    43   24   41 1   
    44   25   27 1   
@<TRIPOS>SUBSTRUCTURE
     1 T50         1 TEMP              0 ****  ****    0 ROOT
