@<TRIPOS>MOLECULE
T55
   31    30     1     0     0
SMALL
bcc


@<TRIPOS>ATOM
      1 CAD        -0.0240   -0.0890   -0.1620 c3        1 T55     -0.088100
      2 CAE         1.4780   -0.0510    0.0310 c3        1 T55     -0.068700
      3 CAG         1.8480   -0.0380    1.5070 c3        1 T55     -0.075400
      4 CAH         1.6110    1.3100    2.1520 c3        1 T55     -0.079400
      5 CAI         2.0160    1.3010    3.6110 c3        1 T55     -0.079400
      6 CAJ         1.7790    2.6470    4.2620 c3        1 T55     -0.078400
      7 CAK         2.1920    2.6390    5.7190 c3        1 T55     -0.065400
      8 CAL         1.9430    3.9720    6.3820 c3        1 T55     -0.193400
      9 CAF         2.1210   -1.2370   -0.6600 c3        1 T55     -0.088100
     10 C           2.5350    4.0100    7.8020 c         1 T55      0.907600
     11 O           3.7150    3.5870    7.9760 o         1 T55     -0.853800
     12 OXT         1.8150    4.4850    8.7270 o         1 T55     -0.853800
     13 HAL1        2.4240    4.7900    5.7880 hc        1 T55      0.018700
     14 HAL2        0.8460    4.1830    6.4320 hc        1 T55      0.018700
     15 HAK1        3.2840    2.3920    5.8100 hc        1 T55      0.043700
     16 HAK2        1.6260    1.8400    6.2640 hc        1 T55      0.043700
     17 HAJ1        2.3580    3.4360    3.7120 hc        1 T55      0.025700
     18 HAJ2        0.6940    2.9180    4.1790 hc        1 T55      0.025700
     19 HAI1        3.1010    1.0300    3.7000 hc        1 T55      0.036700
     20 HAI2        1.4340    0.5130    4.1570 hc        1 T55      0.036700
     21 HAH1        2.1970    2.0970    1.6070 hc        1 T55      0.034700
     22 HAH2        0.5280    1.5880    2.0670 hc        1 T55      0.034700
     23 HAG1        2.9330   -0.3080    1.6150 hc        1 T55      0.038200
     24 HAG2        1.2570   -0.8230    2.0470 hc        1 T55      0.038200
     25 HAE         1.8730    0.8920   -0.4430 hc        1 T55      0.044700
     26 HAD1       -0.4550   -1.0130    0.2920 hc        1 T55      0.029200
     27 HAD2       -0.2760   -0.0790   -1.2490 hc        1 T55      0.029200
     28 HAD3       -0.5020    0.7970    0.3220 hc        1 T55      0.029200
     29 HAF1        1.7860   -2.1920   -0.1880 hc        1 T55      0.029200
     30 HAF2        3.2330   -1.1760   -0.5850 hc        1 T55      0.029200
     31 HAF3        1.8390   -1.2580   -1.7400 hc        1 T55      0.029200
@<TRIPOS>BOND
     1    1    2 1   
     2    1   26 1   
     3    1   27 1   
     4    1   28 1   
     5    2    3 1   
     6    2    9 1   
     7    2   25 1   
     8    3    4 1   
     9    3   23 1   
    10    3   24 1   
    11    4    5 1   
    12    4   21 1   
    13    4   22 1   
    14    5    6 1   
    15    5   19 1   
    16    5   20 1   
    17    6    7 1   
    18    6   17 1   
    19    6   18 1   
    20    7    8 1   
    21    7   15 1   
    22    7   16 1   
    23    8   10 1   
    24    8   13 1   
    25    8   14 1   
    26    9   29 1   
    27    9   30 1   
    28    9   31 1   
    29   10   11 1   
    30   10   12 1   
@<TRIPOS>SUBSTRUCTURE
     1 T55         1 TEMP              0 ****  ****    0 ROOT
