@<TRIPOS>MOLECULE
T55
   31    30     1     0     0
SMALL
bcc


@<TRIPOS>ATOM
      1 CAD        -4.7590    1.1710    0.8630 c3        1 T55     -0.088100
      2 CAE        -4.4350    0.1590   -0.2160 c3        1 T55     -0.068700
      3 CAG        -3.1110   -0.5410    0.0570 c3        1 T55     -0.075400
      4 CAH        -1.9180    0.3410   -0.2410 c3        1 T55     -0.079400
      5 CAI        -0.6170   -0.3910    0.0130 c3        1 T55     -0.079400
      6 CAJ         0.5810    0.4860   -0.2830 c3        1 T55     -0.078400
      7 CAK         1.8820   -0.2440   -0.0210 c3        1 T55     -0.065400
      8 CAL         3.0830    0.6160   -0.3310 c3        1 T55     -0.193400
      9 CAF        -5.5520   -0.8580   -0.3290 c3        1 T55     -0.088100
     10 C           4.3890   -0.0650    0.1150 c         1 T55      0.907600
     11 O           4.4390   -0.5800    1.2700 o         1 T55     -0.853800
     12 OXT         5.3610   -0.0580   -0.6940 o         1 T55     -0.853800
     13 HAL1        3.1330    0.8340   -1.4270 hc        1 T55      0.018700
     14 HAL2        3.0040    1.5920    0.2110 hc        1 T55      0.018700
     15 HAK1        1.9360   -0.5630    1.0540 hc        1 T55      0.043700
     16 HAK2        1.9200   -1.1760   -0.6430 hc        1 T55      0.043700
     17 HAJ1        0.5460    0.8200   -1.3530 hc        1 T55      0.025700
     18 HAJ2        0.5350    1.4090    0.3520 hc        1 T55      0.025700
     19 HAI1       -0.5770   -0.7290    1.0820 hc        1 T55      0.036700
     20 HAI2       -0.5730   -1.3130   -0.6260 hc        1 T55      0.036700
     21 HAH1       -1.9550    0.6780   -1.3110 hc        1 T55      0.034700
     22 HAH2       -1.9570    1.2630    0.3960 hc        1 T55      0.034700
     23 HAG1       -3.0780   -0.8700    1.1290 hc        1 T55      0.037700
     24 HAG2       -3.0480   -1.4660   -0.5750 hc        1 T55      0.037700
     25 HAE        -4.3520    0.7040   -1.2000 hc        1 T55      0.044700
     26 HAD1       -5.7230    1.6860    0.6350 hc        1 T55      0.029533
     27 HAD2       -4.8530    0.6680    1.8560 hc        1 T55      0.029533
     28 HAD3       -3.9530    1.9400    0.9320 hc        1 T55      0.029533
     29 HAF1       -6.5270   -0.3470   -0.5150 hc        1 T55      0.029533
     30 HAF2       -5.3550   -1.5630   -1.1720 hc        1 T55      0.029533
     31 HAF3       -5.6370   -1.4500    0.6140 hc        1 T55      0.029533
@<TRIPOS>BOND
     1    1    2 1   
     2    1   26 1   
     3    1   27 1   
     4    1   28 1   
     5    2    3 1   
     6    2    9 1   
     7    2   25 1   
     8    3    4 1   
     9    3   23 1   
    10    3   24 1   
    11    4    5 1   
    12    4   21 1   
    13    4   22 1   
    14    5    6 1   
    15    5   19 1   
    16    5   20 1   
    17    6    7 1   
    18    6   17 1   
    19    6   18 1   
    20    7    8 1   
    21    7   15 1   
    22    7   16 1   
    23    8   10 1   
    24    8   13 1   
    25    8   14 1   
    26    9   29 1   
    27    9   30 1   
    28    9   31 1   
    29   10   11 1   
    30   10   12 1   
@<TRIPOS>SUBSTRUCTURE
     1 T55         1 TEMP              0 ****  ****    0 ROOT
