@<TRIPOS>MOLECULE
T55
   31    29     1     0     0
SMALL
bcc


@<TRIPOS>ATOM
      1 CAD        -3.1210    1.2890   -2.4080 c3        1 T55     -0.206000
      2 CAE        -1.6080    1.2890   -2.4080 c3        1 T55     -0.108000
      3 CAG        -1.1040    1.2890   -0.9820 c3        1 T55     -0.154000
      4 CAH        -0.2570    0.0570   -0.7460 c3        1 T55     -0.158000
      5 CAI         0.2260    0.0440    0.6880 c3        1 T55     -0.158000
      6 CAJ         1.0780   -1.1840    0.9210 c3        1 T55     -0.157000
      7 CAK         1.5250   -1.2200    2.3660 c3        1 T55     -0.144000
      8 CAL         2.4060   -2.4290    2.5910 c3        1 T55     -0.222000
      9 CAF        -1.1040    2.5240   -3.1210 c3        1 T55     -0.206000
     10 C           2.8070   -2.4970    4.0490 c1        1 T55      0.327000
     11 O           2.0990   -3.1400    4.8670 o         1 T55     -0.587000
     12 OXT         3.8480   -1.9090    4.4430 os        1 T55     -0.590000
     13 HAL1        1.9160   -3.2380    2.3510 hc        1 T55      0.058000
     14 HAL2        3.2060   -2.3570    2.0370 hc        1 T55      0.058000
     15 HAK1        0.7430   -1.2750    2.9480 hc        1 T55      0.083000
     16 HAK2        2.0270   -0.4090    2.5720 hc        1 T55      0.083000
     17 HAJ1        0.5560   -1.9850    0.7220 hc        1 T55      0.065000
     18 HAJ2        1.8600   -1.1530    0.3390 hc        1 T55      0.065000
     19 HAI1        0.7560    0.8450    0.8600 hc        1 T55      0.076000
     20 HAI2       -0.5430    0.0260    1.2900 hc        1 T55      0.076000
     21 HAH1       -0.7910   -0.7420   -0.9170 hc        1 T55      0.074000
     22 HAH2        0.5110    0.0700   -1.3480 hc        1 T55      0.074000
     23 HAG1       -1.8630    1.2840   -0.3680 hc        1 T55      0.077000
     24 HAG2       -0.5650    2.0880   -0.8270 hc        1 T55      0.077000
     25 HAE        -1.2830    0.4930   -2.8700 hc        1 T55      0.084000
     26 HAD1       -3.4460    1.2910   -3.3280 hc        1 T55      0.068833
     27 HAD2       -3.4460    2.0850   -1.9460 hc        1 T55      0.068833
     28 HAD3       -3.4460    0.4910   -1.9490 hc        1 T55      0.068833
     29 HAF1       -1.4280    3.3210   -2.6610 hc        1 T55      0.068833
     30 HAF2       -0.1270    2.5240   -3.1220 hc        1 T55      0.068833
     31 HAF3       -1.4300    2.5250   -4.0410 hc        1 T55      0.068833
@<TRIPOS>BOND
     1    1    2 1   
     2    1   26 1   
     3    1   27 1   
     4    1   28 1   
     5    2    3 1   
     6    2    9 1   
     7    2   25 1   
     8    3    4 1   
     9    3   23 1   
    10    3   24 1   
    11    4    5 1   
    12    4   21 1   
    13    4   22 1   
    14    5    6 1   
    15    5   19 1   
    16    5   20 1   
    17    6    7 1   
    18    6   17 1   
    19    6   18 1   
    20    7    8 1   
    21    7   15 1   
    22    7   16 1   
    23    8   10 1   
    24    8   13 1   
    25    8   14 1   
    26    9   29 1   
    27    9   30 1   
    28    9   31 1   
    29   10   11 1   
@<TRIPOS>SUBSTRUCTURE
     1 T55         1 TEMP              0 ****  ****    0 ROOT
