@<TRIPOS>MOLECULE
T55
   31    30     1     0     0
SMALL
bcc


@<TRIPOS>ATOM
      1 CAD        -0.0560   -0.2410   -0.0510 c3        1 T55     -0.088100
      2 CAE         1.4420   -0.0280    0.0210 c3        1 T55     -0.068700
      3 CAG         1.9280    0.0160    1.4630 c3        1 T55     -0.075400
      4 CAH         1.5870    1.3210    2.1500 c3        1 T55     -0.079400
      5 CAI         2.1080    1.3460    3.5710 c3        1 T55     -0.079400
      6 CAJ         1.7690    2.6490    4.2640 c3        1 T55     -0.078400
      7 CAK         2.2820    2.6700    5.6890 c3        1 T55     -0.065400
      8 CAL         1.9660    3.9720    6.3820 c3        1 T55     -0.193400
      9 CAF         2.1610   -1.1220   -0.7420 c3        1 T55     -0.088100
     10 C           2.3230    3.9110    7.8780 c         1 T55      0.907600
     11 O           1.9600    2.8990    8.5450 o         1 T55     -0.853800
     12 OXT         2.9490    4.8920    8.3740 o         1 T55     -0.853800
     13 HAL1        2.5240    4.8150    5.9020 hc        1 T55      0.018700
     14 HAL2        0.8720    4.1930    6.3000 hc        1 T55      0.018700
     15 HAK1        3.3920    2.5060    5.6890 hc        1 T55      0.043700
     16 HAK2        1.8250    1.8290    6.2770 hc        1 T55      0.043700
     17 HAJ1        2.2130    3.5050    3.6910 hc        1 T55      0.025700
     18 HAJ2        0.6570    2.7950    4.2640 hc        1 T55      0.025700
     19 HAI1        3.2200    1.2020    3.5670 hc        1 T55      0.036700
     20 HAI2        1.6680    0.4910    4.1490 hc        1 T55      0.036700
     21 HAH1        2.0290    2.1770    1.5740 hc        1 T55      0.034700
     22 HAH2        0.4750    1.4680    2.1580 hc        1 T55      0.034700
     23 HAG1        3.0420   -0.1240    1.4780 hc        1 T55      0.037700
     24 HAG2        1.4790   -0.8390    2.0340 hc        1 T55      0.037700
     25 HAE         1.6840    0.9600   -0.4660 hc        1 T55      0.044700
     26 HAD1       -0.3370   -1.2140    0.4190 hc        1 T55      0.029533
     27 HAD2       -0.3950   -0.2510   -1.1150 hc        1 T55      0.029533
     28 HAD3       -0.5930    0.5780    0.4850 hc        1 T55      0.029533
     29 HAF1        1.9800   -2.1150   -0.2630 hc        1 T55      0.029533
     30 HAF2        3.2610   -0.9310   -0.7540 hc        1 T55      0.029533
     31 HAF3        1.7960   -1.1670   -1.7960 hc        1 T55      0.029533
@<TRIPOS>BOND
     1    1    2 1   
     2    1   26 1   
     3    1   27 1   
     4    1   28 1   
     5    2    3 1   
     6    2    9 1   
     7    2   25 1   
     8    3    4 1   
     9    3   23 1   
    10    3   24 1   
    11    4    5 1   
    12    4   21 1   
    13    4   22 1   
    14    5    6 1   
    15    5   19 1   
    16    5   20 1   
    17    6    7 1   
    18    6   17 1   
    19    6   18 1   
    20    7    8 1   
    21    7   15 1   
    22    7   16 1   
    23    8   10 1   
    24    8   13 1   
    25    8   14 1   
    26    9   29 1   
    27    9   30 1   
    28    9   31 1   
    29   10   11 1   
    30   10   12 1   
@<TRIPOS>SUBSTRUCTURE
     1 T55         1 TEMP              0 ****  ****    0 ROOT
