@<TRIPOS>MOLECULE
T57
   87    87     1     0     0
SMALL
bcc


@<TRIPOS>ATOM
      1 OAA         0.0000    0.0000    0.0000 o         1 T57     -0.902800
      2 CBJ         1.3420    0.0000    0.0000 c         1 T57      0.980600
      3 OAI         1.9470    0.0000    1.0460 o         1 T57     -0.902800
      4 CAZ         2.0950   -0.0010   -1.3060 c3        1 T57     -0.149400
      5 CBC         3.6000   -0.0010   -1.0280 c3        1 T57     -0.023400
      6 CBU         4.3630   -0.0010   -2.3540 c3        1 T57     -0.081500
      7 CBM         5.8400    0.1220   -2.0820 c         1 T57      0.980600
      8 OAL         6.3160    1.1980   -1.4330 o         1 T57     -0.802300
      9 OAD         6.5960   -0.7460   -2.4470 o         1 T57     -0.802300
     10 NBH         4.1010   -1.2570   -3.0690 ny        1 T57     -0.176100
     11 PBV         4.0480   -1.0030   -4.7320 p5        1 T57      0.682700
     12 OAM         3.7820   -2.2860   -5.4190 o         1 T57     -0.560000
     13 OAH         5.4600   -0.4110   -5.2290 o         1 T57     -0.560000
     14 OBI         2.8750    0.0440   -5.0780 os        1 T57     -0.472200
     15 CAX         1.4870   -0.2730   -4.9550 c3        1 T57      0.275400
     16 CAV         0.6490    0.9400   -5.3620 c3        1 T57     -0.058400
     17 CB         -0.8380    0.6010   -5.2300 c3        1 T57     -0.028400
     18 CA         -1.6760    1.8140   -5.6360 c3        1 T57     -0.163500
     19 C          -3.1360    1.4430   -5.6240 c         1 T57      0.974600
     20 OXT        -3.5850    0.4570   -6.4180 o         1 T57     -0.835300
     21 O          -3.9030    2.0310   -4.8990 o         1 T57     -0.835300
     22 N          -1.4420    2.9090   -4.6910 ny        1 T57      0.127200
     23 CBO        -1.6380    4.1850   -5.0760 c         1 T57      0.377100
     24 OAF        -2.0070    4.4290   -6.2060 o         1 T57     -0.420100
     25 CBA        -1.3980    5.3110   -4.1040 c3        1 T57     -0.128400
     26 CBD        -1.6910    6.6480   -4.7890 c3        1 T57     -0.007400
     27 CBT        -1.4470    7.7910   -3.8000 c3        1 T57     -0.173500
     28 CBL        -1.6160    9.1100   -4.5080 c         1 T57      0.964600
     29 OAK        -0.8340    9.4150   -5.5560 o         1 T57     -0.813300
     30 OAC        -2.4550    9.8940   -4.1320 o         1 T57     -0.813300
     31 NBG        -2.4100    7.7000   -2.7000 ny        1 T57      0.136200
     32 CBN        -2.1140    8.2340   -1.5000 c         1 T57      0.367100
     33 OAE        -1.0510    8.7910   -1.3290 o         1 T57     -0.422100
     34 CAY        -3.1050    8.1400   -0.3680 c3        1 T57     -0.099400
     35 CAU        -2.5270    8.8220    0.8740 c3        1 T57     -0.014400
     36 CAS        -3.5320    8.7260    2.0230 c3        1 T57     -0.016400
     37 CAT        -2.9540    9.4070    3.2650 c3        1 T57     -0.033400
     38 CAW        -3.9600    9.3120    4.4130 c3        1 T57     -0.025200
     39 NBE        -3.4070    9.9640    5.6030 ny        1 T57      0.175200
     40 CBP        -4.1220   10.0040    6.7450 c         1 T57      0.334700
     41 OAG        -5.2260    9.4970    6.7880 o         1 T57     -0.478100
     42 CBR        -3.5630   10.6620    7.9440 ca        1 T57     -0.230600
     43 CAQ        -2.2970   11.2480    7.8960 ca        1 T57     -0.020000
     44 CAO        -1.7800   11.8600    9.0180 ca        1 T57     -0.121500
     45 CBQ        -2.5160   11.8930   10.1930 ca        1 T57      0.174900
     46 FAN        -2.0050   12.4950   11.2890 f         1 T57     -0.104900
     47 CAP        -3.7730   11.3130   10.2460 ca        1 T57     -0.121500
     48 CAR        -4.3020   10.7030    9.1280 ca        1 T57     -0.020000
     49 H2          1.8320   -0.8860   -1.8730 hc        1 T57     -0.003800
     50 H3          1.8320    0.8830   -1.8740 hc        1 T57     -0.003800
     51 H4          3.8620    0.8840   -0.4600 hc        1 T57      0.048200
     52 H5          3.8620   -0.8850   -0.4600 hc        1 T57      0.048200
     53 H6          4.0350    0.8350   -2.9590 hx        1 T57      0.070700
     54 H8          4.8270   -1.9120   -2.8590 hn        1 T57      0.292300
     55 H10         1.2490   -1.1090   -5.6020 h1        1 T57     -0.003800
     56 H11         1.2660   -0.5360   -3.9280 h1        1 T57     -0.003800
     57 H12         0.8690    1.2030   -6.3890 hc        1 T57      0.006200
     58 H13         0.8870    1.7770   -4.7160 hc        1 T57      0.006200
     59 H14        -1.0580    0.3370   -4.2020 hc        1 T57      0.063700
     60 H15        -1.0760   -0.2360   -5.8760 hc        1 T57      0.063700
     61 H16        -1.3930    2.1310   -6.6330 hx        1 T57      0.094700
     62 H18        -2.0410    2.7470   -3.9050 hn        1 T57      0.271800
     63 H19        -2.0500    5.1930   -3.2470 hc        1 T57      0.039200
     64 H20        -0.3650    5.2920   -3.7770 hc        1 T57      0.039200
     65 H21        -1.0380    6.7650   -5.6450 hc        1 T57      0.075200
     66 H22        -2.7230    6.6670   -5.1160 hc        1 T57      0.075200
     67 H23        -0.4400    7.7190   -3.4060 hx        1 T57      0.100700
     68 H25        -3.2530    8.1380   -3.0140 hn        1 T57      0.260300
     69 H26        -4.0270    8.6310   -0.6540 hc        1 T57      0.052200
     70 H27        -3.3040    7.0980   -0.1480 hc        1 T57      0.052200
     71 H28        -2.3280    9.8630    0.6550 hc        1 T57      0.041700
     72 H29        -1.6050    8.3300    1.1600 hc        1 T57      0.041700
     73 H30        -4.4540    9.2180    1.7380 hc        1 T57      0.030200
     74 H31        -3.7310    7.6840    2.2430 hc        1 T57      0.030200
     75 H32        -2.7540   10.4490    3.0460 hc        1 T57      0.034200
     76 H33        -2.0320    8.9150    3.5510 hc        1 T57      0.034200
     77 H34        -4.8810    9.8040    4.1280 hx        1 T57      0.089200
     78 H35        -4.1600    8.2700    4.6330 hx        1 T57      0.089200
     79 H36        -3.2100   10.9120    5.3500 hn        1 T57      0.250300
     80 H37        -1.7220   11.2220    6.9780 ha        1 T57      0.111500
     81 H38        -0.7980   12.3150    8.9810 ha        1 T57      0.140000
     82 H39        -4.3430   11.3390   11.1670 ha        1 T57      0.140000
     83 H40        -5.3120   10.3120    9.1500 ha        1 T57      0.111500
     84 HBH2        3.2230   -1.6310   -2.7660 hn        1 T57      0.292300
     85 H24        -0.4900    2.8380   -4.3920 hn        1 T57      0.271800
     86 HBG2       -2.5880    6.7260   -2.5500 hn        1 T57      0.260300
     87 HBE2       -2.5450    9.5010    5.8150 hn        1 T57      0.250300
@<TRIPOS>BOND
     1    1    2 1   
     2    2    3 1   
     3    2    4 1   
     4    4    5 1   
     5    4   49 1   
     6    4   50 1   
     7    5    6 1   
     8    5   51 1   
     9    5   52 1   
    10    6    7 1   
    11    6   10 1   
    12    6   53 1   
    13    7    8 1   
    14    7    9 1   
    15   10   11 1   
    16   10   54 1   
    17   10   84 1   
    18   11   12 1   
    19   11   13 1   
    20   11   14 1   
    21   14   15 1   
    22   15   16 1   
    23   15   55 1   
    24   15   56 1   
    25   16   17 1   
    26   16   57 1   
    27   16   58 1   
    28   17   18 1   
    29   17   59 1   
    30   17   60 1   
    31   18   19 1   
    32   18   22 1   
    33   18   61 1   
    34   19   20 1   
    35   19   21 1   
    36   22   23 1   
    37   22   62 1   
    38   22   85 1   
    39   23   24 2   
    40   23   25 1   
    41   25   26 1   
    42   25   63 1   
    43   25   64 1   
    44   26   27 1   
    45   26   65 1   
    46   26   66 1   
    47   27   28 1   
    48   27   31 1   
    49   27   67 1   
    50   28   29 1   
    51   28   30 1   
    52   31   32 1   
    53   31   68 1   
    54   31   86 1   
    55   32   33 2   
    56   32   34 1   
    57   34   35 1   
    58   34   69 1   
    59   34   70 1   
    60   35   36 1   
    61   35   71 1   
    62   35   72 1   
    63   36   37 1   
    64   36   73 1   
    65   36   74 1   
    66   37   38 1   
    67   37   75 1   
    68   37   76 1   
    69   38   39 1   
    70   38   77 1   
    71   38   78 1   
    72   39   40 1   
    73   39   79 1   
    74   39   87 1   
    75   40   41 2   
    76   40   42 1   
    77   42   43 ar  
    78   42   48 ar  
    79   43   44 ar  
    80   43   80 1   
    81   44   45 ar  
    82   44   81 1   
    83   45   46 1   
    84   45   47 ar  
    85   47   48 ar  
    86   47   82 1   
    87   48   83 1   
@<TRIPOS>SUBSTRUCTURE
     1 T57         1 TEMP              0 ****  ****    0 ROOT
