@<TRIPOS>MOLECULE
T5J
   36    38     1     0     0
SMALL
bcc


@<TRIPOS>ATOM
      1 C1         -0.1300    0.1050    0.3510 c3        1 T5J     -0.048800
      2 C2          1.3380    0.1010    0.1740 ca        1 T5J     -0.126300
      3 C3          2.1970    0.0360    1.2730 ca        1 T5J     -0.091000
      4 C4          3.5770    0.0120    1.1160 ca        1 T5J     -0.187000
      5 C5          4.1530    0.0640   -0.1750 ca        1 T5J      0.158600
      6 C6          3.3050    0.1410   -1.2950 ca        1 T5J     -0.150000
      7 C7          1.9120    0.1530   -1.1140 ca        1 T5J      0.136900
      8 F8          1.1130    0.2250   -2.2080 f         1 T5J     -0.140900
      9 N9          5.5560    0.1340   -0.3110 nu        1 T5J     -0.721300
     10 C10         6.2920   -0.7130   -1.1670 ca        1 T5J      0.665200
     11 C11         7.7360   -0.6210   -1.0840 ca        1 T5J     -0.302300
     12 C12         8.5150   -1.3700   -1.9330 ca        1 T5J      0.031700
     13 C13         7.8850   -2.2340   -2.8830 ca        1 T5J     -0.194300
     14 C14         6.4540   -2.2720   -2.8980 ca        1 T5J      0.466600
     15 N15         5.6770   -1.5260   -2.0430 nb        1 T5J     -0.729000
     16 C16         5.7840   -3.1270   -3.8350 ca        1 T5J     -0.214300
     17 C17         6.5040   -3.9000   -4.7100 ca        1 T5J     -0.075000
     18 C18         7.9120   -3.8740   -4.7110 ca        1 T5J     -0.245000
     19 C19         8.5840   -3.0580   -3.8160 ca        1 T5J      0.163100
     20 O20         9.9600   -3.0100   -3.7890 oh        1 T5J     -0.502100
     21 C21         9.9910   -1.2700   -1.8480 c3        1 T5J     -0.061800
     22 H11C       -0.5410   -0.9180    0.1580 hc        1 T5J      0.048367
     23 H12C       -0.6100    0.8130   -0.3710 hc        1 T5J      0.048367
     24 H13C       -0.4110    0.4080    1.3900 hc        1 T5J      0.048367
     25 H3          1.7700   -0.0020    2.2880 ha        1 T5J      0.136000
     26 H4          4.2160   -0.0440    2.0100 ha        1 T5J      0.132000
     27 H6          3.7070    0.1900   -2.3180 ha        1 T5J      0.170000
     28 H9          6.0350    0.3280    0.5450 hn        1 T5J      0.421800
     29 H11         8.1990    0.0550   -0.3510 ha        1 T5J      0.144000
     30 H211       10.4090   -0.9260   -2.8290 hc        1 T5J      0.057700
     31 H212       10.3080   -0.5520   -1.0520 hc        1 T5J      0.057700
     32 H213       10.4320   -2.2740   -1.6220 hc        1 T5J      0.057700
     33 H16         4.6830   -3.1520   -3.8390 ha        1 T5J      0.154000
     34 H17         5.9870   -4.5550   -5.4280 ha        1 T5J      0.136000
     35 H18         8.4670   -4.5020   -5.4220 ha        1 T5J      0.135000
     36 H20        10.2940   -3.6110   -4.4730 ho        1 T5J      0.421000
@<TRIPOS>BOND
     1    1    2 1   
     2    1   22 1   
     3    1   23 1   
     4    1   24 1   
     5    2    3 ar  
     6    2    7 ar  
     7    3    4 ar  
     8    3   25 1   
     9    4    5 ar  
    10    4   26 1   
    11    5    6 ar  
    12    5    9 1   
    13    6    7 ar  
    14    6   27 1   
    15    7    8 1   
    16    9   10 1   
    17    9   28 1   
    18   10   11 ar  
    19   10   15 ar  
    20   11   12 ar  
    21   11   29 1   
    22   12   13 ar  
    23   12   21 1   
    24   13   14 ar  
    25   13   19 ar  
    26   14   15 ar  
    27   14   16 ar  
    28   16   17 ar  
    29   16   33 1   
    30   17   18 ar  
    31   17   34 1   
    32   18   19 ar  
    33   18   35 1   
    34   19   20 1   
    35   20   36 1   
    36   21   30 1   
    37   21   31 1   
    38   21   32 1   
@<TRIPOS>SUBSTRUCTURE
     1 T5J         1 TEMP              0 ****  ****    0 ROOT
