@<TRIPOS>MOLECULE
T5J
   36    38     1     0     0
SMALL
bcc


@<TRIPOS>ATOM
      1 C1         -0.1290    0.1050    0.3550 c3        1 T5J     -0.048800
      2 C2          1.3390    0.0990    0.1790 ca        1 T5J     -0.126300
      3 C3          2.1980    0.0270    1.2780 ca        1 T5J     -0.091000
      4 C4          3.5770    0.0020    1.1210 ca        1 T5J     -0.187000
      5 C5          4.1540    0.0580   -0.1700 ca        1 T5J      0.158600
      6 C6          3.3070    0.1430   -1.2890 ca        1 T5J     -0.150000
      7 C7          1.9130    0.1560   -1.1090 ca        1 T5J      0.136900
      8 F8          1.1160    0.2350   -2.2030 f         1 T5J     -0.140900
      9 N9          5.5580    0.1270   -0.3040 nh        1 T5J     -0.721300
     10 C10         6.2920   -0.7160   -1.1640 ca        1 T5J      0.665200
     11 C11         7.7360   -0.6280   -1.0790 ca        1 T5J     -0.302300
     12 C12         8.5150   -1.3740   -1.9320 ca        1 T5J      0.031700
     13 C13         7.8840   -2.2310   -2.8870 ca        1 T5J     -0.194300
     14 C14         6.4530   -2.2680   -2.9030 ca        1 T5J      0.466600
     15 N15         5.6770   -1.5240   -2.0450 nb        1 T5J     -0.729000
     16 C16         5.7830   -3.1170   -3.8450 ca        1 T5J     -0.214300
     17 C17         6.5020   -3.8860   -4.7230 ca        1 T5J     -0.075000
     18 C18         7.9100   -3.8620   -4.7220 ca        1 T5J     -0.245000
     19 C19         8.5830   -3.0520   -3.8230 ca        1 T5J      0.163100
     20 O20         9.9590   -3.0060   -3.7960 oh        1 T5J     -0.502100
     21 C21         9.9910   -1.2760   -1.8450 c3        1 T5J     -0.061800
     22 H11C       -0.5420   -0.9160    0.1560 hc        1 T5J      0.048367
     23 H12C       -0.4100    0.4040    1.3940 hc        1 T5J      0.048367
     24 H13C       -0.6070    0.8160   -0.3640 hc        1 T5J      0.048367
     25 H3          1.7690   -0.0150    2.2920 ha        1 T5J      0.136000
     26 H4          4.2160   -0.0610    2.0150 ha        1 T5J      0.132000
     27 H6          3.7100    0.1960   -2.3120 ha        1 T5J      0.170000
     28 H9          6.0370    0.3160    0.5530 hn        1 T5J      0.421800
     29 H11         8.2000    0.0440   -0.3430 ha        1 T5J      0.144000
     30 H211       10.4300   -2.2820   -1.6240 hc        1 T5J      0.057700
     31 H212       10.4100   -0.9280   -2.8240 hc        1 T5J      0.057700
     32 H213       10.3080   -0.5620   -1.0460 hc        1 T5J      0.057700
     33 H16         4.6820   -3.1390   -3.8490 ha        1 T5J      0.154000
     34 H17         5.9840   -4.5360   -5.4450 ha        1 T5J      0.136000
     35 H18         8.4640   -4.4870   -5.4360 ha        1 T5J      0.135000
     36 H20        10.2910   -3.6050   -4.4820 ho        1 T5J      0.421000
@<TRIPOS>BOND
     1    1    2 1   
     2    1   22 1   
     3    1   23 1   
     4    1   24 1   
     5    2    3 ar  
     6    2    7 ar  
     7    3    4 ar  
     8    3   25 1   
     9    4    5 ar  
    10    4   26 1   
    11    5    6 ar  
    12    5    9 1   
    13    6    7 ar  
    14    6   27 1   
    15    7    8 1   
    16    9   10 1   
    17    9   28 1   
    18   10   11 ar  
    19   10   15 ar  
    20   11   12 ar  
    21   11   29 1   
    22   12   13 ar  
    23   12   21 1   
    24   13   14 ar  
    25   13   19 ar  
    26   14   15 ar  
    27   14   16 ar  
    28   16   17 ar  
    29   16   33 1   
    30   17   18 ar  
    31   17   34 1   
    32   18   19 ar  
    33   18   35 1   
    34   19   20 1   
    35   20   36 1   
    36   21   30 1   
    37   21   31 1   
    38   21   32 1   
@<TRIPOS>SUBSTRUCTURE
     1 T5J         1 TEMP              0 ****  ****    0 ROOT
