@<TRIPOS>MOLECULE
T5M
   43    45     1     0     0
SMALL
bcc


@<TRIPOS>ATOM
      1 C1          0.0370   -0.0650   -1.0510 c3        1 T5M     -0.089433
      2 C2          1.4940   -0.0560   -0.5960 c3        1 T5M      0.004300
      3 C3          1.5320    0.4850    0.8310 c3        1 T5M     -0.089433
      4 C4          2.1110   -1.4290   -0.6370 ca        1 T5M     -0.092300
      5 C5          1.3790   -2.5450   -1.0490 ca        1 T5M     -0.055000
      6 C6          1.9480   -3.8240   -1.1010 ca        1 T5M     -0.175600
      7 C7          1.0790   -4.9560   -1.5260 c         1 T5M      0.663700
      8 O8         -0.0930   -5.0590   -1.1120 o         1 T5M     -0.590100
      9 N9          1.6220   -5.9520   -2.3430 n         1 T5M     -0.446800
     10 C10         0.7150   -6.9440   -2.9410 c3        1 T5M      0.119300
     11 C11         1.2440   -7.1980   -4.3270 ca        1 T5M     -0.106800
     12 C12         0.7560   -8.0150   -5.3290 ca        1 T5M     -0.106500
     13 C13         1.4560   -8.0680   -6.5440 ca        1 T5M     -0.127000
     14 C14         2.6110   -7.3170   -6.7370 ca        1 T5M     -0.127000
     15 C15         3.1090   -6.4860   -5.7210 ca        1 T5M     -0.106500
     16 C16         2.4210   -6.4340   -4.5240 ca        1 T5M     -0.106800
     17 C17         2.7170   -5.6500   -3.2720 c3        1 T5M      0.119300
     18 C18         3.2730   -4.0190   -0.7090 ca        1 T5M     -0.061000
     19 C20         4.0270   -2.9310   -0.2830 ca        1 T5M     -0.229000
     20 C19         2.2640    0.8840   -1.5190 c3        1 T5M     -0.089433
     21 C21         3.4560   -1.6490   -0.2520 ca        1 T5M      0.149100
     22 O22         4.2020   -0.5670    0.1580 oh        1 T5M     -0.494100
     23 H11C       -0.5830   -0.7130   -0.3850 hc        1 T5M      0.039811
     24 H12C       -0.0480   -0.4280   -2.1030 hc        1 T5M      0.039811
     25 H13C       -0.3720    0.9740   -1.0060 hc        1 T5M      0.039811
     26 H31C        2.5850    0.5820    1.1880 hc        1 T5M      0.039811
     27 H32C        0.9800   -0.2000    1.5180 hc        1 T5M      0.039811
     28 H33C        1.0510    1.4920    0.8660 hc        1 T5M      0.039811
     29 H191        1.7920    1.8960   -1.5060 hc        1 T5M      0.039811
     30 H192        3.3250    0.9840   -1.1850 hc        1 T5M      0.039811
     31 H193        2.2500    0.4960   -2.5650 hc        1 T5M      0.039811
     32 H5          0.3170   -2.4500   -1.3360 ha        1 T5M      0.159000
     33 H18         3.7200   -5.0250   -0.7220 ha        1 T5M      0.145000
     34 H101       -0.3460   -6.5690   -2.9590 h1        1 T5M      0.069450
     35 H102        0.7530   -7.8780   -2.3160 h1        1 T5M      0.069450
     36 H171        3.6840   -5.9960   -2.8100 h1        1 T5M      0.069450
     37 H172        2.7960   -4.5490   -3.4830 h1        1 T5M      0.069450
     38 H12        -0.1570   -8.6110   -5.1850 ha        1 T5M      0.138000
     39 H13         1.0810   -8.7130   -7.3520 ha        1 T5M      0.134000
     40 H14         3.1460   -7.3710   -7.6970 ha        1 T5M      0.134000
     41 H15         4.0220   -5.8960   -5.8810 ha        1 T5M      0.138000
     42 H20         5.0690   -3.0740    0.0350 ha        1 T5M      0.136000
     43 H22         5.0820   -0.8860    0.4090 ho        1 T5M      0.419000
@<TRIPOS>BOND
     1    1    2 1   
     2    1   23 1   
     3    1   24 1   
     4    1   25 1   
     5    2    3 1   
     6    2    4 1   
     7    2   20 1   
     8    3   26 1   
     9    3   27 1   
    10    3   28 1   
    11    4    5 ar  
    12    4   21 ar  
    13    5    6 ar  
    14    5   32 1   
    15    6    7 1   
    16    6   18 ar  
    17    7    8 2   
    18    7    9 1   
    19    9   10 1   
    20    9   17 1   
    21   10   11 1   
    22   10   34 1   
    23   10   35 1   
    24   11   12 ar  
    25   11   16 ar  
    26   12   13 ar  
    27   12   38 1   
    28   13   14 ar  
    29   13   39 1   
    30   14   15 ar  
    31   14   40 1   
    32   15   16 ar  
    33   15   41 1   
    34   16   17 1   
    35   17   36 1   
    36   17   37 1   
    37   18   19 ar  
    38   18   33 1   
    39   19   21 ar  
    40   19   42 1   
    41   20   29 1   
    42   20   30 1   
    43   20   31 1   
    44   21   22 1   
    45   22   43 1   
@<TRIPOS>SUBSTRUCTURE
     1 T5M         1 TEMP              0 ****  ****    0 ROOT
