@<TRIPOS>MOLECULE
T5M
   43    41     1     0     0
SMALL
bcc


@<TRIPOS>ATOM
      1 C1          0.0730   -3.6650    3.5380 c3        1 T5M     -0.207333
      2 C2         -0.4010   -3.6790    2.1010 c3        1 T5M     -0.003000
      3 C3          0.1210   -4.9250    1.3980 c3        1 T5M     -0.207333
      4 C4          0.1210   -2.3990    1.3650 c2        1 T5M     -0.085000
      5 C5         -0.7820   -1.4690    0.8820 c1        1 T5M     -0.055000
      6 C6         -0.3180   -0.3280    0.1960 c1        1 T5M     -0.155000
      7 C7         -1.3390    0.6850   -0.4170 c2        1 T5M      0.337000
      8 O8         -2.5260    0.4940   -0.2990 o         1 T5M     -0.351000
      9 N9         -0.8620    1.8900   -1.0510 n         1 T5M     -0.305000
     10 C10        -1.6900    2.9610   -1.5850 c3        1 T5M     -0.007000
     11 C11        -0.7650    4.0100   -2.1890 c2        1 T5M     -0.095000
     12 C12        -1.0240    5.1870   -2.9370 c2        1 T5M     -0.107000
     13 C13         0.0330    5.9300   -3.4460 c1        1 T5M     -0.125000
     14 C14         1.3570    5.5160   -3.2210 c1        1 T5M     -0.117500
     15 C15         1.6110    4.3490   -2.4800 c1        1 T5M     -0.117500
     16 C16         0.5520    3.6030   -1.9680 c1        1 T5M     -0.104000
     17 C17         0.5130    2.2420   -1.2670 c3        1 T5M     -0.001000
     18 C18         1.0420   -0.1360    0.0050 c1        1 T5M     -0.061000
     19 C20         1.9520   -1.0760    0.4940 c1        1 T5M     -0.229000
     20 C19        -1.9170   -3.6860    2.0750 c3        1 T5M     -0.207333
     21 C21         1.4920   -2.2100    1.1750 c2        1 T5M      0.104000
     22 O22         2.4130   -3.1560    1.6880 oh        1 T5M     -0.248000
     23 H11C       -0.2440   -2.9160    3.9540 hc        1 T5M      0.079111
     24 H12C       -0.2710   -4.4790    4.0120 hc        1 T5M      0.079111
     25 H13C        1.0660   -3.6620    3.5620 hc        1 T5M      0.079111
     26 H31C        1.1090   -4.8970    1.3620 hc        1 T5M      0.079111
     27 H32C       -0.2180   -4.9580    0.5380 hc        1 T5M      0.079111
     28 H33C       -0.1550   -5.6900    1.8720 hc        1 T5M      0.079111
     29 H191       -2.2670   -4.3930    2.7260 hc        1 T5M      0.079111
     30 H192       -2.2250   -3.8940    1.1740 hc        1 T5M      0.079111
     31 H193       -2.2520   -2.8030    2.3400 hc        1 T5M      0.079111
     32 H5         -1.6960   -1.6330    0.9480 ha        1 T5M      0.159000
     33 H18         1.3730    0.6840   -0.4860 ha        1 T5M      0.145000
     34 H101       -2.2010    3.3660   -0.8540 h1        1 T5M      0.115500
     35 H102       -2.2570    2.6070   -2.2720 h1        1 T5M      0.115500
     36 H171        1.0090    2.3000   -0.3550 h1        1 T5M      0.102000
     37 H172        0.9460    1.5590   -1.8390 h1        1 T5M      0.102000
     38 H12        -1.9840    5.4860   -3.0990 ha        1 T5M      0.140000
     39 H13        -0.1480    6.7710   -3.9820 ha        1 T5M      0.134000
     40 H14         2.0990    6.0350   -3.5790 ha        1 T5M      0.135000
     41 H15         2.5320    4.0640   -2.3210 ha        1 T5M      0.135000
     42 H20         2.9490   -0.9360    0.3560 ha        1 T5M      0.136000
     43 H22         3.1760   -2.7480    1.8850 ho        1 T5M      0.218000
@<TRIPOS>BOND
     1    1    2 1   
     2    1   23 1   
     3    1   24 1   
     4    1   25 1   
     5    2    3 1   
     6    2    4 1   
     7    2   20 1   
     8    3   26 1   
     9    3   27 1   
    10    3   28 1   
    11    4    5 1   
    12    4   21 1   
    13    5   32 1   
    14    6    7 1   
    15    6   18 1   
    16    7    8 1   
    17    7    9 1   
    18    9   10 1   
    19    9   17 1   
    20   10   11 1   
    21   10   34 1   
    22   10   35 1   
    23   11   12 1   
    24   11   16 1   
    25   12   13 1   
    26   12   38 1   
    27   13   39 1   
    28   14   15 1   
    29   14   40 1   
    30   15   41 1   
    31   16   17 1   
    32   17   36 1   
    33   17   37 1   
    34   18   33 1   
    35   19   21 1   
    36   19   42 1   
    37   20   29 1   
    38   20   30 1   
    39   20   31 1   
    40   21   22 1   
    41   22   43 1   
@<TRIPOS>SUBSTRUCTURE
     1 T5M         1 TEMP              0 ****  ****    0 ROOT
