@<TRIPOS>MOLECULE
T5M
   43    45     1     0     0
SMALL
bcc


@<TRIPOS>ATOM
      1 C1          0.0270   -0.0810   -1.0200 c3        1 T5M     -0.089433
      2 C2          1.4920   -0.0570   -0.5930 c3        1 T5M      0.004300
      3 C3          1.5520    0.4860    0.8320 c3        1 T5M     -0.089433
      4 C4          2.1220   -1.4250   -0.6440 ca        1 T5M     -0.092300
      5 C5          1.3920   -2.5480   -1.0400 ca        1 T5M     -0.055000
      6 C6          1.9730   -3.8220   -1.1010 ca        1 T5M     -0.175600
      7 C7          1.1060   -4.9630   -1.5070 c         1 T5M      0.663700
      8 O8         -0.0570   -5.0760   -1.0700 o         1 T5M     -0.590100
      9 N9          1.6430   -5.9550   -2.3320 n         1 T5M     -0.446800
     10 C10         0.7350   -6.9570   -2.9110 c3        1 T5M      0.119300
     11 C11         1.2390   -7.2090   -4.3070 ca        1 T5M     -0.106800
     12 C12         0.7400   -8.0320   -5.2980 ca        1 T5M     -0.106500
     13 C13         1.4170   -8.0800   -6.5260 ca        1 T5M     -0.127000
     14 C14         2.5620   -7.3190   -6.7420 ca        1 T5M     -0.127000
     15 C15         3.0710   -6.4810   -5.7370 ca        1 T5M     -0.106500
     16 C16         2.4050   -6.4330   -4.5270 ca        1 T5M     -0.106800
     17 C17         2.7180   -5.6450   -3.2830 c3        1 T5M      0.119300
     18 C18         3.3060   -4.0030   -0.7340 ca        1 T5M     -0.061000
     19 C20         4.0580   -2.9080   -0.3240 ca        1 T5M     -0.229000
     20 C19         2.2360    0.8880   -1.5330 c3        1 T5M     -0.089433
     21 C21         3.4760   -1.6310   -0.2850 ca        1 T5M      0.149100
     22 O22         4.2190   -0.5410    0.1090 oh        1 T5M     -0.494100
     23 H11C       -0.5740   -0.7340   -0.3420 hc        1 T5M      0.039811
     24 H12C       -0.0750   -0.4470   -2.0700 hc        1 T5M      0.039811
     25 H13C       -0.3920    0.9540   -0.9700 hc        1 T5M      0.039811
     26 H31C        2.6110    0.5940    1.1680 hc        1 T5M      0.039811
     27 H32C        1.0620    1.4890    0.8740 hc        1 T5M      0.039811
     28 H33C        1.0200   -0.2020    1.5300 hc        1 T5M      0.039811
     29 H191        2.2050    0.4980   -2.5780 hc        1 T5M      0.039811
     30 H192        1.7540    1.8960   -1.5130 hc        1 T5M      0.039811
     31 H193        3.3010    0.9990   -1.2200 hc        1 T5M      0.039811
     32 H5          0.3250   -2.4630   -1.3060 ha        1 T5M      0.159000
     33 H18         3.7630   -5.0050   -0.7530 ha        1 T5M      0.145000
     34 H101        0.7930   -7.8900   -2.2850 h1        1 T5M      0.069450
     35 H102       -0.3300   -6.5920   -2.9100 h1        1 T5M      0.069450
     36 H171        2.7820   -4.5430   -3.4970 h1        1 T5M      0.069450
     37 H172        3.6970   -5.9800   -2.8390 h1        1 T5M      0.069450
     38 H12        -0.1640   -8.6360   -5.1350 ha        1 T5M      0.138000
     39 H13         1.0330   -8.7300   -7.3260 ha        1 T5M      0.134000
     40 H14         3.0780   -7.3700   -7.7120 ha        1 T5M      0.134000
     41 H15         3.9750   -5.8830   -5.9160 ha        1 T5M      0.138000
     42 H20         5.1080   -3.0400   -0.0260 ha        1 T5M      0.136000
     43 H22         5.1060   -0.8510    0.3440 ho        1 T5M      0.419000
@<TRIPOS>BOND
     1    1    2 1   
     2    1   23 1   
     3    1   24 1   
     4    1   25 1   
     5    2    3 1   
     6    2    4 1   
     7    2   20 1   
     8    3   26 1   
     9    3   27 1   
    10    3   28 1   
    11    4    5 ar  
    12    4   21 ar  
    13    5    6 ar  
    14    5   32 1   
    15    6    7 1   
    16    6   18 ar  
    17    7    8 2   
    18    7    9 1   
    19    9   10 1   
    20    9   17 1   
    21   10   11 1   
    22   10   34 1   
    23   10   35 1   
    24   11   12 ar  
    25   11   16 ar  
    26   12   13 ar  
    27   12   38 1   
    28   13   14 ar  
    29   13   39 1   
    30   14   15 ar  
    31   14   40 1   
    32   15   16 ar  
    33   15   41 1   
    34   16   17 1   
    35   17   36 1   
    36   17   37 1   
    37   18   19 ar  
    38   18   33 1   
    39   19   21 ar  
    40   19   42 1   
    41   20   29 1   
    42   20   30 1   
    43   20   31 1   
    44   21   22 1   
    45   22   43 1   
@<TRIPOS>SUBSTRUCTURE
     1 T5M         1 TEMP              0 ****  ****    0 ROOT
