@<TRIPOS>MOLECULE
T5M
   43    45     1     0     0
SMALL
bcc


@<TRIPOS>ATOM
      1 C1          3.8810    1.8660   -1.0670 c3        1 T5M     -0.089433
      2 C2          4.1560    0.4500   -0.5690 c3        1 T5M      0.004300
      3 C3          5.3890    0.5040    0.3300 c3        1 T5M     -0.089433
      4 C4          2.9910   -0.1200    0.1970 ca        1 T5M     -0.092300
      5 C5          1.8220    0.6170    0.3990 ca        1 T5M     -0.055000
      6 C6          0.7290    0.0910    1.1000 ca        1 T5M     -0.175600
      7 C7         -0.4620    0.9640    1.2890 c         1 T5M      0.663700
      8 O8         -0.3380    2.1680    1.5910 o         1 T5M     -0.590100
      9 N9         -1.7350    0.3940    1.1960 n         1 T5M     -0.446800
     10 C10        -2.9050    1.2860    1.1610 c3        1 T5M      0.119300
     11 C11        -3.8670    0.6590    0.1870 ca        1 T5M     -0.106800
     12 C12        -5.1050    1.0960   -0.2450 ca        1 T5M     -0.106500
     13 C13        -5.8030    0.3050   -1.1710 ca        1 T5M     -0.127000
     14 C14        -5.2640   -0.8880   -1.6420 ca        1 T5M     -0.127000
     15 C15        -4.0070   -1.3340   -1.2050 ca        1 T5M     -0.106500
     16 C16        -3.3190   -0.5560   -0.2930 ca        1 T5M     -0.106800
     17 C17        -1.9750   -0.7810    0.3500 c3        1 T5M      0.119300
     18 C18         0.7980   -1.1910    1.6460 ca        1 T5M     -0.061000
     19 C20         1.9510   -1.9470    1.4730 ca        1 T5M     -0.229000
     20 C19         4.4500   -0.4230   -1.7860 c3        1 T5M     -0.089433
     21 C21         3.0350   -1.4220    0.7520 ca        1 T5M      0.149100
     22 O22         4.1750   -2.1710    0.5680 oh        1 T5M     -0.494100
     23 H11C        4.7710    2.2410   -1.6310 hc        1 T5M      0.039811
     24 H12C        3.0020    1.8810   -1.7540 hc        1 T5M      0.039811
     25 H13C        3.6940    2.5580   -0.2120 hc        1 T5M      0.039811
     26 H31C        5.1830    1.1320    1.2300 hc        1 T5M      0.039811
     27 H32C        5.6780   -0.5210    0.6640 hc        1 T5M      0.039811
     28 H33C        6.2450    0.9510   -0.2300 hc        1 T5M      0.039811
     29 H191        5.2990    0.0130   -2.3670 hc        1 T5M      0.039811
     30 H192        4.7300   -1.4570   -1.4720 hc        1 T5M      0.039811
     31 H193        3.5540   -0.4770   -2.4490 hc        1 T5M      0.039811
     32 H5          1.7320    1.6490    0.0180 ha        1 T5M      0.159000
     33 H18        -0.0460   -1.6030    2.2210 ha        1 T5M      0.145000
     34 H101       -3.3460    1.3300    2.1940 h1        1 T5M      0.069450
     35 H102       -2.6150    2.3280    0.8510 h1        1 T5M      0.069450
     36 H171       -1.1670   -0.9150   -0.4190 h1        1 T5M      0.069450
     37 H172       -2.0000   -1.6960    1.0050 h1        1 T5M      0.069450
     38 H12        -5.5370    2.0380    0.1220 ha        1 T5M      0.138000
     39 H13        -6.7900    0.6380   -1.5250 ha        1 T5M      0.134000
     40 H14        -5.8270   -1.4940   -2.3680 ha        1 T5M      0.134000
     41 H15        -3.5890   -2.2770   -1.5820 ha        1 T5M      0.138000
     42 H20         2.0190   -2.9570    1.9050 ha        1 T5M      0.136000
     43 H22         4.0560   -3.0170    1.0260 ho        1 T5M      0.419000
@<TRIPOS>BOND
     1    1    2 1   
     2    1   23 1   
     3    1   24 1   
     4    1   25 1   
     5    2    3 1   
     6    2    4 1   
     7    2   20 1   
     8    3   26 1   
     9    3   27 1   
    10    3   28 1   
    11    4    5 ar  
    12    4   21 ar  
    13    5    6 ar  
    14    5   32 1   
    15    6    7 1   
    16    6   18 ar  
    17    7    8 2   
    18    7    9 1   
    19    9   10 1   
    20    9   17 1   
    21   10   11 1   
    22   10   34 1   
    23   10   35 1   
    24   11   12 ar  
    25   11   16 ar  
    26   12   13 ar  
    27   12   38 1   
    28   13   14 ar  
    29   13   39 1   
    30   14   15 ar  
    31   14   40 1   
    32   15   16 ar  
    33   15   41 1   
    34   16   17 1   
    35   17   36 1   
    36   17   37 1   
    37   18   19 ar  
    38   18   33 1   
    39   19   21 ar  
    40   19   42 1   
    41   20   29 1   
    42   20   30 1   
    43   20   31 1   
    44   21   22 1   
    45   22   43 1   
@<TRIPOS>SUBSTRUCTURE
     1 T5M         1 TEMP              0 ****  ****    0 ROOT
