@<TRIPOS>MOLECULE
T5M
   43    45     1     0     0
SMALL
bcc


@<TRIPOS>ATOM
      1 C1          0.0450   -0.0640   -1.0430 c3        1 T5M     -0.089433
      2 C2          1.5050   -0.0550   -0.5970 c3        1 T5M      0.004300
      3 C3          1.5520    0.4880    0.8290 c3        1 T5M     -0.089433
      4 C4          2.1220   -1.4280   -0.6400 ca        1 T5M     -0.092300
      5 C5          1.3860   -2.5440   -1.0460 ca        1 T5M     -0.055000
      6 C6          1.9550   -3.8240   -1.1000 ca        1 T5M     -0.175600
      7 C7          1.0830   -4.9560   -1.5180 c         1 T5M      0.663700
      8 O8         -0.0860   -5.0580   -1.0960 o         1 T5M     -0.590100
      9 N9          1.6210   -5.9520   -2.3370 n         1 T5M     -0.446800
     10 C10         0.7100   -6.9450   -2.9290 c3        1 T5M      0.119300
     11 C11         1.2290   -7.2000   -4.3190 ca        1 T5M     -0.106800
     12 C12         0.7340   -8.0170   -5.3160 ca        1 T5M     -0.106500
     13 C13         1.4260   -8.0700   -6.5370 ca        1 T5M     -0.127000
     14 C14         2.5810   -7.3200   -6.7380 ca        1 T5M     -0.127000
     15 C15         3.0850   -6.4890   -5.7250 ca        1 T5M     -0.106500
     16 C16         2.4060   -6.4360   -4.5240 ca        1 T5M     -0.106800
     17 C17         2.7100   -5.6510   -3.2740 c3        1 T5M      0.119300
     18 C18         3.2820   -4.0180   -0.7160 ca        1 T5M     -0.061000
     19 C20         4.0390   -2.9300   -0.2960 ca        1 T5M     -0.229000
     20 C19         2.2700    0.8840   -1.5260 c3        1 T5M     -0.089433
     21 C21         3.4690   -1.6470   -0.2630 ca        1 T5M      0.149100
     22 O22         4.2180   -0.5660    0.1410 oh        1 T5M     -0.494100
     23 H11C       -0.3630    0.9750   -0.9980 hc        1 T5M      0.039811
     24 H12C       -0.5700   -0.7100   -0.3730 hc        1 T5M      0.039811
     25 H13C       -0.0460   -0.4290   -2.0940 hc        1 T5M      0.039811
     26 H31C        1.0040   -0.1960    1.5200 hc        1 T5M      0.039811
     27 H32C        1.0720    1.4950    0.8660 hc        1 T5M      0.039811
     28 H33C        2.6080    0.5850    1.1790 hc        1 T5M      0.039811
     29 H191        3.3330    0.9840   -1.1990 hc        1 T5M      0.039811
     30 H192        2.2490    0.4950   -2.5720 hc        1 T5M      0.039811
     31 H193        1.7980    1.8960   -1.5120 hc        1 T5M      0.039811
     32 H5          0.3240   -2.4490   -1.3260 ha        1 T5M      0.159000
     33 H18         3.7300   -5.0240   -0.7300 ha        1 T5M      0.145000
     34 H101        0.7520   -7.8790   -2.3040 h1        1 T5M      0.069450
     35 H102       -0.3510   -6.5700   -2.9400 h1        1 T5M      0.069450
     36 H171        2.7880   -4.5500   -3.4860 h1        1 T5M      0.069450
     37 H172        3.6800   -5.9970   -2.8190 h1        1 T5M      0.069450
     38 H12        -0.1770   -8.6130   -5.1660 ha        1 T5M      0.138000
     39 H13         1.0460   -8.7160   -7.3420 ha        1 T5M      0.134000
     40 H14         3.1080   -7.3750   -7.7010 ha        1 T5M      0.134000
     41 H15         3.9970   -5.8990   -5.8920 ha        1 T5M      0.138000
     42 H20         5.0840   -3.0730    0.0160 ha        1 T5M      0.136000
     43 H22         5.0990   -0.8840    0.3870 ho        1 T5M      0.419000
@<TRIPOS>BOND
     1    1    2 1   
     2    1   23 1   
     3    1   24 1   
     4    1   25 1   
     5    2    3 1   
     6    2    4 1   
     7    2   20 1   
     8    3   26 1   
     9    3   27 1   
    10    3   28 1   
    11    4    5 ar  
    12    4   21 ar  
    13    5    6 ar  
    14    5   32 1   
    15    6    7 1   
    16    6   18 ar  
    17    7    8 2   
    18    7    9 1   
    19    9   10 1   
    20    9   17 1   
    21   10   11 1   
    22   10   34 1   
    23   10   35 1   
    24   11   12 ar  
    25   11   16 ar  
    26   12   13 ar  
    27   12   38 1   
    28   13   14 ar  
    29   13   39 1   
    30   14   15 ar  
    31   14   40 1   
    32   15   16 ar  
    33   15   41 1   
    34   16   17 1   
    35   17   36 1   
    36   17   37 1   
    37   18   19 ar  
    38   18   33 1   
    39   19   21 ar  
    40   19   42 1   
    41   20   29 1   
    42   20   30 1   
    43   20   31 1   
    44   21   22 1   
    45   22   43 1   
@<TRIPOS>SUBSTRUCTURE
     1 T5M         1 TEMP              0 ****  ****    0 ROOT
