@<TRIPOS>MOLECULE
T5O
   35    36     1     0     0
SMALL
bcc


@<TRIPOS>ATOM
      1 P          -2.2250    0.7310   -1.5530 p5        1 T5O      1.342900
      2 N1          2.1190   -1.2760    0.7800 n         1 T5O     -0.363000
      3 C2          3.4540   -1.6910    0.9670 c         1 T5O      0.796500
      4 O2          3.7630   -2.8230    1.4240 o         1 T5O     -0.707500
      5 N3          4.4950   -0.7930    0.6780 n         1 T5O     -0.598500
      6 C4          4.2770    0.5090    0.1920 c         1 T5O      0.713700
      7 O4          5.2790    1.2090   -0.0530 o         1 T5O     -0.663500
      8 C5          2.8660    0.8850    0.0380 cc        1 T5O     -0.119100
      9 O5          2.6590    2.2150   -0.2650 os        1 T5O     -0.322900
     10 C6          1.8500   -0.0040    0.2880 cd        1 T5O      0.030600
     11 C1'         1.0610   -2.2840    0.9970 c3        1 T5O      0.304500
     12 OP3        -2.7090    1.4860   -2.7460 o         1 T5O     -0.926833
     13 C2'        -0.1430   -1.7500    1.7960 c3        1 T5O     -0.117400
     14 OP2        -3.1800    0.3620   -0.4450 o         1 T5O     -0.926833
     15 C3'        -1.2180   -1.5000    0.7390 c3        1 T5O      0.104100
     16 O3'        -2.4740   -1.9450    1.1990 oh        1 T5O     -0.657800
     17 C4'        -0.7620   -2.2870   -0.5090 c3        1 T5O      0.063100
     18 O4'         0.5690   -2.7940   -0.2370 os        1 T5O     -0.438600
     19 C5'        -0.6990   -1.4370   -1.8010 c3        1 T5O      0.224400
     20 O5'        -1.8980   -0.8700   -2.1290 os        1 T5O     -0.568200
     21 C7          1.9220    2.4330   -1.4760 c3        1 T5O      0.070700
     22 H6          0.7680    0.2710    0.0770 h4        1 T5O      0.295000
     23 H1'         1.5550   -3.1630    1.5090 h2        1 T5O      0.086700
     24 H2'        -0.4730   -2.5350    2.5210 hc        1 T5O      0.053200
     25 H2'A        0.0850   -0.8170    2.3610 hc        1 T5O      0.053200
     26 H3'        -1.2850   -0.3930    0.4700 h1        1 T5O      0.154700
     27 HO3'       -3.1240   -1.3490    0.7670 ho        1 T5O      0.481000
     28 H4'        -1.4020   -3.1940   -0.6620 h1        1 T5O      0.051700
     29 H5'         0.1080   -0.6590   -1.6790 h1        1 T5O     -0.003300
     30 H5'A       -0.3910   -2.1430   -2.6290 h1        1 T5O     -0.003300
     31 HC7         2.5200    2.0760   -2.3490 h1        1 T5O      0.064700
     32 HC7A        0.9120    1.9350   -1.4310 h1        1 T5O      0.064700
     33 HC7B        1.8150    3.5460   -1.5070 h1        1 T5O      0.064700
     34 HN3         5.4240   -1.1260    0.8000 hn        1 T5O      0.323500
     35 OP1        -0.8620    1.1080   -0.9950 o         1 T5O     -0.926833
@<TRIPOS>BOND
     1    1   12 1   
     2    1   14 1   
     3    1   20 1   
     4    1   35 1   
     5    2    3 1   
     6    2   10 1   
     7    2   11 1   
     8    3    4 2   
     9    3    5 1   
    10    5    6 1   
    11    5   34 1   
    12    6    7 2   
    13    6    8 1   
    14    8    9 1   
    15    8   10 2   
    16    9   21 1   
    17   10   22 1   
    18   11   13 1   
    19   11   18 1   
    20   11   23 1   
    21   13   15 1   
    22   13   24 1   
    23   13   25 1   
    24   15   16 1   
    25   15   17 1   
    26   15   26 1   
    27   16   27 1   
    28   17   18 1   
    29   17   19 1   
    30   17   28 1   
    31   19   20 1   
    32   19   29 1   
    33   19   30 1   
    34   21   31 1   
    35   21   32 1   
    36   21   33 1   
@<TRIPOS>SUBSTRUCTURE
     1 T5O         1 TEMP              0 ****  ****    0 ROOT
