@<TRIPOS>MOLECULE
T5P
   48    49     1     0     0
SMALL
bcc


@<TRIPOS>ATOM
      1 O33        -1.7690    1.3730    0.8990 o         1 T5P     -0.940833
      2 P          -1.1340    1.9800   -0.3440 p5        1 T5P      1.385900
      3 O31        -1.7470    3.2110   -0.9150 o         1 T5P     -0.940833
      4 O32         0.3680    1.9200   -0.1610 o         1 T5P     -0.940833
      5 O27        -1.4220    0.7870   -1.5320 os        1 T5P     -0.572200
      6 C17        -1.1020   -0.5040   -1.1790 c3        1 T5P      0.225400
      7 C16        -0.0910   -1.1190   -2.1510 c3        1 T5P     -0.135400
      8 C15         0.6510   -2.3260   -1.5790 c3        1 T5P      0.050000
      9 N5          1.6530   -2.0850   -0.5420 n         1 T5P     -0.248000
     10 C6          1.1030   -1.9360    0.8180 c         1 T5P      0.752500
     11 O6          0.5740   -2.8580    1.4490 o         1 T5P     -0.589500
     12 C9          2.4290   -0.8880   -0.7170 cc        1 T5P     -0.308600
     13 C4          3.2560   -0.5270   -1.8450 c         1 T5P      0.770700
     14 O4          3.4560   -1.1900   -2.8840 o         1 T5P     -0.679500
     15 N3          3.9310    0.7050   -1.6980 n         1 T5P     -0.597500
     16 C2          3.6840    1.6090   -0.6450 c         1 T5P      0.808500
     17 O2          4.2840    2.7100   -0.6530 o         1 T5P     -0.676500
     18 C8          2.2700   -0.0210    0.3840 cd        1 T5P      0.227200
     19 N1          2.8850    1.2330    0.4750 n         1 T5P     -0.374100
     20 N7          1.5210   -0.6660    1.4070 n         1 T5P     -0.314000
     21 C10         0.6620    0.1490    2.2410 c3        1 T5P     -0.021000
     22 C11        -0.5120   -0.5480    2.9510 c3        1 T5P      0.165100
     23 O19        -1.4040   -1.1730    2.0680 oh        1 T5P     -0.630800
     24 C12        -1.2240    0.5470    3.7820 c3        1 T5P      0.061100
     25 O21        -0.5200    0.7820    4.9940 oh        1 T5P     -0.609800
     26 C13        -2.6890    0.1860    4.0660 c3        1 T5P      0.111100
     27 O23        -3.5520    0.3960    2.9700 oh        1 T5P     -0.656800
     28 C14        -3.2200    1.0270    5.2380 c3        1 T5P      0.113400
     29 O26        -4.6100    0.8330    5.4300 oh        1 T5P     -0.638800
     30 H171       -2.0330   -1.1460   -1.1940 h1        1 T5P     -0.008800
     31 H172       -0.6800   -0.5330   -0.1340 h1        1 T5P     -0.008800
     32 H161        0.6410   -0.3280   -2.4610 hc        1 T5P      0.045200
     33 H162       -0.6270   -1.4560   -3.0750 hc        1 T5P      0.045200
     34 H151        1.2210   -2.8200   -2.4190 h1        1 T5P      0.048700
     35 H152       -0.0900   -3.0610   -1.1580 h1        1 T5P      0.048700
     36 H3          4.4430    1.0570   -2.4750 hn        1 T5P      0.324500
     37 H1          2.2220    1.9690    0.7470 hn        1 T5P      0.404500
     38 H101        0.2030    0.9880    1.5950 h1        1 T5P      0.113200
     39 H102        1.3250    0.5980    3.0340 h1        1 T5P      0.113200
     40 H11        -0.1440   -1.3760    3.6210 h1        1 T5P      0.038700
     41 H19        -1.8060   -0.4790    1.5010 ho        1 T5P      0.480000
     42 H12        -1.1920    1.5280    3.2160 h1        1 T5P      0.144700
     43 H21        -0.4620   -0.0640    5.4510 ho        1 T5P      0.379000
     44 H13        -2.7750   -0.9090    4.3200 h1        1 T5P      0.044700
     45 H23        -3.0870    0.9060    2.2700 ho        1 T5P      0.502000
     46 H141       -3.0200    2.1140    5.0470 h1        1 T5P      0.033700
     47 H142       -2.7360    0.7180    6.2000 h1        1 T5P      0.033700
     48 H26        -5.0100    0.8020    4.5490 ho        1 T5P      0.423000
@<TRIPOS>BOND
     1    1    2 1   
     2    2    3 1   
     3    2    4 1   
     4    2    5 1   
     5    5    6 1   
     6    6    7 1   
     7    6   30 1   
     8    6   31 1   
     9    7    8 1   
    10    7   32 1   
    11    7   33 1   
    12    8    9 1   
    13    8   34 1   
    14    8   35 1   
    15    9   10 1   
    16    9   12 1   
    17   10   11 2   
    18   10   20 1   
    19   12   13 1   
    20   12   18 2   
    21   13   14 2   
    22   13   15 1   
    23   15   16 1   
    24   15   36 1   
    25   16   17 2   
    26   16   19 1   
    27   18   19 1   
    28   18   20 1   
    29   19   37 1   
    30   20   21 1   
    31   21   22 1   
    32   21   38 1   
    33   21   39 1   
    34   22   23 1   
    35   22   24 1   
    36   22   40 1   
    37   23   41 1   
    38   24   25 1   
    39   24   26 1   
    40   24   42 1   
    41   25   43 1   
    42   26   27 1   
    43   26   28 1   
    44   26   44 1   
    45   27   45 1   
    46   28   29 1   
    47   28   46 1   
    48   28   47 1   
    49   29   48 1   
@<TRIPOS>SUBSTRUCTURE
     1 T5P         1 TEMP              0 ****  ****    0 ROOT
