@<TRIPOS>MOLECULE
T5P
   48    49     1     0     0
SMALL
bcc


@<TRIPOS>ATOM
      1 O33         4.5920    4.1750   -2.7920 o         1 T5P     -0.921167
      2 P           4.2000    4.2200   -4.2330 p5        1 T5P      1.331900
      3 O31         3.3690    5.3700   -4.7620 o         1 T5P     -0.921167
      4 O32         5.2130    3.8990   -5.3070 o         1 T5P     -0.921167
      5 O27         3.0750    2.9400   -4.4440 os        1 T5P     -0.595200
      6 C17         2.6020    2.2960   -3.3260 c3        1 T5P      0.200400
      7 C16         1.1080    2.5370   -3.0920 c3        1 T5P     -0.133400
      8 C15         0.1790    1.9000   -4.1210 c3        1 T5P      0.073000
      9 N5          0.1020    2.5020   -5.4450 n         1 T5P     -0.249000
     10 C6          1.1430    2.0940   -6.3860 c         1 T5P      0.784500
     11 O6          1.3710    0.9230   -6.7270 o         1 T5P     -0.635500
     12 C9          0.1300    3.9350   -5.5060 cc        1 T5P     -0.298600
     13 C4         -0.6940    4.8690   -4.7770 c         1 T5P      0.768700
     14 O4         -1.5940    4.6030   -3.9510 o         1 T5P     -0.693500
     15 N3         -0.4570    6.2230   -5.0930 ns        1 T5P     -0.595500
     16 C2          0.6160    6.6600   -5.8990 c         1 T5P      0.818500
     17 O2          0.7680    7.8930   -6.0610 o         1 T5P     -0.678500
     18 C8          1.1460    4.3780   -6.3870 cd        1 T5P      0.233200
     19 N1          1.4090    5.7290   -6.6290 ns        1 T5P     -0.377100
     20 N7          1.7090    3.2630   -7.0580 n         1 T5P     -0.306000
     21 C10         3.0920    3.1780   -7.4780 c3        1 T5P     -0.004000
     22 C11         3.5130    4.1520   -8.5950 c3        1 T5P      0.113100
     23 O19         3.6880    3.4510   -9.8180 oh        1 T5P     -0.623800
     24 C12         4.8110    4.8660   -8.1480 c3        1 T5P      0.123100
     25 O21         4.4620    5.9500   -7.3160 oh        1 T5P     -0.667800
     26 C13         5.5630    5.4440   -9.3630 c3        1 T5P      0.137100
     27 O23         6.2500    4.3620   -9.9860 oh        1 T5P     -0.612800
     28 C14         6.5580    6.5080   -8.8990 c3        1 T5P      0.089400
     29 O26         7.2520    6.9710  -10.0560 oh        1 T5P     -0.639800
     30 H171        2.7530    1.1810   -3.4530 h1        1 T5P      0.010200
     31 H172        3.1660    2.6350   -2.4080 h1        1 T5P      0.010200
     32 H161        0.9150    3.6400   -3.0480 hc        1 T5P      0.035200
     33 H162        0.8370    2.1020   -2.0930 hc        1 T5P      0.035200
     34 H151        0.4660    0.8210   -4.2680 h1        1 T5P      0.042700
     35 H152       -0.8760    1.9510   -3.7210 h1        1 T5P      0.042700
     36 H3         -0.9110    6.9190   -4.5480 hn        1 T5P      0.321500
     37 H1          2.4080    5.9680   -6.6160 hn        1 T5P      0.410500
     38 H101        3.7770    3.3320   -6.5670 h1        1 T5P      0.121700
     39 H102        3.2400    2.1230   -7.8510 h1        1 T5P      0.121700
     40 H11         2.7230    4.9170   -8.8310 h1        1 T5P      0.075700
     41 H19         4.5280    2.9780   -9.7550 ho        1 T5P      0.406000
     42 H12         5.4820    4.1430   -7.5950 h1        1 T5P      0.122700
     43 H21         4.4790    5.6080   -6.3780 ho        1 T5P      0.508000
     44 H13         4.8400    5.8910  -10.0990 h1        1 T5P      0.040700
     45 H23         6.7710    4.7530  -10.6970 ho        1 T5P      0.395000
     46 H141        7.2860    6.0610   -8.1720 h1        1 T5P      0.057700
     47 H142        6.0050    7.3530   -8.4110 h1        1 T5P      0.057700
     48 H26         7.8780    7.6320   -9.7440 ho        1 T5P      0.387000
@<TRIPOS>BOND
     1    1    2 1   
     2    2    3 1   
     3    2    4 1   
     4    2    5 1   
     5    5    6 1   
     6    6    7 1   
     7    6   30 1   
     8    6   31 1   
     9    7    8 1   
    10    7   32 1   
    11    7   33 1   
    12    8    9 1   
    13    8   34 1   
    14    8   35 1   
    15    9   10 1   
    16    9   12 1   
    17   10   11 2   
    18   10   20 1   
    19   12   13 1   
    20   12   18 2   
    21   13   14 2   
    22   13   15 1   
    23   15   16 1   
    24   15   36 1   
    25   16   17 2   
    26   16   19 1   
    27   18   19 1   
    28   18   20 1   
    29   19   37 1   
    30   20   21 1   
    31   21   22 1   
    32   21   38 1   
    33   21   39 1   
    34   22   23 1   
    35   22   24 1   
    36   22   40 1   
    37   23   41 1   
    38   24   25 1   
    39   24   26 1   
    40   24   42 1   
    41   25   43 1   
    42   26   27 1   
    43   26   28 1   
    44   26   44 1   
    45   27   45 1   
    46   28   29 1   
    47   28   46 1   
    48   28   47 1   
    49   29   48 1   
@<TRIPOS>SUBSTRUCTURE
     1 T5P         1 TEMP              0 ****  ****    0 ROOT
