@<TRIPOS>MOLECULE
T5P
   48    44     1     0     0
SMALL
bcc


@<TRIPOS>ATOM
      1 O33        -8.0290    1.7260    1.6920 o         1 T5P     -0.925833
      2 P          -7.1540    1.1550    0.5740 p5        1 T5P      1.588500
      3 O31        -7.2750    2.0270   -0.6470 o         1 T5P     -0.925833
      4 O32        -7.5990   -0.2100    0.2480 o         1 T5P     -0.925833
      5 O27        -5.6380    1.1190    1.0600 os        1 T5P     -0.744000
      6 C17        -4.5760    0.9810    0.0560 c3        1 T5P      0.078000
      7 C16        -3.2610    0.4880    0.7530 c3        1 T5P     -0.213000
      8 C15        -2.2450    1.6560    0.8170 c3        1 T5P     -0.044000
      9 N5         -0.9400    1.1440    1.0710 n         1 T5P     -0.143000
     10 C6          0.0310    0.9220    0.1360 c2        1 T5P      0.333000
     11 O6         -0.0340    1.2130   -1.0420 o         1 T5P     -0.384000
     12 C9         -0.4350    0.7880    2.3020 c1        1 T5P     -0.199000
     13 C4         -1.0100    0.7980    3.6200 c1        1 T5P      0.452500
     14 O4         -2.2070    1.1450    3.7820 o         1 T5P     -0.396500
     15 N3         -0.2900    0.3760    4.6730 n2        1 T5P     -0.283000
     16 C2          1.0050   -0.0700    4.4940 c1        1 T5P      0.452500
     17 O2          1.7160   -0.2800    5.4750 o         1 T5P     -0.396500
     18 C8          0.8280    0.3540    2.1240 c1        1 T5P      0.133000
     19 N1          1.5690   -0.0810    3.2080 n2        1 T5P     -0.283000
     20 N7          1.1210    0.4360    0.7720 n1        1 T5P     -0.232000
     21 C10         2.4390    0.1490    0.1490 c2        1 T5P     -0.060000
     22 C11         2.3070   -1.0290   -0.8120 c3        1 T5P     -0.027000
     23 O19         2.3200   -2.2420   -0.0820 oh        1 T5P     -0.385000
     24 C12         3.4570   -1.0160   -1.7790 c3        1 T5P     -0.015000
     25 O21         3.9140    0.3440   -1.9690 oh        1 T5P     -0.353000
     26 C13         3.0040   -1.5830   -3.0850 c3        1 T5P     -0.004000
     27 O23         3.2000   -2.9870   -3.0830 oh        1 T5P     -0.380000
     28 C14         3.7960   -0.9680   -4.2200 c3        1 T5P     -0.016000
     29 O26         3.3900   -1.5770   -5.4600 oh        1 T5P     -0.364000
     30 H171       -4.8640    0.3030   -0.6540 h1        1 T5P      0.036000
     31 H172       -4.4090    1.8560   -0.3730 h1        1 T5P      0.036000
     32 H161       -3.4600    0.1940    1.6360 hc        1 T5P      0.069500
     33 H162       -2.8790   -0.2490    0.2440 hc        1 T5P      0.069500
     34 H151       -2.4960    2.2570    1.5210 h1        1 T5P      0.097500
     35 H152       -2.2450    2.1690   -0.0970 h1        1 T5P      0.097500
     36 H3         -0.6350    0.4900    5.5570 hn        1 T5P      0.258500
     37 H1          2.4370   -0.3770    3.0860 hn        1 T5P      0.258500
     38 H101        3.1090   -0.0780    0.8670 ha        1 T5P      0.104000
     39 H102        2.7430    0.9320   -0.3400 ha        1 T5P      0.104000
     40 H11         1.4680   -0.9560   -1.3040 h1        1 T5P      0.164000
     41 H19         1.7840   -2.8690   -0.5100 ho        1 T5P      0.295000
     42 H12         4.2000   -1.5680   -1.4180 h1        1 T5P      0.114000
     43 H21         4.8210    0.3970   -1.7860 ho        1 T5P      0.201000
     44 H13         2.0850   -1.3950   -3.2070 h1        1 T5P      0.087000
     45 H23         2.6040   -3.3730   -3.6430 ho        1 T5P      0.302000
     46 H141        4.7520   -1.1240   -4.0770 h1        1 T5P      0.071500
     47 H142        3.6220    0.0030   -4.2570 h1        1 T5P      0.071500
     48 H26         3.9610   -1.3920   -6.0690 ho        1 T5P      0.224000
@<TRIPOS>BOND
     1    1    2 1   
     2    2    3 1   
     3    2    4 1   
     4    2    5 1   
     5    5    6 1   
     6    6    7 1   
     7    6   30 1   
     8    6   31 1   
     9    7    8 1   
    10    7   32 1   
    11    7   33 1   
    12    8    9 1   
    13    8   34 1   
    14    8   35 1   
    15    9   10 1   
    16    9   12 1   
    17   10   11 1   
    18   10   20 1   
    19   12   18 1   
    20   13   14 1   
    21   13   15 1   
    22   15   36 1   
    23   16   17 1   
    24   16   19 1   
    25   19   37 1   
    26   21   22 1   
    27   21   38 1   
    28   21   39 1   
    29   22   23 1   
    30   22   24 1   
    31   22   40 1   
    32   23   41 1   
    33   24   25 1   
    34   24   26 1   
    35   24   42 1   
    36   25   43 1   
    37   26   27 1   
    38   26   28 1   
    39   26   44 1   
    40   27   45 1   
    41   28   29 1   
    42   28   46 1   
    43   28   47 1   
    44   29   48 1   
@<TRIPOS>SUBSTRUCTURE
     1 T5P         1 TEMP              0 ****  ****    0 ROOT
