@<TRIPOS>MOLECULE
T5P
   48    49     1     0     0
SMALL
bcc


@<TRIPOS>ATOM
      1 O33         1.6970   -0.0090    0.2470 o         1 T5P     -0.841000
      2 P           2.8490    0.9140    0.2550 p5        1 T5P      1.425800
      3 O31         3.5600    1.4300    1.4430 o         1 T5P     -0.841000
      4 O32         4.0440    0.3110   -0.6820 oh        1 T5P     -0.780400
      5 O27         2.4680    2.2180   -0.6860 os        1 T5P     -0.579200
      6 C17         1.5850    2.0030   -1.7420 c3        1 T5P      0.198400
      7 C16         2.1670    2.5790   -3.0330 c3        1 T5P     -0.130400
      8 C15         1.1610    2.3880   -4.1650 c3        1 T5P      0.076000
      9 N5          1.4560    3.0070   -5.4380 n         1 T5P     -0.267000
     10 C6          2.6460    2.6470   -6.1670 c         1 T5P      0.769500
     11 O6          3.1510    1.5160   -6.2650 o         1 T5P     -0.627500
     12 C9          1.3030    4.4130   -5.6260 cc        1 T5P     -0.305600
     13 C4          0.2840    5.3020   -5.1220 c         1 T5P      0.760700
     14 O4         -0.6550    5.0230   -4.3510 o         1 T5P     -0.660500
     15 N3          0.3950    6.6300   -5.5900 n         1 T5P     -0.600500
     16 C2          1.3790    7.0790   -6.4940 c         1 T5P      0.806500
     17 O2          1.3710    8.2800   -6.8550 o         1 T5P     -0.674500
     18 C8          2.2820    4.8750   -6.5490 cd        1 T5P      0.208200
     19 N1          2.3360    6.1780   -6.9920 n         1 T5P     -0.444100
     20 N7          3.1060    3.7990   -6.9030 n         1 T5P     -0.360000
     21 C10         4.2390    3.8550   -7.7840 c3        1 T5P      0.084000
     22 C11         3.9250    4.3610   -9.2120 c3        1 T5P      0.056100
     23 O19         4.1550    3.2890  -10.1130 oh        1 T5P     -0.626800
     24 C12         4.7910    5.6310   -9.5080 c3        1 T5P      0.372800
     25 O21         4.5930    6.5960   -8.6210 o         1 T5P     -0.876500
     26 C13         4.4510    6.0920  -10.9680 c3        1 T5P      0.038100
     27 O23         5.1740    5.2660  -11.8740 oh        1 T5P     -0.621800
     28 C14         4.8340    7.5560  -11.1650 c3        1 T5P      0.095400
     29 O26         4.2920    8.0700  -12.3770 oh        1 T5P     -0.643800
     30 H171        1.3760    0.9030   -1.8590 h1        1 T5P      0.025700
     31 H172        0.6160    2.5370   -1.5180 h1        1 T5P      0.025700
     32 H161        2.3920    3.6640   -2.8780 hc        1 T5P      0.054700
     33 H162        3.1300    2.0620   -3.2760 hc        1 T5P      0.054700
     34 H151        0.1590    2.7990   -3.8440 h1        1 T5P      0.072200
     35 H152        1.0590    1.2840   -4.3740 h1        1 T5P      0.072200
     36 H3         -0.2550    7.3090   -5.2640 hn        1 T5P      0.333500
     37 H1          3.0830    6.5000   -7.6360 hn        1 T5P      0.438500
     38 H101        4.6610    2.8110   -7.8470 h1        1 T5P      0.078200
     39 H102        5.0040    4.5470   -7.3250 h1        1 T5P      0.078200
     40 H11         2.8360    4.6180   -9.3240 h1        1 T5P      0.043700
     41 H19         4.9380    3.5100  -10.6330 ho        1 T5P      0.411000
     42 H12         5.8720    5.2730   -9.5440 h1        1 T5P     -0.045300
     43 H21         4.8830    0.7120   -0.4850 ho        1 T5P      0.422000
     44 H13         3.3500    5.9650  -11.1670 h1        1 T5P      0.011700
     45 H23         5.0390    5.6450  -12.7500 ho        1 T5P      0.381000
     46 H141        4.4860    8.1560  -10.2830 h1        1 T5P      0.070700
     47 H142        5.9430    7.6600  -11.2860 h1        1 T5P      0.070700
     48 H26         3.3340    8.0440  -12.2820 ho        1 T5P      0.387000
@<TRIPOS>BOND
     1    1    2 1   
     2    2    3 1   
     3    2    4 1   
     4    2    5 1   
     5    4   43 1   
     6    5    6 1   
     7    6    7 1   
     8    6   30 1   
     9    6   31 1   
    10    7    8 1   
    11    7   32 1   
    12    7   33 1   
    13    8    9 1   
    14    8   34 1   
    15    8   35 1   
    16    9   10 1   
    17    9   12 1   
    18   10   11 2   
    19   10   20 1   
    20   12   13 1   
    21   12   18 2   
    22   13   14 2   
    23   13   15 1   
    24   15   16 1   
    25   15   36 1   
    26   16   17 2   
    27   16   19 1   
    28   18   19 1   
    29   18   20 1   
    30   19   37 1   
    31   20   21 1   
    32   21   22 1   
    33   21   38 1   
    34   21   39 1   
    35   22   23 1   
    36   22   24 1   
    37   22   40 1   
    38   23   41 1   
    39   24   25 1   
    40   24   26 1   
    41   24   42 1   
    42   26   27 1   
    43   26   28 1   
    44   26   44 1   
    45   27   45 1   
    46   28   29 1   
    47   28   46 1   
    48   28   47 1   
    49   29   48 1   
@<TRIPOS>SUBSTRUCTURE
     1 T5P         1 TEMP              0 ****  ****    0 ROOT
