@<TRIPOS>MOLECULE
T5S
   35    36     1     0     0
SMALL
bcc


@<TRIPOS>ATOM
      1 OP3        -2.7270    2.5450   -2.2790 o         1 T5S     -0.925833
      2 P          -2.5790    1.4430   -1.2830 p5        1 T5S      1.342900
      3 OP1        -1.3490    1.4730   -0.3880 o         1 T5S     -0.925833
      4 OP2        -3.7800    0.9210   -0.5350 o         1 T5S     -0.925833
      5 O5'        -2.2410    0.0240   -2.2190 os        1 T5S     -0.567200
      6 N1          1.0280   -1.6750    1.1910 n         1 T5S     -0.365000
      7 C6          1.0160   -0.2960    1.0660 cc        1 T5S      0.099600
      8 C2          2.2200   -2.3380    1.5650 c         1 T5S      0.797500
      9 O2          2.2980   -3.5860    1.7040 o         1 T5S     -0.702500
     10 N3          3.3590   -1.5690    1.8320 n         1 T5S     -0.597500
     11 C4          3.3800   -0.1630    1.7380 c         1 T5S      0.730700
     12 O4          4.4700    0.3840    2.0030 o         1 T5S     -0.662500
     13 C5          2.1200    0.4770    1.3520 cd        1 T5S     -0.223600
     14 SE          2.1170    2.1710    1.3900 ss        1 T5S     -0.232700
     15 CH3         1.4680    2.7010   -0.1480 c3        1 T5S     -0.093000
     16 C2'        -1.4430   -2.0610    1.5620 c3        1 T5S     -0.118400
     17 C5'        -1.1820   -0.7530   -1.8420 c3        1 T5S      0.225400
     18 C4'        -1.5790   -1.8940   -0.8750 c3        1 T5S      0.063100
     19 O4'        -0.3730   -2.6120   -0.5110 os        1 T5S     -0.436600
     20 C1'        -0.1390   -2.5320    0.8890 c3        1 T5S      0.300500
     21 C3'        -2.2390   -1.4090    0.4330 c3        1 T5S      0.104100
     22 O3'        -3.5940   -1.7950    0.5020 oh        1 T5S     -0.657800
     23 H6          0.0490    0.1780    0.6960 h4        1 T5S      0.289000
     24 HN3         4.1910   -2.0590    2.0720 hn        1 T5S      0.324500
     25 HH3         1.3080    3.7970   -0.0280 h1        1 T5S      0.092700
     26 HH3A        2.1760    2.5150   -0.9830 h1        1 T5S      0.092700
     27 HH3B        0.4710    2.2270   -0.3890 h1        1 T5S      0.092700
     28 H2'        -1.9830   -2.9520    1.9670 hc        1 T5S      0.053700
     29 H2'A       -1.2710   -1.3410    2.3960 hc        1 T5S      0.053700
     30 H5'        -0.7520   -1.2530   -2.7610 h1        1 T5S     -0.003300
     31 H5'A       -0.3690   -0.1410   -1.3570 h1        1 T5S     -0.003300
     32 H4'        -2.2310   -2.6440   -1.3930 h1        1 T5S      0.051700
     33 H1'         0.1410   -3.5810    1.2060 h2        1 T5S      0.087700
     34 H3'        -2.1650   -0.2710    0.4810 h1        1 T5S      0.156700
     35 HO3'       -4.0900   -1.0280    0.1390 ho        1 T5S      0.482000
@<TRIPOS>BOND
     1    1    2 1   
     2    2    3 1   
     3    2    4 1   
     4    2    5 1   
     5    5   17 1   
     6    6    7 1   
     7    6    8 1   
     8    6   20 1   
     9    7   13 2   
    10    7   23 1   
    11    8    9 2   
    12    8   10 1   
    13   10   11 1   
    14   10   24 1   
    15   11   12 2   
    16   11   13 1   
    17   13   14 1   
    18   14   15 1   
    19   15   25 1   
    20   15   26 1   
    21   15   27 1   
    22   16   20 1   
    23   16   21 1   
    24   16   28 1   
    25   16   29 1   
    26   17   18 1   
    27   17   30 1   
    28   17   31 1   
    29   18   19 1   
    30   18   21 1   
    31   18   32 1   
    32   19   20 1   
    33   20   33 1   
    34   21   22 1   
    35   21   34 1   
    36   22   35 1   
@<TRIPOS>SUBSTRUCTURE
     1 T5S         1 TEMP              0 ****  ****    0 ROOT
