@<TRIPOS>MOLECULE
T5S
   35    36     1     0     0
SMALL
bcc


@<TRIPOS>ATOM
      1 OP3         0.1430   -4.2430    4.8690 o         1 T5S     -0.928500
      2 P           0.3890   -4.6330    3.4390 p5        1 T5S      1.346900
      3 OP1         1.4770   -5.6870    3.3820 o         1 T5S     -0.928500
      4 OP2        -0.8730   -5.1850    2.8460 o         1 T5S     -0.928500
      5 O5'         0.8430   -3.3670    2.6210 os        1 T5S     -0.567200
      6 N1         -0.0090    0.6480   -0.8790 n         1 T5S     -0.362000
      7 C6          0.0600    1.8810   -1.5890 cc        1 T5S      0.072600
      8 C2         -0.7820   -0.4690   -1.4250 c         1 T5S      0.795500
      9 O2         -0.7220   -1.5710   -0.8930 o         1 T5S     -0.704500
     10 N3         -1.5970   -0.2800   -2.6300 n         1 T5S     -0.594500
     11 C4         -1.5400    0.9580   -3.3440 c         1 T5S      0.731700
     12 O4         -2.1990    1.1090   -4.3520 o         1 T5S     -0.663500
     13 C5         -0.6780    2.0430   -2.8600 cd        1 T5S     -0.211600
     14 SE         -0.6750    3.7670   -3.7740 ss        1 T5S     -0.208700
     15 CH3         0.3750    3.6380   -5.4030 c3        1 T5S     -0.105000
     16 C2'         0.0400    1.1530    1.3110 c3        1 T5S     -0.117400
     17 C5'         0.0560   -2.2060    2.6870 c3        1 T5S      0.225400
     18 C4'         0.8360   -1.0210    2.0580 c3        1 T5S      0.064100
     19 O4'         0.6870   -1.0190    0.8140 os        1 T5S     -0.437600
     20 C1'         0.6770    0.5020    0.3730 c3        1 T5S      0.301500
     21 C3'         0.2390    0.3470    2.5440 c3        1 T5S      0.103100
     22 O3'         1.1160    0.9730    3.3810 oh        1 T5S     -0.658800
     23 H6          0.5380    2.6390   -1.2030 h4        1 T5S      0.286000
     24 HN3        -2.0780   -0.9790   -2.9680 hn        1 T5S      0.325500
     25 HH3        -0.1950    3.3100   -6.1360 h1        1 T5S      0.095367
     26 HH3A        0.7310    4.5290   -5.6360 h1        1 T5S      0.095367
     27 HH3B        1.1200    3.0150   -5.2630 h1        1 T5S      0.095367
     28 H2'        -0.9110    1.2140    1.0960 hc        1 T5S      0.052200
     29 H2'A        0.4280    2.0620    1.4250 hc        1 T5S      0.052200
     30 H5'        -0.7890   -2.3510    2.1840 h1        1 T5S     -0.000800
     31 H5'A       -0.1530   -2.0020    3.6290 h1        1 T5S     -0.000800
     32 H4'         1.7930   -1.0780    2.2900 h1        1 T5S      0.049700
     33 H1'         1.5990    0.8370    0.2950 h2        1 T5S      0.086700
     34 H3'        -0.6250    0.2020    3.0000 h1        1 T5S      0.156700
     35 HO3'        0.6790    1.2640    4.1100 ho        1 T5S      0.483000
@<TRIPOS>BOND
     1    1    2 1   
     2    2    3 1   
     3    2    4 1   
     4    2    5 1   
     5    5   17 1   
     6    6    7 1   
     7    6    8 1   
     8    6   20 1   
     9    7   13 2   
    10    7   23 1   
    11    8    9 2   
    12    8   10 1   
    13   10   11 1   
    14   10   24 1   
    15   11   12 2   
    16   11   13 1   
    17   13   14 1   
    18   14   15 1   
    19   15   25 1   
    20   15   26 1   
    21   15   27 1   
    22   16   20 1   
    23   16   21 1   
    24   16   28 1   
    25   16   29 1   
    26   17   18 1   
    27   17   30 1   
    28   17   31 1   
    29   18   19 1   
    30   18   21 1   
    31   18   32 1   
    32   19   20 1   
    33   20   33 1   
    34   21   22 1   
    35   21   34 1   
    36   22   35 1   
@<TRIPOS>SUBSTRUCTURE
     1 T5S         1 TEMP              0 ****  ****    0 ROOT
