@<TRIPOS>MOLECULE
T5X
   65    62     1     0     0
SMALL
bcc


@<TRIPOS>ATOM
      1 O2A         0.0000    0.0000    0.0000 o         1 T5X     -0.641500
      2 PA          1.6100    0.0000    0.0000 p5        1 T5X      1.450000
      3 O1A         2.1040    0.0000    1.3940 o         1 T5X     -0.641500
      4 O3A         2.1470   -1.3160   -0.7590 os        1 T5X     -0.950000
      5 PB          2.2370   -2.8740   -0.3670 p5        1 T5X      1.118500
      6 O3B         3.4410   -3.0960    0.6780 o         1 T5X     -0.437167
      7 O2B         0.9620   -3.3020    0.2510 o         1 T5X     -0.437167
      8 O1B         2.5080   -3.7460   -1.6930 o         1 T5X     -0.437167
      9 O7          2.1470    1.3140   -0.7600 os        1 T5X     -0.677000
     10 C7          1.9300    2.6390   -0.2700 c3        1 T5X      0.160000
     11 C6          2.5680    3.6470   -1.2280 c3        1 T5X     -0.043000
     12 C5          2.3390    5.0440   -0.7120 c2        1 T5X     -0.244000
     13 S1          0.9590    6.0750   -1.0880 ss        1 T5X      0.282000
     14 C2          1.6050    7.3120   -0.1010 c2        1 T5X     -0.615000
     15 CX2         0.9590    8.6550    0.1300 c3        1 T5X      0.223000
     16 CX3        -0.2690    8.7930   -0.7710 c3        1 T5X      0.035000
     17 CX4        -0.8470   10.2030   -0.6320 c3        1 T5X      0.038000
     18 CX5        -1.9930   10.3830   -1.6290 c3        1 T5X      0.106000
     19 OX5        -2.4580   11.7340   -1.5810 os        1 T5X     -0.655000
     20 PX         -3.6610   12.2810   -2.5010 p5        1 T5X      0.999500
     21 OX7        -3.3560   12.0100   -3.9230 o         1 T5X     -0.637167
     22 OX6        -5.0290   11.5370   -2.0930 o         1 T5X     -0.637167
     23 OX8        -3.8260   13.8680   -2.2800 o         1 T5X     -0.637167
     24 OX4        -1.3380   10.3870    0.6970 oh        1 T5X     -0.311000
     25 OX3        -1.2540    7.8340   -0.3840 oh        1 T5X     -0.261000
     26 CX1         0.5330    8.7700    1.5940 c3        1 T5X      0.005000
     27 OX1        -0.3570    7.7000    1.9170 oh        1 T5X     -0.280000
     28 OX2         1.8940    9.6910   -0.1760 oh        1 T5X     -0.286000
     29 N3          2.7230    6.9310    0.4170 na        1 T5X      0.708000
     30 C4          3.1420    5.7180    0.1150 c2        1 T5X     -0.250000
     31 CM4         4.4250    5.1420    0.6550 c3        1 T5X     -0.097000
     32 C7,         3.4900    7.8060    1.3080 c1        1 T5X     -0.430000
     33 C5,         3.6570    7.1340    2.6470 c2        1 T5X     -0.160000
     34 C4,         4.9020    6.6530    3.0560 c2        1 T5X     -0.070000
     35 N4,         6.0110    6.7830    2.2350 n1        1 T5X     -0.458000
     36 N3,         5.0080    6.0690    4.2460 n2        1 T5X     -0.047000
     37 C2,         3.9560    5.9430    5.0290 c2        1 T5X     -0.154000
     38 CM2         4.1160    5.2750    6.3700 c3        1 T5X     -0.031000
     39 N1,         2.7680    6.3880    4.6720 n2        1 T5X     -0.146000
     40 C6,         2.5840    6.9860    3.5040 c2        1 T5X     -0.068000
     41 H71         0.8650    2.8290   -0.2030 h1        1 T5X      0.031500
     42 H72         2.3770    2.7390    0.7110 h1        1 T5X      0.031500
     43 H61         3.6330    3.4570   -1.2950 hc        1 T5X      0.056500
     44 H62         2.1210    3.5460   -2.2100 hc        1 T5X      0.056500
     45 HX3         0.0190    8.6200   -1.8010 h1        1 T5X      0.042000
     46 HX4        -0.0730   10.9320   -0.8360 h1        1 T5X      0.049000
     47 HX51       -2.8050    9.7130   -1.3720 h1        1 T5X      0.024000
     48 HX52       -1.6420   10.1580   -2.6290 h1        1 T5X      0.024000
     49 HOX4       -1.4910   11.3050    0.8510 ho        1 T5X      0.188000
     50 HOX3       -1.5640    7.3760   -1.1480 ho        1 T5X      0.173000
     51 HX11        1.4080    8.7160    2.2310 h1        1 T5X      0.071000
     52 HX12        0.0310    9.7170    1.7510 h1        1 T5X      0.071000
     53 HOX1       -0.8110    7.9000    2.7190 ho        1 T5X      0.165000
     54 HOX2        2.1920    9.5930   -1.0650 ho        1 T5X      0.180000
     55 HM41        5.2150    5.8790    0.5720 hc        1 T5X      0.084333
     56 HM42        4.6930    4.2600    0.0860 hc        1 T5X      0.084333
     57 HM43        4.2900    4.8730    1.6960 hc        1 T5X      0.084333
     58 H7,1        1.0000    4.4640    7.9970 DU        1 T5X     -0.004000
     59 H7,2        2.0000    2.9610    8.7430 DU        1 T5X     -0.004000
     60 H4,1        1.0000    6.6060    5.9940 DU        1 T5X     -0.004000
     61 H4,2        2.0000    6.2600    7.6810 DU        1 T5X     -0.004000
     62 HM21        3.1940    4.7720    6.6350 hc        1 T5X      0.027667
     63 HM22        4.9210    4.5510    6.3190 hc        1 T5X      0.027667
     64 HM23        4.3490    6.0210    7.1200 hc        1 T5X      0.027667
     65 H6,         1.6030    7.3480    3.2220 h4        1 T5X      0.131000
@<TRIPOS>BOND
     1    1    2 1   
     2    2    3 1   
     3    2    4 1   
     4    2    9 1   
     5    4    5 1   
     6    5    6 1   
     7    5    7 1   
     8    5    8 1   
     9    9   10 1   
    10   10   11 1   
    11   10   41 1   
    12   10   42 1   
    13   11   12 1   
    14   11   43 1   
    15   11   44 1   
    16   12   13 1   
    17   12   30 1   
    18   13   14 1   
    19   14   15 1   
    20   14   29 1   
    21   15   16 1   
    22   15   26 1   
    23   15   28 1   
    24   16   17 1   
    25   16   25 1   
    26   16   45 1   
    27   17   18 1   
    28   17   24 1   
    29   17   46 1   
    30   18   19 1   
    31   18   47 1   
    32   18   48 1   
    33   19   20 1   
    34   20   21 1   
    35   20   22 1   
    36   20   23 1   
    37   24   49 1   
    38   25   50 1   
    39   26   27 1   
    40   26   51 1   
    41   26   52 1   
    42   27   53 1   
    43   28   54 1   
    44   29   30 1   
    45   29   32 1   
    46   30   31 1   
    47   31   55 1   
    48   31   56 1   
    49   31   57 1   
    50   32   33 1   
    51   33   34 1   
    52   33   40 1   
    53   34   35 1   
    54   34   36 1   
    55   36   37 1   
    56   37   38 1   
    57   37   39 1   
    58   38   62 1   
    59   38   63 1   
    60   38   64 1   
    61   39   40 1   
    62   40   65 1   
@<TRIPOS>SUBSTRUCTURE
     1 T5X         1 TEMP              0 ****  ****    0 ROOT
