@<TRIPOS>MOLECULE
T62
   36    39     1     0     0
SMALL
bcc


@<TRIPOS>ATOM
      1 N18         0.0790    0.2360    0.1730 nv        1 T62     -0.846800
      2 C17         1.4630    0.0840    0.0700 cc        1 T62      0.690200
      3 N16         2.3350    0.0720    1.1570 nd        1 T62     -0.611100
      4 N19         2.1460    0.0310   -1.1930 nc        1 T62     -0.404300
      5 C20         3.4510    0.0060   -0.8390 cd        1 T62      0.029700
      6 C21         4.6680   -0.0410   -1.6180 ca        1 T62     -0.131300
      7 C22         4.6600   -0.0690   -3.0210 ca        1 T62     -0.078000
      8 C23         5.8600   -0.1130   -3.7110 ca        1 T62     -0.137000
      9 C14         7.0770   -0.1310   -3.0120 ca        1 T62     -0.109000
     10 C13         7.1070   -0.1030   -1.6300 ca        1 T62     -0.170300
     11 C12         5.8950   -0.0570   -0.8920 ca        1 T62      0.409600
     12 N11         5.9430   -0.0260    0.5050 nc        1 T62     -0.682000
     13 N15         3.5560    0.0290    0.5930 na        1 T62     -0.022800
     14 C10         4.8340    0.0180    1.2120 cd        1 T62      0.584800
     15 C9          4.8450    0.0570    2.7290 c3        1 T62     -0.082400
     16 C8          6.2130    0.0560    3.3170 ca        1 T62      0.002700
     17 C3          6.8620    1.2670    3.5690 ca        1 T62     -0.230500
     18 C7          6.8270   -1.1540    3.6490 ca        1 T62     -0.230500
     19 C5          8.1040   -1.1410    4.2310 ca        1 T62      0.156600
     20 O6          8.7620   -2.2970    4.5820 oh        1 T62     -0.494100
     21 C4          8.7790    0.0580    4.4940 ca        1 T62     -0.182000
     22 C2          8.1390    1.2560    4.1510 ca        1 T62      0.156600
     23 O1          8.8310    2.4130    4.4250 oh        1 T62     -0.494100
     24 H18A       -0.3040   -0.0930    1.0320 hn        1 T62      0.411800
     25 H18B       -0.4210   -0.0620   -0.6360 hn        1 T62      0.411800
     26 H22         3.6990   -0.0530   -3.5590 ha        1 T62      0.158000
     27 H23         5.8640   -0.1350   -4.8110 ha        1 T62      0.141000
     28 H14         8.0220   -0.1660   -3.5760 ha        1 T62      0.140000
     29 H13         8.0680   -0.1160   -1.0910 ha        1 T62      0.157000
     30 H91C        4.2690   -0.8360    3.1030 hc        1 T62      0.087200
     31 H92C        4.2910    0.9800    3.0570 hc        1 T62      0.087200
     32 H3          6.3840    2.2200    3.3050 ha        1 T62      0.137000
     33 H7          6.3220   -2.1080    3.4490 ha        1 T62      0.137000
     34 H6          8.2090   -3.0470    4.3200 ho        1 T62      0.421000
     35 H4          9.7770    0.0590    4.9510 ha        1 T62      0.168000
     36 H1          8.2980    3.1600    4.1130 ho        1 T62      0.421000
@<TRIPOS>BOND
     1    1    2 1   
     2    1   24 1   
     3    1   25 1   
     4    2    3 2   
     5    2    4 1   
     6    3   13 1   
     7    4    5 2   
     8    5    6 1   
     9    5   13 1   
    10    6    7 ar  
    11    6   11 ar  
    12    7    8 ar  
    13    7   26 1   
    14    8    9 ar  
    15    8   27 1   
    16    9   10 ar  
    17    9   28 1   
    18   10   11 ar  
    19   10   29 1   
    20   11   12 1   
    21   12   14 2   
    22   13   14 1   
    23   14   15 1   
    24   15   16 1   
    25   15   30 1   
    26   15   31 1   
    27   16   17 ar  
    28   16   18 ar  
    29   17   22 ar  
    30   17   32 1   
    31   18   19 ar  
    32   18   33 1   
    33   19   20 1   
    34   19   21 ar  
    35   20   34 1   
    36   21   22 ar  
    37   21   35 1   
    38   22   23 1   
    39   23   36 1   
@<TRIPOS>SUBSTRUCTURE
     1 T62         1 TEMP              0 ****  ****    0 ROOT
