@<TRIPOS>MOLECULE
T62
   37    40     1     0     0
SMALL
bcc


@<TRIPOS>ATOM
      1 N18         0.0070   -0.1300    0.1410 n4        1 T62     -0.731600
      2 C17         1.4580   -0.0580    0.0340 cc        1 T62      0.466200
      3 N16         2.3140    0.0010    1.1290 nd        1 T62     -0.478100
      4 N19         2.1130   -0.0430   -1.2220 nc        1 T62     -0.339300
      5 C20         3.4250    0.0260   -0.8600 cd        1 T62      0.050700
      6 C21         4.6380    0.0740   -1.6430 ca        1 T62     -0.140300
      7 C22         4.6330    0.0520   -3.0440 ca        1 T62     -0.076000
      8 C23         5.8380    0.0990   -3.7310 ca        1 T62     -0.107000
      9 C14         7.0510    0.1660   -3.0310 ca        1 T62     -0.086000
     10 C13         7.0780    0.1890   -1.6450 ca        1 T62     -0.147300
     11 C12         5.8650    0.1430   -0.9140 ca        1 T62      0.404600
     12 N11         5.9040    0.1650    0.4840 nc        1 T62     -0.613000
     13 N15         3.5170    0.0520    0.5770 na        1 T62      0.005200
     14 C10         4.8220    0.1190    1.2100 cd        1 T62      0.573800
     15 C9          4.8210    0.1430    2.7260 c3        1 T62     -0.074400
     16 C8          6.1880    0.0230    3.3080 ca        1 T62     -0.029300
     17 C3          6.9170    1.1770    3.6150 ca        1 T62     -0.206500
     18 C7          6.7100   -1.2420    3.5750 ca        1 T62     -0.206500
     19 C5          7.9870   -1.3460    4.1560 ca        1 T62      0.170600
     20 O6          8.4400   -2.6210    4.3890 oh        1 T62     -0.486600
     21 C4          8.7400   -0.2110    4.4720 ca        1 T62     -0.228000
     22 C2          8.1880    1.0490    4.1940 ca        1 T62      0.170600
     23 O1          8.9630    2.1330    4.5210 oh        1 T62     -0.486600
     24 H18A       -0.2770   -0.1160    1.1290 hn        1 T62      0.481133
     25 H18B       -0.3150   -1.0020   -0.3010 hn        1 T62      0.481133
     26 H22         3.6780   -0.0020   -3.5910 ha        1 T62      0.162000
     27 H23         5.8430    0.0820   -4.8330 ha        1 T62      0.162000
     28 H14         7.9990    0.2020   -3.5930 ha        1 T62      0.163000
     29 H13         8.0390    0.2410   -1.1050 ha        1 T62      0.176000
     30 H91C        4.1820   -0.7050    3.0990 hc        1 T62      0.087700
     31 H92C        4.3450    1.1100    3.0530 hc        1 T62      0.087700
     32 H3          6.5040    2.1730    3.4060 ha        1 T62      0.143500
     33 H7          6.1500   -2.1580    3.3450 ha        1 T62      0.143500
     34 H6          9.3160   -2.5630    4.8010 ho        1 T62      0.429500
     35 H4          9.7370   -0.2840    4.9280 ha        1 T62      0.165000
     36 H1          8.4750    2.9380    4.2920 ho        1 T62      0.429500
     37 H183       -0.4040    0.6750   -0.3520 hn        1 T62      0.481133
@<TRIPOS>BOND
     1    1    2 1   
     2    1   24 1   
     3    1   25 1   
     4    1   37 1   
     5    2    3 2   
     6    2    4 1   
     7    3   13 1   
     8    4    5 2   
     9    5    6 1   
    10    5   13 1   
    11    6    7 ar  
    12    6   11 ar  
    13    7    8 ar  
    14    7   26 1   
    15    8    9 ar  
    16    8   27 1   
    17    9   10 ar  
    18    9   28 1   
    19   10   11 ar  
    20   10   29 1   
    21   11   12 1   
    22   12   14 2   
    23   13   14 1   
    24   14   15 1   
    25   15   16 1   
    26   15   30 1   
    27   15   31 1   
    28   16   17 ar  
    29   16   18 ar  
    30   17   22 ar  
    31   17   32 1   
    32   18   19 ar  
    33   18   33 1   
    34   19   20 1   
    35   19   21 ar  
    36   20   34 1   
    37   21   22 ar  
    38   21   35 1   
    39   22   23 1   
    40   23   36 1   
@<TRIPOS>SUBSTRUCTURE
     1 T62         1 TEMP              0 ****  ****    0 ROOT
