@<TRIPOS>MOLECULE
T62
   36    39     1     0     0
SMALL
bcc


@<TRIPOS>ATOM
      1 N18         0.0750   -0.1390    0.1810 nh        1 T62     -0.846800
      2 C17         1.4620   -0.0220    0.0720 cc        1 T62      0.690200
      3 N16         2.3340    0.0270    1.1580 nd        1 T62     -0.611100
      4 N19         2.1450   -0.0480   -1.1920 nc        1 T62     -0.404300
      5 C20         3.4510   -0.0340   -0.8380 cd        1 T62      0.029700
      6 C21         4.6680   -0.0530   -1.6180 ca        1 T62     -0.131300
      7 C22         4.6610   -0.0980   -3.0210 ca        1 T62     -0.078000
      8 C23         5.8610   -0.1150   -3.7110 ca        1 T62     -0.137000
      9 C14         7.0790   -0.0890   -3.0120 ca        1 T62     -0.109000
     10 C13         7.1090   -0.0460   -1.6300 ca        1 T62     -0.170300
     11 C12         5.8950   -0.0280   -0.8920 ca        1 T62      0.409600
     12 N11         5.9440    0.0130    0.5040 nc        1 T62     -0.682000
     13 N15         3.5560    0.0140    0.5930 na        1 T62     -0.022800
     14 C10         4.8340    0.0290    1.2120 cd        1 T62      0.584800
     15 C9          4.8440    0.0690    2.7290 c3        1 T62     -0.082400
     16 C8          6.2120    0.0590    3.3170 ca        1 T62      0.002700
     17 C3          6.8700    1.2650    3.5720 ca        1 T62     -0.231000
     18 C7          6.8180   -1.1560    3.6470 ca        1 T62     -0.231000
     19 C5          8.0950   -1.1530    4.2290 ca        1 T62      0.156600
     20 O6          8.7460   -2.3140    4.5770 oh        1 T62     -0.494100
     21 C4          8.7780    0.0410    4.4950 ca        1 T62     -0.182000
     22 C2          8.1460    1.2440    4.1550 ca        1 T62      0.156600
     23 O1          8.8450    2.3960    4.4310 oh        1 T62     -0.494100
     24 H18A       -0.4180    0.1290   -0.6430 hn        1 T62      0.411800
     25 H18B       -0.3010    0.2420    1.0220 hn        1 T62      0.411800
     26 H22         3.6990   -0.1190   -3.5570 ha        1 T62      0.158000
     27 H23         5.8650   -0.1500   -4.8110 ha        1 T62      0.141000
     28 H14         8.0240   -0.1030   -3.5770 ha        1 T62      0.140000
     29 H13         8.0700   -0.0270   -1.0930 ha        1 T62      0.157000
     30 H91C        4.2620   -0.8190    3.1040 hc        1 T62      0.087200
     31 H92C        4.2960    0.9970    3.0550 hc        1 T62      0.087200
     32 H3          6.3980    2.2220    3.3100 ha        1 T62      0.137000
     33 H7          6.3060   -2.1060    3.4440 ha        1 T62      0.137000
     34 H6          8.1870   -3.0600    4.3140 ho        1 T62      0.421000
     35 H4          9.7760    0.0340    4.9510 ha        1 T62      0.168000
     36 H1          8.3190    3.1470    4.1200 ho        1 T62      0.421000
@<TRIPOS>BOND
     1    1    2 1   
     2    1   24 1   
     3    1   25 1   
     4    2    3 2   
     5    2    4 1   
     6    3   13 1   
     7    4    5 2   
     8    5    6 1   
     9    5   13 1   
    10    6    7 ar  
    11    6   11 ar  
    12    7    8 ar  
    13    7   26 1   
    14    8    9 ar  
    15    8   27 1   
    16    9   10 ar  
    17    9   28 1   
    18   10   11 ar  
    19   10   29 1   
    20   11   12 1   
    21   12   14 2   
    22   13   14 1   
    23   14   15 1   
    24   15   16 1   
    25   15   30 1   
    26   15   31 1   
    27   16   17 ar  
    28   16   18 ar  
    29   17   22 ar  
    30   17   32 1   
    31   18   19 ar  
    32   18   33 1   
    33   19   20 1   
    34   19   21 ar  
    35   20   34 1   
    36   21   22 ar  
    37   21   35 1   
    38   22   23 1   
    39   23   36 1   
@<TRIPOS>SUBSTRUCTURE
     1 T62         1 TEMP              0 ****  ****    0 ROOT
