@<TRIPOS>MOLECULE
T66
   49    49     1     0     0
SMALL
bcc


@<TRIPOS>ATOM
      1 C8'        -1.9550    0.3570    0.8230 c3        1 T66      0.020000
      2 C7'        -0.4090    0.4710    0.8050 c         1 T66      0.653100
      3 O7'         0.2090    0.4480    1.8430 o         1 T66     -0.649100
      4 C5'         1.5580   -0.0820   -0.6110 c3        1 T66     -0.044300
      5 C'          2.0900   -0.4910    0.7590 c         1 T66      0.912600
      6 O1'         2.9700    0.2020    1.3240 o         1 T66     -0.830300
      7 OXT         1.6440   -1.5420    1.3280 o         1 T66     -0.830300
      8 N4'         0.3000    0.5600   -0.4580 n         1 T66     -0.428800
      9 C3'        -0.2150    1.4070   -1.5200 c3        1 T66      0.054000
     10 C2'         0.4290    2.7980   -1.4230 c3        1 T66      0.113800
     11 N1'        -0.0780    3.6430   -2.4980 n3        1 T66     -0.899800
     12 N1         -2.4370    0.4390    2.2110 n         1 T66     -0.336000
     13 C6         -3.1130    1.6220    2.6680 cc        1 T66      0.075600
     14 C2         -2.3230   -0.7210    3.0890 c         1 T66      0.805500
     15 O2         -1.8460   -1.7530    2.6680 o         1 T66     -0.665500
     16 N3         -2.8630   -0.6620    4.4800 n         1 T66     -0.588500
     17 C4         -3.4540    0.5330    4.9630 c         1 T66      0.723700
     18 O4         -3.8710    0.5880    6.1080 o         1 T66     -0.655500
     19 C5         -3.6200    1.6930    4.0570 cd        1 T66     -0.301400
     20 C5M        -4.3690    2.9160    4.5250 c3        1 T66     -0.016900
     21 CB          1.3940   -1.3140   -1.4780 c3        1 T66     -0.071400
     22 CG          2.7830   -1.7780   -1.9890 c3        1 T66     -0.087400
     23 CD          2.5940   -2.8520   -3.0920 c3        1 T66     -0.115400
     24 CE          3.9700   -3.3750   -3.5410 c3        1 T66      0.142800
     25 NZ          3.8220   -4.1300   -4.7280 n3        1 T66     -0.906800
     26 H8'1       -2.3440    1.0920    0.2960 h1        1 T66      0.115700
     27 H8'2       -2.2250   -0.5040    0.4330 h1        1 T66      0.115700
     28 H5'1        2.1800    0.5270   -1.0300 h1        1 T66      0.058700
     29 H3'1       -0.0020    1.0110   -2.3830 h1        1 T66      0.043700
     30 H3'2       -1.1960    1.4910   -1.4290 h1        1 T66      0.043700
     31 H2'1        1.3970    2.7140   -1.5040 h1        1 T66      0.076700
     32 H2'2        0.2020    3.2110   -0.5360 h1        1 T66      0.076700
     33 H1'1        0.5970    3.8300   -3.0820 hn        1 T66      0.332800
     34 H1'2       -0.4070    4.4390   -2.1390 hn        1 T66      0.332800
     35 H6         -3.2350    2.3780    2.0640 h4        1 T66      0.237000
     36 HN3        -2.7920   -1.3840    5.0250 hn        1 T66      0.336500
     37 HM51       -4.3170    3.6130    3.8380 hc        1 T66      0.041367
     38 HM52       -5.3100    2.6820    4.6860 hc        1 T66      0.041367
     39 HM53       -3.9680    3.2460    5.3560 hc        1 T66      0.041367
     40 HB1         0.9810   -2.0370   -0.9470 hc        1 T66      0.031200
     41 HB2         0.8200   -1.1020   -2.2400 hc        1 T66      0.031200
     42 HG1         3.2710   -1.0070   -2.3610 hc        1 T66      0.062700
     43 HG2         3.2960   -2.1610   -1.2410 hc        1 T66      0.062700
     44 HD1         2.1270   -2.4520   -3.8640 hc        1 T66      0.031700
     45 HD2         2.0580   -3.5980   -2.7350 hc        1 T66      0.031700
     46 HE1         4.5710   -2.6160   -3.7090 h1        1 T66      0.052700
     47 HE2         4.3450   -3.9380   -2.8450 h1        1 T66      0.052700
     48 HZ1         3.4800   -3.5950   -5.3900 hn        1 T66      0.335800
     49 HZ2         3.2620   -4.8160   -4.5770 hn        1 T66      0.335800
@<TRIPOS>BOND
     1    1    2 1   
     2    1   12 1   
     3    1   26 1   
     4    1   27 1   
     5    2    3 2   
     6    2    8 1   
     7    4    5 1   
     8    4    8 1   
     9    4   21 1   
    10    4   28 1   
    11    5    6 1   
    12    5    7 1   
    13    8    9 1   
    14    9   10 1   
    15    9   29 1   
    16    9   30 1   
    17   10   11 1   
    18   10   31 1   
    19   10   32 1   
    20   11   33 1   
    21   11   34 1   
    22   12   13 1   
    23   12   14 1   
    24   13   19 2   
    25   13   35 1   
    26   14   15 2   
    27   14   16 1   
    28   16   17 1   
    29   16   36 1   
    30   17   18 2   
    31   17   19 1   
    32   19   20 1   
    33   20   37 1   
    34   20   38 1   
    35   20   39 1   
    36   21   22 1   
    37   21   40 1   
    38   21   41 1   
    39   22   23 1   
    40   22   42 1   
    41   22   43 1   
    42   23   24 1   
    43   23   44 1   
    44   23   45 1   
    45   24   25 1   
    46   24   46 1   
    47   24   47 1   
    48   25   48 1   
    49   25   49 1   
@<TRIPOS>SUBSTRUCTURE
     1 T66         1 TEMP              0 ****  ****    0 ROOT
