@<TRIPOS>MOLECULE
T66
   49    49     1     0     0
SMALL
bcc


@<TRIPOS>ATOM
      1 C8'         2.9160   -2.0820   -0.5380 c3        1 T66      0.006000
      2 C7'         2.9910   -0.7050   -1.2330 c         1 T66      0.662100
      3 O7'         3.8090    0.1420   -0.8330 o         1 T66     -0.585100
      4 C5'         1.3990    0.7480   -2.3780 c3        1 T66     -0.043300
      5 C'          0.3450    0.7800   -1.2160 c         1 T66      0.900600
      6 O1'         0.6240    0.2000   -0.1270 o         1 T66     -0.834800
      7 OXT        -0.7480    1.3520   -1.4670 o         1 T66     -0.834800
      8 N4'         2.2010   -0.4800   -2.3770 n         1 T66     -0.419800
      9 C3'         1.5520   -1.6120   -3.0050 c3        1 T66      0.039000
     10 C2'         0.1380   -2.0210   -2.5240 c3        1 T66      0.127800
     11 N1'        -0.9850   -1.3210   -3.0870 n3        1 T66     -0.926800
     12 N1          3.3470   -2.0660    0.8440 n         1 T66     -0.344000
     13 C6          2.8100   -1.1360    1.7220 cc        1 T66      0.076600
     14 C2          4.4440   -2.8670    1.2410 c         1 T66      0.803500
     15 O2          4.9850   -3.6860    0.4610 o         1 T66     -0.674500
     16 N3          4.8940   -2.7640    2.5670 n         1 T66     -0.588500
     17 C4          4.3410   -1.8630    3.4980 c         1 T66      0.721700
     18 O4          4.8250   -1.8470    4.6460 o         1 T66     -0.651500
     19 C5          3.2390   -1.0260    3.0150 cd        1 T66     -0.296400
     20 C5M         2.6400   -0.0690    3.9660 c3        1 T66     -0.017900
     21 CB          2.2000    2.0470   -2.3190 c3        1 T66     -0.071400
     22 CG          3.0810    2.2450   -3.5320 c3        1 T66     -0.069400
     23 CD          3.7510    3.6020   -3.5000 c3        1 T66     -0.118400
     24 CE          4.6340    3.8010   -4.7310 c3        1 T66      0.142800
     25 NZ          5.3440    5.0550   -4.8140 n3        1 T66     -0.906800
     26 H8'1        1.8440   -2.4340   -0.5380 h1        1 T66      0.091700
     27 H8'2        3.5570   -2.8080   -1.1140 h1        1 T66      0.091700
     28 H5'1        0.8280    0.7520   -3.3540 h1        1 T66      0.046700
     29 H3'1        2.2220   -2.5130   -2.9000 h1        1 T66      0.037200
     30 H3'2        1.5050   -1.3690   -4.1070 h1        1 T66      0.037200
     31 H2'1        0.0820   -1.9310   -1.4000 h1        1 T66      0.053200
     32 H2'2        0.0210   -3.1100   -2.7980 h1        1 T66      0.053200
     33 H1'1       -0.7810   -0.9980   -4.0120 hn        1 T66      0.364800
     34 H1'2       -1.2450   -0.5310   -2.5200 hn        1 T66      0.364800
     35 H6          2.0000   -0.4920    1.2930 h4        1 T66      0.248000
     36 HN3         5.6640   -3.3380    2.8290 hn        1 T66      0.337500
     37 HM51        2.1840   -0.6190    4.8280 hc        1 T66      0.043700
     38 HM52        1.8490    0.5450    3.4700 hc        1 T66      0.043700
     39 HM53        3.4280    0.6130    4.3710 hc        1 T66      0.043700
     40 HB1         1.4480    2.8790   -2.2530 hc        1 T66      0.063200
     41 HB2         2.8230    2.0760   -1.3860 hc        1 T66      0.063200
     42 HG1         2.4690    2.1500   -4.4680 hc        1 T66      0.037700
     43 HG2         3.8650    1.4420   -3.5610 hc        1 T66      0.037700
     44 HD1         4.3680    3.6880   -2.5680 hc        1 T66      0.037200
     45 HD2         2.9690    4.4050   -3.4580 hc        1 T66      0.037200
     46 HE1         5.3960    2.9710   -4.7670 h1        1 T66      0.048200
     47 HE2         3.9930    3.7100   -5.6540 h1        1 T66      0.048200
     48 HZ1         5.9680    5.1530   -4.0370 hn        1 T66      0.336800
     49 HZ2         4.7000    5.8220   -4.7930 hn        1 T66      0.336800
@<TRIPOS>BOND
     1    1    2 1   
     2    1   12 1   
     3    1   26 1   
     4    1   27 1   
     5    2    3 2   
     6    2    8 1   
     7    4    5 1   
     8    4    8 1   
     9    4   21 1   
    10    4   28 1   
    11    5    6 1   
    12    5    7 1   
    13    8    9 1   
    14    9   10 1   
    15    9   29 1   
    16    9   30 1   
    17   10   11 1   
    18   10   31 1   
    19   10   32 1   
    20   11   33 1   
    21   11   34 1   
    22   12   13 1   
    23   12   14 1   
    24   13   19 2   
    25   13   35 1   
    26   14   15 2   
    27   14   16 1   
    28   16   17 1   
    29   16   36 1   
    30   17   18 2   
    31   17   19 1   
    32   19   20 1   
    33   20   37 1   
    34   20   38 1   
    35   20   39 1   
    36   21   22 1   
    37   21   40 1   
    38   21   41 1   
    39   22   23 1   
    40   22   42 1   
    41   22   43 1   
    42   23   24 1   
    43   23   44 1   
    44   23   45 1   
    45   24   25 1   
    46   24   46 1   
    47   24   47 1   
    48   25   48 1   
    49   25   49 1   
@<TRIPOS>SUBSTRUCTURE
     1 T66         1 TEMP              0 ****  ****    0 ROOT
