@<TRIPOS>MOLECULE
T68
   42    43     1     0     0
SMALL
bcc


@<TRIPOS>ATOM
      1 C1         -0.1970   -1.0760    0.5000 c3        1 T68      0.340300
      2 N1         -0.7130   -2.1050   -0.4990 n4        1 T68     -0.652800
      3 C2          1.3400   -1.1770    0.6720 c3        1 T68      0.121100
      4 N2         -2.5890   -0.7890   -1.6590 n4        1 T68     -0.564600
      5 O2          1.5800   -2.4660    1.1860 oh        1 T68     -0.620800
      6 C3          1.7440   -0.0450    1.6360 c3        1 T68      0.111100
      7 N3         -4.1670    0.2640   -3.7510 nb        1 T68     -0.680000
      8 O3          3.1510   -0.1140    1.7020 oh        1 T68     -0.583800
      9 C4          1.2930    1.3240    1.0770 c3        1 T68      0.084100
     10 O4          1.5100    2.2500    2.1220 oh        1 T68     -0.572800
     11 C5         -0.2120    1.3030    0.7560 c3        1 T68      0.124100
     12 O5         -0.5310    0.1660   -0.0810 os        1 T68     -0.485600
     13 C6         -0.6800    2.4860   -0.1000 c3        1 T68      0.134400
     14 O6         -1.9370    2.1110   -0.6500 oh        1 T68     -0.663800
     15 C7         -2.1650   -1.9110   -0.7870 c         1 T68      0.516100
     16 O7         -2.9850   -2.6780   -0.3040 o         1 T68     -0.314100
     17 C8         -2.1320   -0.9430   -3.1270 c         1 T68      0.524600
     18 O8         -1.0740   -1.5440   -3.2550 o         1 T68     -0.475100
     19 C9         -3.0060   -0.3540   -4.1420 ca        1 T68      0.265800
     20 C10        -2.5990   -0.4650   -5.4880 ca        1 T68     -0.094300
     21 C11        -3.4360    0.0880   -6.4740 ca        1 T68     -0.098000
     22 C12        -4.6140    0.7140   -6.0920 ca        1 T68     -0.126300
     23 C13        -4.9380    0.7770   -4.7050 ca        1 T68      0.432200
     24 H1         -0.7390   -1.2500    1.4800 hx        1 T68      0.136700
     25 HN1        -0.5710   -3.0430   -0.0710 hn        1 T68      0.516800
     26 H2          1.8750   -1.0470   -0.3120 h1        1 T68      0.096700
     27 HN2        -3.6280   -0.7450   -1.6210 hn        1 T68      0.533800
     28 HO2         2.4580   -2.4630    1.6060 ho        1 T68      0.488000
     29 H3          1.2920   -0.2090    2.6550 h1        1 T68      0.088700
     30 HO3         3.4390    0.5080    2.3900 ho        1 T68      0.459000
     31 H4          1.8910    1.5720    0.1580 h1        1 T68      0.087700
     32 HO4         1.8710    3.0610    1.7380 ho        1 T68      0.442000
     33 H5         -0.8130    1.2320    1.7050 h1        1 T68      0.097700
     34 H6          0.0300    2.6730   -0.9490 h1        1 T68      0.082700
     35 H6A        -0.7570    3.3950    0.5530 h1        1 T68      0.082700
     36 HO6        -2.4960    2.9000   -0.6680 ho        1 T68      0.453000
     37 H10        -1.6570   -0.9700   -5.7610 ha        1 T68      0.188000
     38 H11        -3.1470    0.0160   -7.5380 ha        1 T68      0.198000
     39 H12        -5.3010    1.1580   -6.8340 ha        1 T68      0.201000
     40 H13        -5.8750    1.2680   -4.3660 h4        1 T68      0.073100
     41 H121       -0.1580   -2.0480   -1.3740 hn        1 T68      0.516800
     42 H22        -2.2200    0.1280   -1.3000 hn        1 T68      0.533800
@<TRIPOS>BOND
     1    1    2 1   
     2    1    3 1   
     3    1   12 1   
     4    1   24 1   
     5    2   15 1   
     6    2   25 1   
     7    2   41 1   
     8    3    5 1   
     9    3    6 1   
    10    3   26 1   
    11    4   15 1   
    12    4   17 1   
    13    4   27 1   
    14    4   42 1   
    15    5   28 1   
    16    6    8 1   
    17    6    9 1   
    18    6   29 1   
    19    7   19 ar  
    20    7   23 ar  
    21    8   30 1   
    22    9   10 1   
    23    9   11 1   
    24    9   31 1   
    25   10   32 1   
    26   11   12 1   
    27   11   13 1   
    28   11   33 1   
    29   13   14 1   
    30   13   34 1   
    31   13   35 1   
    32   14   36 1   
    33   15   16 2   
    34   17   18 2   
    35   17   19 1   
    36   19   20 ar  
    37   20   21 ar  
    38   20   37 1   
    39   21   22 ar  
    40   21   38 1   
    41   22   23 ar  
    42   22   39 1   
    43   23   40 1   
@<TRIPOS>SUBSTRUCTURE
     1 T68         1 TEMP              0 ****  ****    0 ROOT
