@<TRIPOS>MOLECULE
T68
   42    43     1     0     0
SMALL
bcc


@<TRIPOS>ATOM
      1 C1         -0.1300   -1.0640    0.4770 c3        1 T68      0.340300
      2 N1         -0.6090   -2.1020   -0.5300 ny        1 T68     -0.652800
      3 C2          1.4120   -1.0980    0.6350 c3        1 T68      0.121100
      4 N2         -2.5530   -0.8580   -1.6560 ny        1 T68     -0.564600
      5 O2          1.7130   -2.3810    1.1300 oh        1 T68     -0.620800
      6 C3          1.7740    0.0390    1.6100 c3        1 T68      0.111100
      7 N3         -4.1950    0.1500   -3.7210 nb        1 T68     -0.680000
      8 O3          3.1830    0.0320    1.6630 oh        1 T68     -0.583800
      9 C4          1.2560    1.3940    1.0720 c3        1 T68      0.084100
     10 O4          1.4420    2.3150    2.1270 oh        1 T68     -0.572800
     11 C5         -0.2480    1.3090    0.7640 c3        1 T68      0.124100
     12 O5         -0.5240    0.1690   -0.0850 os        1 T68     -0.485600
     13 C6         -0.7770    2.4810   -0.0720 c3        1 T68      0.134400
     14 O6         -2.0210    2.0560   -0.6170 oh        1 T68     -0.663800
     15 C7         -2.0700   -1.9710   -0.8020 c         1 T68      0.516100
     16 O7         -2.8510   -2.7790   -0.3220 o         1 T68     -0.314100
     17 C8         -2.1030   -0.9730   -3.1310 c         1 T68      0.524600
     18 O8         -1.0200   -1.5250   -3.2750 o         1 T68     -0.475100
     19 C9         -3.0110   -0.4110   -4.1300 ca        1 T68      0.265800
     20 C10        -2.6130   -0.4870   -5.4800 ca        1 T68     -0.094300
     21 C11        -3.4820    0.0400   -6.4520 ca        1 T68     -0.098000
     22 C12        -4.6840    0.6090   -6.0520 ca        1 T68     -0.126300
     23 C13        -4.9970    0.6400   -4.6610 ca        1 T68      0.432200
     24 H1         -0.6540   -1.2740    1.4600 hx        1 T68      0.136700
     25 HN1        -0.0650   -2.0100   -1.4090 hn        1 T68      0.516800
     26 H2          1.9310   -0.9320   -0.3510 h1        1 T68      0.096700
     27 HN2        -2.2220    0.0710   -1.2890 hn        1 T68      0.533800
     28 HO2         2.5950   -2.3440    1.5430 ho        1 T68      0.488000
     29 H3          1.3390   -0.1570    2.6310 h1        1 T68      0.088700
     30 HO3         3.4490    0.6580    2.3560 ho        1 T68      0.459000
     31 H4          1.8340    1.6790    0.1510 h1        1 T68      0.087700
     32 HO4         1.7620    3.1470    1.7500 ho        1 T68      0.442000
     33 H5         -0.8370    1.1990    1.7170 h1        1 T68      0.097700
     34 H6         -0.8880    3.3770    0.5920 h1        1 T68      0.082700
     35 H6A        -0.0840    2.7100   -0.9250 h1        1 T68      0.082700
     36 HO6        -2.6140    2.8200   -0.6210 ho        1 T68      0.453000
     37 H10        -1.6520   -0.9470   -5.7680 ha        1 T68      0.188000
     38 H11        -3.2010   -0.0060   -7.5200 ha        1 T68      0.198000
     39 H12        -5.3960    1.0310   -6.7820 ha        1 T68      0.201000
     40 H13        -5.9510    1.0850   -4.3080 h4        1 T68      0.073100
     41 H121       -0.4210   -3.0380   -0.1140 hn        1 T68      0.516800
     42 H22        -3.5920   -0.8600   -1.6080 hn        1 T68      0.533800
@<TRIPOS>BOND
     1    1    2 1   
     2    1    3 1   
     3    1   12 1   
     4    1   24 1   
     5    2   15 1   
     6    2   25 1   
     7    2   41 1   
     8    3    5 1   
     9    3    6 1   
    10    3   26 1   
    11    4   15 1   
    12    4   17 1   
    13    4   27 1   
    14    4   42 1   
    15    5   28 1   
    16    6    8 1   
    17    6    9 1   
    18    6   29 1   
    19    7   19 ar  
    20    7   23 ar  
    21    8   30 1   
    22    9   10 1   
    23    9   11 1   
    24    9   31 1   
    25   10   32 1   
    26   11   12 1   
    27   11   13 1   
    28   11   33 1   
    29   13   14 1   
    30   13   34 1   
    31   13   35 1   
    32   14   36 1   
    33   15   16 2   
    34   17   18 2   
    35   17   19 1   
    36   19   20 ar  
    37   20   21 ar  
    38   20   37 1   
    39   21   22 ar  
    40   21   38 1   
    41   22   23 ar  
    42   22   39 1   
    43   23   40 1   
@<TRIPOS>SUBSTRUCTURE
     1 T68         1 TEMP              0 ****  ****    0 ROOT
