@<TRIPOS>MOLECULE
T68
   40    41     1     0     0
SMALL
bcc


@<TRIPOS>ATOM
      1 C1          1.7080    0.5710   -0.2870 c3        1 T68      0.242500
      2 N1          0.3650    0.9670    0.0860 n         1 T68     -0.526900
      3 C2          2.7230    1.7350   -0.1070 c3        1 T68      0.091100
      4 N2         -1.9810    0.3710   -0.1200 n         1 T68     -0.593500
      5 O2          2.5020    2.7710   -1.0440 oh        1 T68     -0.601800
      6 C3          4.1380    1.2110   -0.4010 c3        1 T68      0.108100
      7 N3         -4.5390    0.4130    1.2130 nb        1 T68     -0.662000
      8 O3          5.1120    2.1890   -0.0780 oh        1 T68     -0.608800
      9 C4          4.4440   -0.0130    0.4780 c3        1 T68      0.117100
     10 O4          5.6800   -0.5960    0.1070 oh        1 T68     -0.594800
     11 C5          3.3500   -1.0740    0.2660 c3        1 T68      0.151100
     12 O5          2.0820   -0.5070    0.5960 os        1 T68     -0.447600
     13 C6          3.5510   -2.2570    1.2170 c3        1 T68      0.135400
     14 O6          2.9370   -3.3810    0.6090 oh        1 T68     -0.594800
     15 C7         -0.7010    0.4710   -0.7180 c         1 T68      0.755100
     16 O7         -0.5160    0.1970   -1.9180 o         1 T68     -0.556100
     17 C8         -3.1620    0.2740   -0.8590 c         1 T68      0.585600
     18 O8         -3.1920    0.3560   -2.0940 o         1 T68     -0.526100
     19 C9         -4.4390    0.0380   -0.0870 ca        1 T68      0.345800
     20 C10        -5.5010   -0.5600   -0.7970 ca        1 T68     -0.184300
     21 C11        -6.7100   -0.7810   -0.1310 ca        1 T68     -0.100000
     22 C12        -6.8250   -0.4000    1.2040 ca        1 T68     -0.221300
     23 C13        -5.7100    0.1950    1.8300 ca        1 T68      0.393200
     24 H1          1.7280    0.2170   -1.3630 h2        1 T68      0.109700
     25 HN1         0.2200    0.9570    1.0750 hn        1 T68      0.295500
     26 H2          2.6750    2.1460    0.9390 h1        1 T68      0.059700
     27 HN2        -2.0540    0.4470    0.8700 hn        1 T68      0.336500
     28 HO2         1.5830    3.0560   -0.9580 ho        1 T68      0.427000
     29 H3          4.2240    0.9400   -1.4900 h1        1 T68      0.069700
     30 HO3         4.8880    2.9800   -0.5880 ho        1 T68      0.429000
     31 H4          4.4820    0.3000    1.5580 h1        1 T68      0.058700
     32 HO4         6.3320    0.1190    0.1120 ho        1 T68      0.426000
     33 H5          3.3490   -1.4310   -0.8000 h1        1 T68      0.084700
     34 H6          4.6530   -2.4380    1.3420 h1        1 T68      0.045700
     35 H6A         3.0790   -2.0420    2.2120 h1        1 T68      0.045700
     36 HO6         3.0360   -4.1140    1.2280 ho        1 T68      0.403000
     37 H10        -5.3670   -0.8310   -1.8560 ha        1 T68      0.174000
     38 H11        -7.5550   -1.2470   -0.6580 ha        1 T68      0.149000
     39 H12        -7.7570   -0.5540    1.7640 ha        1 T68      0.150000
     40 H13        -5.7590    0.5150    2.8870 h4        1 T68      0.028100
@<TRIPOS>BOND
     1    1    2 1   
     2    1    3 1   
     3    1   12 1   
     4    1   24 1   
     5    2   15 1   
     6    2   25 1   
     7    3    5 1   
     8    3    6 1   
     9    3   26 1   
    10    4   15 1   
    11    4   17 1   
    12    4   27 1   
    13    5   28 1   
    14    6    8 1   
    15    6    9 1   
    16    6   29 1   
    17    7   19 ar  
    18    7   23 ar  
    19    8   30 1   
    20    9   10 1   
    21    9   11 1   
    22    9   31 1   
    23   10   32 1   
    24   11   12 1   
    25   11   13 1   
    26   11   33 1   
    27   13   14 1   
    28   13   34 1   
    29   13   35 1   
    30   14   36 1   
    31   15   16 2   
    32   17   18 2   
    33   17   19 1   
    34   19   20 ar  
    35   20   21 ar  
    36   20   37 1   
    37   21   22 ar  
    38   21   38 1   
    39   22   23 ar  
    40   22   39 1   
    41   23   40 1   
@<TRIPOS>SUBSTRUCTURE
     1 T68         1 TEMP              0 ****  ****    0 ROOT
