@<TRIPOS>MOLECULE
T68
   42    43     1     0     0
SMALL
bcc


@<TRIPOS>ATOM
      1 C1         -0.2140   -1.0400    0.5360 c3        1 T68      0.340300
      2 N1         -0.7480   -2.0910   -0.4280 n4        1 T68     -0.652800
      3 C2          1.3210   -1.1620    0.7120 c3        1 T68      0.121100
      4 N2         -2.6020   -0.7820   -1.6310 n4        1 T68     -0.564600
      5 O2          1.5390   -2.4360    1.2680 oh        1 T68     -0.620800
      6 C3          1.7450   -0.0060    1.6400 c3        1 T68      0.111100
      7 N3         -4.1610    0.2310   -3.7560 nb        1 T68     -0.680000
      8 O3          3.1500   -0.0960    1.7090 oh        1 T68     -0.583800
      9 C4          1.3160    1.3530    1.0360 c3        1 T68      0.084100
     10 O4          1.5500    2.3070    2.0510 oh        1 T68     -0.572800
     11 C5         -0.1880    1.3470    0.7160 c3        1 T68      0.124100
     12 O5         -0.5270    0.1890   -0.0840 os        1 T68     -0.485600
     13 C6         -0.6370    2.5090   -0.1780 c3        1 T68      0.134400
     14 O6         -1.9000    2.1380   -0.7160 oh        1 T68     -0.663800
     15 C7         -2.1960   -1.8830   -0.7230 c         1 T68      0.516100
     16 O7         -3.0290   -2.6190   -0.2160 o         1 T68     -0.314100
     17 C8         -2.1480   -0.9920   -3.0940 c         1 T68      0.524600
     18 O8         -1.1010   -1.6150   -3.2010 o         1 T68     -0.475100
     19 C9         -3.0110   -0.4200   -4.1270 ca        1 T68      0.265800
     20 C10        -2.6070   -0.5820   -5.4680 ca        1 T68     -0.094300
     21 C11        -3.4340   -0.0460   -6.4710 ca        1 T68     -0.098000
     22 C12        -4.6010    0.6130   -6.1110 ca        1 T68     -0.126300
     23 C13        -4.9230    0.7270   -4.7260 ca        1 T68      0.432200
     24 H1         -0.7590   -1.1730    1.5210 hx        1 T68      0.136700
     25 HN1        -0.6220   -3.0170    0.0300 hn        1 T68      0.516800
     26 H2          1.8580   -1.0720   -0.2750 h1        1 T68      0.096700
     27 HN2        -2.2170    0.1400   -1.3020 hn        1 T68      0.533800
     28 HO2         2.4170   -2.4350    1.6880 ho        1 T68      0.488000
     29 H3          1.2900   -0.1290    2.6630 h1        1 T68      0.088700
     30 HO3         3.4490    0.5430    2.3750 ho        1 T68      0.459000
     31 H4          1.9180    1.5600    0.1100 h1        1 T68      0.087700
     32 HO4         1.9240    3.1000    1.6410 ho        1 T68      0.442000
     33 H5         -0.7910    1.3160    1.6660 h1        1 T68      0.097700
     34 H6          0.0760    2.6570   -1.0320 h1        1 T68      0.082700
     35 H6A        -0.6980    3.4400    0.4450 h1        1 T68      0.082700
     36 HO6        -2.4450    2.9350   -0.7610 ho        1 T68      0.453000
     37 H10        -1.6750   -1.1130   -5.7250 ha        1 T68      0.188000
     38 H11        -3.1480   -0.1580   -7.5330 ha        1 T68      0.198000
     39 H12        -5.2800    1.0450   -6.8670 ha        1 T68      0.201000
     40 H13        -5.8510    1.2460   -4.4040 h4        1 T68      0.073100
     41 H121       -0.1920   -2.0730   -1.3050 hn        1 T68      0.516800
     42 H22        -3.6390   -0.7190   -1.5940 hn        1 T68      0.533800
@<TRIPOS>BOND
     1    1    2 1   
     2    1    3 1   
     3    1   12 1   
     4    1   24 1   
     5    2   15 1   
     6    2   25 1   
     7    2   41 1   
     8    3    5 1   
     9    3    6 1   
    10    3   26 1   
    11    4   15 1   
    12    4   17 1   
    13    4   27 1   
    14    4   42 1   
    15    5   28 1   
    16    6    8 1   
    17    6    9 1   
    18    6   29 1   
    19    7   19 ar  
    20    7   23 ar  
    21    8   30 1   
    22    9   10 1   
    23    9   11 1   
    24    9   31 1   
    25   10   32 1   
    26   11   12 1   
    27   11   13 1   
    28   11   33 1   
    29   13   14 1   
    30   13   34 1   
    31   13   35 1   
    32   14   36 1   
    33   15   16 2   
    34   17   18 2   
    35   17   19 1   
    36   19   20 ar  
    37   20   21 ar  
    38   20   37 1   
    39   21   22 ar  
    40   21   38 1   
    41   22   23 ar  
    42   22   39 1   
    43   23   40 1   
@<TRIPOS>SUBSTRUCTURE
     1 T68         1 TEMP              0 ****  ****    0 ROOT
