@<TRIPOS>MOLECULE
T6A
   51    53     1     0     0
SMALL
bcc


@<TRIPOS>ATOM
      1 P           1.1970    1.2950   -7.0040 p5        1 T6A      1.335900
      2 OP1         2.1830    2.1380   -6.2510 o         1 T6A     -0.931833
      3 OP2         1.5440    0.8740   -8.3990 o         1 T6A     -0.931833
      4 OP3        -0.2550    1.6580   -6.7510 o         1 T6A     -0.931833
      5 O5'         1.2370   -0.1970   -6.1070 os        1 T6A     -0.559200
      6 C5'         0.9170   -0.0640   -4.7830 c3        1 T6A      0.232400
      7 C4'        -0.5350   -0.5380   -4.5300 c3        1 T6A      0.056100
      8 O4'        -0.6050   -1.2800   -3.2880 os        1 T6A     -0.437600
      9 C3'        -1.5590    0.6090   -4.4700 c3        1 T6A      0.130100
     10 O3'        -2.4410    0.5570   -5.5670 oh        1 T6A     -0.688800
     11 C2'        -2.3690    0.3830   -3.1750 c3        1 T6A      0.101100
     12 O2'        -3.7140    0.0030   -3.3720 oh        1 T6A     -0.612800
     13 C1'        -1.6280   -0.7830   -2.4370 c3        1 T6A      0.219800
     14 N9         -1.0440   -0.3990   -1.1590 na        1 T6A     -0.256000
     15 C8          0.1880    0.2540   -0.9390 cc        1 T6A      0.444700
     16 N7          0.5000    0.4000    0.3620 nd        1 T6A     -0.587100
     17 C5         -0.5570   -0.1990    1.0610 ca        1 T6A     -0.212200
     18 C6         -0.8260   -0.3880    2.4590 ca        1 T6A      0.643200
     19 N6          0.0610    0.1330    3.3960 n         1 T6A     -0.566400
     20 N1         -1.9770   -1.0260    2.8310 nb        1 T6A     -0.749000
     21 C2         -2.7990   -1.4680    1.8370 ca        1 T6A      0.643900
     22 N3         -2.6820   -1.3740    0.4960 nb        1 T6A     -0.718000
     23 C4         -1.5420   -0.7220    0.1110 ca        1 T6A      0.436800
     24 C10         0.1770   -0.3390    4.7430 c         1 T6A      0.778100
     25 O10        -0.1680   -1.5040    5.0500 o         1 T6A     -0.625100
     26 N11         0.7670    0.5220    5.6600 n         1 T6A     -0.534900
     27 C12         0.8050    0.1990    7.0670 c3        1 T6A     -0.061300
     28 C13         0.4910    1.4510    7.9610 c         1 T6A      0.904600
     29 ODA        -0.2530    1.2720    8.9590 o         1 T6A     -0.832300
     30 ODB         1.0420    2.5460    7.6470 o         1 T6A     -0.832300
     31 C14         2.1810   -0.3430    7.5280 c3        1 T6A      0.150100
     32 O14         3.2440    0.5800    7.3300 oh        1 T6A     -0.644800
     33 C15         2.5630   -1.6280    6.8170 c3        1 T6A     -0.094100
     34 H5'         1.0360    1.0030   -4.4410 h1        1 T6A     -0.000300
     35 H5''        1.5910   -0.7240   -4.1600 h1        1 T6A     -0.000300
     36 H4'        -0.8250   -1.2720   -5.3320 h1        1 T6A      0.075700
     37 H3'        -1.0410    1.6080   -4.4500 h1        1 T6A      0.105700
     38 HO3'       -1.9250    0.9130   -6.3340 ho        1 T6A      0.516000
     39 H2'        -2.4130    1.3150   -2.5530 h1        1 T6A      0.069700
     40 HO2'       -3.7930   -0.3540   -4.2670 ho        1 T6A      0.426000
     41 H1'        -2.3430   -1.6350   -2.2330 h2        1 T6A      0.086700
     42 H8          0.8010    0.5800   -1.7960 h5        1 T6A      0.104800
     43 HN6         0.7880    0.7090    3.0330 hn        1 T6A      0.340500
     44 H2         -3.7110   -1.9860    2.1990 h5        1 T6A      0.030100
     45 HN1         0.8760    1.4900    5.4520 hn        1 T6A      0.327500
     46 H12         0.0370   -0.5980    7.2900 h1        1 T6A      0.078700
     47 H14         2.0890   -0.5290    8.6380 h1        1 T6A      0.027700
     48 HO4         2.8650    1.4720    7.3870 ho        1 T6A      0.439000
     49 H151        3.3610   -2.1610    7.3860 hc        1 T6A      0.033033
     50 H152        1.6670   -2.2860    6.7220 hc        1 T6A      0.033033
     51 H153        2.9510   -1.4020    5.7950 hc        1 T6A      0.033033
@<TRIPOS>BOND
     1    1    2 1   
     2    1    3 1   
     3    1    4 1   
     4    1    5 1   
     5    5    6 1   
     6    6    7 1   
     7    6   34 1   
     8    6   35 1   
     9    7    8 1   
    10    7    9 1   
    11    7   36 1   
    12    8   13 1   
    13    9   10 1   
    14    9   11 1   
    15    9   37 1   
    16   10   38 1   
    17   11   12 1   
    18   11   13 1   
    19   11   39 1   
    20   12   40 1   
    21   13   14 1   
    22   13   41 1   
    23   14   15 1   
    24   14   23 1   
    25   15   16 2   
    26   15   42 1   
    27   16   17 1   
    28   17   18 ar  
    29   17   23 ar  
    30   18   19 1   
    31   18   20 ar  
    32   19   24 1   
    33   19   43 1   
    34   20   21 ar  
    35   21   22 ar  
    36   21   44 1   
    37   22   23 ar  
    38   24   25 2   
    39   24   26 1   
    40   26   27 1   
    41   26   45 1   
    42   27   28 1   
    43   27   31 1   
    44   27   46 1   
    45   28   29 1   
    46   28   30 1   
    47   31   32 1   
    48   31   33 1   
    49   31   47 1   
    50   32   48 1   
    51   33   49 1   
    52   33   50 1   
    53   33   51 1   
@<TRIPOS>SUBSTRUCTURE
     1 T6A         1 TEMP              0 ****  ****    0 ROOT
