@<TRIPOS>MOLECULE
T6C
   13    13     1     0     0
SMALL
bcc


@<TRIPOS>ATOM
      1 CL2        -0.0180    0.0350   -0.1750 cl        1 T6C     -0.064400
      2 C2          1.6750    0.0430   -0.0750 ca        1 T6C     -0.031600
      3 C1          2.3380    0.1390    1.1680 ca        1 T6C      0.146100
      4 C6          3.7470    0.1420    1.1980 ca        1 T6C     -0.031600
      5 CL6         4.5800    0.2560    2.6770 cl        1 T6C     -0.064400
      6 O1          1.5610    0.2260    2.2930 oh        1 T6C     -0.472100
      7 C3          2.4160   -0.0480   -1.2550 ca        1 T6C     -0.084000
      8 C4          3.8120   -0.0430   -1.2050 ca        1 T6C     -0.007600
      9 CL4         4.7030   -0.1540   -2.6460 cl        1 T6C     -0.075400
     10 C5          4.4840    0.0510    0.0160 ca        1 T6C     -0.084000
     11 H1          2.1460    0.2860    3.0670 ho        1 T6C      0.436000
     12 H2          1.8950   -0.1220   -2.2240 ha        1 T6C      0.166500
     13 H3          5.5850    0.0530    0.0490 ha        1 T6C      0.166500
@<TRIPOS>BOND
     1    1    2 1   
     2    2    3 ar  
     3    2    7 ar  
     4    3    4 ar  
     5    3    6 1   
     6    4    5 1   
     7    4   10 ar  
     8    6   11 1   
     9    7    8 ar  
    10    7   12 1   
    11    8    9 1   
    12    8   10 ar  
    13   10   13 1   
@<TRIPOS>SUBSTRUCTURE
     1 T6C         1 TEMP              0 ****  ****    0 ROOT
