@<TRIPOS>MOLECULE
T6C
   13    10     1     0     0
SMALL
bcc


@<TRIPOS>ATOM
      1 CL2        -2.9940   -0.0620   -0.2350 cl        1 T6C      0.027000
      2 C2         -1.2510   -0.0620   -0.2350 c2        1 T6C     -0.081000
      3 C1         -0.5580   -0.0620    0.9660 c2        1 T6C      0.101000
      4 C6          0.8280   -0.0620    0.9660 c1        1 T6C     -0.139000
      5 CL6         1.7000   -0.0750    2.4760 cl        1 T6C      0.001000
      6 O1         -1.2610   -0.0610    2.1840 oh        1 T6C     -0.226000
      7 C3         -0.5580   -0.0620   -1.4350 c1        1 T6C     -0.088000
      8 C4          0.8280   -0.0620   -1.4350 c1        1 T6C     -0.086000
      9 CL4         1.7000   -0.0820   -2.9450 cl        1 T6C      0.003000
     10 C5          1.5210   -0.0620   -0.2350 c1        1 T6C     -0.080000
     11 H1         -1.4080    0.7760    2.4410 ho        1 T6C      0.235000
     12 H2         -1.0460   -0.0660   -2.2800 ha        1 T6C      0.167000
     13 H3          2.4970   -0.0620   -0.2340 ha        1 T6C      0.166000
@<TRIPOS>BOND
     1    1    2 1   
     2    2    3 1   
     3    2    7 1   
     4    3    4 1   
     5    3    6 1   
     6    4    5 1   
     7    6   11 1   
     8    7   12 1   
     9    8   10 1   
    10   10   13 1   
@<TRIPOS>SUBSTRUCTURE
     1 T6C         1 TEMP              0 ****  ****    0 ROOT
