@<TRIPOS>MOLECULE
T6C
   13    13     1     0     0
SMALL
bcc


@<TRIPOS>ATOM
      1 CL2         1.3750   -2.6010   -0.2220 cl        1 T6C     -0.064400
      2 C2          0.5080   -1.1400   -0.1260 ca        1 T6C     -0.031600
      3 C1          1.1850    0.0960   -0.1290 ca        1 T6C      0.146100
      4 C6          0.4390    1.2920   -0.0480 ca        1 T6C     -0.031600
      5 CL6         1.1960    2.8080   -0.0480 cl        1 T6C     -0.064400
      6 O1          2.5490    0.2070   -0.2080 oh        1 T6C     -0.472100
      7 C3         -0.8850   -1.1880   -0.0430 ca        1 T6C     -0.084000
      8 C4         -1.6070    0.0040    0.0360 ca        1 T6C     -0.007600
      9 CL4        -3.3010   -0.0480    0.1360 cl        1 T6C     -0.075400
     10 C5         -0.9540    1.2400    0.0340 ca        1 T6C     -0.084000
     11 H1          2.9280   -0.6860   -0.2570 ho        1 T6C      0.436000
     12 H2         -1.4050   -2.1590   -0.0410 ha        1 T6C      0.166500
     13 H3         -1.5350    2.1750    0.0970 ha        1 T6C      0.166500
@<TRIPOS>BOND
     1    1    2 1   
     2    2    3 ar  
     3    2    7 ar  
     4    3    4 ar  
     5    3    6 1   
     6    4    5 1   
     7    4   10 ar  
     8    6   11 1   
     9    7    8 ar  
    10    7   12 1   
    11    8    9 1   
    12    8   10 ar  
    13   10   13 1   
@<TRIPOS>SUBSTRUCTURE
     1 T6C         1 TEMP              0 ****  ****    0 ROOT
