@<TRIPOS>MOLECULE
T6E
   44    47     1     0     0
SMALL
bcc


@<TRIPOS>ATOM
      1 C4          5.4250   -0.5070   -1.6540 ca        1 T6E      0.733200
      2 C5          5.5230   -0.0210   -0.2990 ca        1 T6E     -0.357400
      3 C6          6.7970    0.4930    0.1100 ca        1 T6E      0.439600
      4 N1          7.8870    0.5210   -0.7030 nb        1 T6E     -0.706000
      5 N3          6.5230   -0.4650   -2.4750 nb        1 T6E     -0.784000
      6 NBF         4.2520   -1.0600   -2.1190 nh        1 T6E     -0.950500
      7 C2          7.6730    0.0350   -1.9430 ca        1 T6E      0.678900
      8 CBB         4.5600    0.0740    0.7650 cc        1 T6E      0.005600
      9 CAZ         3.1780   -0.3740    0.7010 ca        1 T6E     -0.076800
     10 CAO         2.8700   -1.7400    0.6350 ca        1 T6E     -0.090000
     11 CAM         1.5510   -2.1700    0.6110 ca        1 T6E     -0.171500
     12 CAN         2.1290    0.5520    0.7490 ca        1 T6E     -0.090000
     13 CAL         0.8010    0.1390    0.7240 ca        1 T6E     -0.171500
     14 CAX         0.4870   -1.2340    0.6530 ca        1 T6E      0.082600
     15 NAT        -0.8260   -1.7340    0.6390 n         1 T6E     -0.477100
     16 CAV        -1.9850   -0.9740    0.4220 c         1 T6E      0.786100
     17 OAD        -1.9470    0.2440    0.1440 o         1 T6E     -0.607100
     18 NAU        -3.2200   -1.6520    0.5710 n         1 T6E     -0.465100
     19 CAY        -4.4460   -1.0920    0.1730 ca        1 T6E      0.035600
     20 CAP        -4.7300    0.2820    0.3030 ca        1 T6E     -0.071000
     21 CAJ        -5.4810   -1.9440   -0.3250 ca        1 T6E      0.097900
     22 CAH        -6.7400   -1.4230   -0.6620 ca        1 T6E     -0.145000
     23 CAK        -6.9890   -0.0620   -0.5290 ca        1 T6E     -0.081000
     24 CBA        -5.9840    0.7770   -0.0500 ca        1 T6E     -0.159300
     25 CBG        -6.2550    2.2730    0.0810 c3        1 T6E      0.690200
     26 FAF        -5.9260    3.0020   -1.0350 f         1 T6E     -0.233633
     27 FAG        -7.5720    2.5910    0.3120 f         1 T6E     -0.233633
     28 FAE        -5.5760    2.8910    1.1020 f         1 T6E     -0.233633
     29 F1         -5.2600   -3.2760   -0.4650 f         1 T6E     -0.140900
     30 S           6.7320    1.0480    1.7060 ss        1 T6E      0.018100
     31 C8          5.1170    0.6460    1.8860 cd        1 T6E     -0.190400
     32 HBF1        3.4210   -0.8670   -1.6120 hn        1 T6E      0.436800
     33 HBF2        4.1650   -1.2540   -3.0890 hn        1 T6E      0.436800
     34 H2          8.5440    0.0450   -2.6330 h5        1 T6E      0.053100
     35 H8          4.5850    0.8260    2.8210 h4        1 T6E      0.178000
     36 HAO         3.6850   -2.4810    0.6040 ha        1 T6E      0.148000
     37 HAN         2.3550    1.6290    0.8090 ha        1 T6E      0.148000
     38 HAM         1.3450   -3.2510    0.5630 ha        1 T6E      0.155500
     39 HAL         0.0040    0.9000    0.7580 ha        1 T6E      0.155500
     40 HAT        -0.9110   -2.7090    0.8210 hn        1 T6E      0.321500
     41 HAU        -3.2150   -2.6490    0.6070 hn        1 T6E      0.320500
     42 HAP        -3.9560    0.9780    0.6790 ha        1 T6E      0.193000
     43 HAH        -7.5190   -2.1030   -1.0370 ha        1 T6E      0.161000
     44 HAK        -7.9760    0.3500   -0.7950 ha        1 T6E      0.161000
@<TRIPOS>BOND
     1    1    2 ar  
     2    1    5 ar  
     3    1    6 1   
     4    2    3 ar  
     5    2    8 1   
     6    3    4 ar  
     7    3   30 1   
     8    4    7 ar  
     9    5    7 ar  
    10    6   32 1   
    11    6   33 1   
    12    7   34 1   
    13    8    9 1   
    14    8   31 2   
    15    9   10 ar  
    16    9   12 ar  
    17   10   11 ar  
    18   10   36 1   
    19   11   14 ar  
    20   11   38 1   
    21   12   13 ar  
    22   12   37 1   
    23   13   14 ar  
    24   13   39 1   
    25   14   15 1   
    26   15   16 1   
    27   15   40 1   
    28   16   17 2   
    29   16   18 1   
    30   18   19 1   
    31   18   41 1   
    32   19   20 ar  
    33   19   21 ar  
    34   20   24 ar  
    35   20   42 1   
    36   21   22 ar  
    37   21   29 1   
    38   22   23 ar  
    39   22   43 1   
    40   23   24 ar  
    41   23   44 1   
    42   24   25 1   
    43   25   26 1   
    44   25   27 1   
    45   25   28 1   
    46   30   31 1   
    47   31   35 1   
@<TRIPOS>SUBSTRUCTURE
     1 T6E         1 TEMP              0 ****  ****    0 ROOT
