@<TRIPOS>MOLECULE
T6E
   47    50     1     0     0
SMALL
bcc


@<TRIPOS>ATOM
      1 C4          0.8690   -0.2660    0.9210 ca        1 T6E      0.512200
      2 C5          0.9910    0.8940    0.1050 ca        1 T6E     -0.258400
      3 C6          0.9900    2.1380    0.8650 ca        1 T6E      0.358600
      4 N1          0.8090    2.1980    2.2060 nb        1 T6E     -0.556000
      5 N3          0.6800   -0.2210    2.2520 nb        1 T6E     -0.644000
      6 NBF         0.9920   -1.6210    0.3370 n4        1 T6E     -0.829300
      7 C2          0.6440    1.0210    2.8370 ca        1 T6E      0.685900
      8 CBB         1.1700    1.1690   -1.2880 cc        1 T6E     -0.131400
      9 CAZ         1.1030    0.2950   -2.4420 ca        1 T6E      0.068200
     10 CAO         0.0000   -0.5410   -2.6900 ca        1 T6E     -0.128500
     11 CAM        -0.1470   -1.2000   -3.9090 ca        1 T6E     -0.062000
     12 CAN         2.1050    0.3970   -3.4330 ca        1 T6E     -0.128500
     13 CAL         1.9830   -0.2530   -4.6540 ca        1 T6E     -0.062000
     14 CAX         0.8310   -1.0270   -4.9090 ca        1 T6E     -0.104400
     15 NAT         0.6080   -1.5750   -6.2560 n4        1 T6E     -0.489200
     16 CAV         1.1310   -2.9730   -6.4140 c         1 T6E      0.473100
     17 OAD         1.1210   -3.7770   -5.4980 o         1 T6E     -0.292100
     18 NAU         1.6600   -3.3890   -7.7610 n4        1 T6E     -0.489200
     19 CAY         0.7280   -3.1620   -8.8630 ca        1 T6E     -0.183400
     20 CAP        -0.0450   -4.2280   -9.3600 ca        1 T6E     -0.011000
     21 CAJ         0.6930   -1.8960   -9.5280 ca        1 T6E      0.140900
     22 CAH        -0.0770   -1.7330  -10.6820 ca        1 T6E     -0.104000
     23 CAK        -0.8320   -2.8070  -11.1720 ca        1 T6E      0.039000
     24 CBA        -0.8250   -4.0310  -10.4990 ca        1 T6E     -0.152300
     25 CBG        -1.6930   -5.2040  -11.0120 c3        1 T6E      0.699200
     26 FAF        -2.8950   -5.2740  -10.3600 f         1 T6E     -0.193967
     27 FAG        -1.9820   -5.1220  -12.3430 f         1 T6E     -0.193967
     28 FAE        -1.0980   -6.4220  -10.8200 f         1 T6E     -0.193967
     29 F1          1.4120   -0.8690   -9.0110 f         1 T6E     -0.137900
     30 S           1.2540    3.4620   -0.1420 ss        1 T6E      0.363100
     31 C8          1.3550    2.5420   -1.4850 cd        1 T6E     -0.174400
     32 HBF1        0.8710   -1.5660   -0.6770 hn        1 T6E      0.474467
     33 HBF2        0.2840   -2.2520    0.7440 hn        1 T6E      0.474467
     34 H2          0.4760    1.0350    3.9440 h5        1 T6E      0.128100
     35 H8          1.5270    2.9830   -2.4760 h4        1 T6E      0.205000
     36 HAO        -0.8170   -0.6130   -1.9500 ha        1 T6E      0.189500
     37 HAN         2.9940    1.0280   -3.2440 ha        1 T6E      0.189500
     38 HAM        -1.0480   -1.8160   -4.0780 ha        1 T6E      0.174000
     39 HAL         2.7790   -0.1230   -5.4080 ha        1 T6E      0.174000
     40 HAT        -0.4150   -1.6070   -6.4300 hn        1 T6E      0.504300
     41 HAU         1.8760   -4.4100   -7.7020 hn        1 T6E      0.515300
     42 HAP        -0.0370   -5.2310   -8.8880 ha        1 T6E      0.199000
     43 HAH        -0.0780   -0.7580  -11.2100 ha        1 T6E      0.225000
     44 HAK        -1.4310   -2.6840  -12.1020 ha        1 T6E      0.230000
     45 HBF3        1.9260   -1.9960    0.5590 hn        1 T6E      0.474467
     46 HAT2        1.0420   -0.9320   -6.9490 hn        1 T6E      0.504300
     47 HAU2        2.5440   -2.8810   -7.9570 hn        1 T6E      0.515300
@<TRIPOS>BOND
     1    1    2 ar  
     2    1    5 ar  
     3    1    6 1   
     4    2    3 ar  
     5    2    8 1   
     6    3    4 ar  
     7    3   30 1   
     8    4    7 ar  
     9    5    7 ar  
    10    6   32 1   
    11    6   33 1   
    12    6   45 1   
    13    7   34 1   
    14    8    9 1   
    15    8   31 2   
    16    9   10 ar  
    17    9   12 ar  
    18   10   11 ar  
    19   10   36 1   
    20   11   14 ar  
    21   11   38 1   
    22   12   13 ar  
    23   12   37 1   
    24   13   14 ar  
    25   13   39 1   
    26   14   15 1   
    27   15   16 1   
    28   15   40 1   
    29   15   46 1   
    30   16   17 2   
    31   16   18 1   
    32   18   19 1   
    33   18   41 1   
    34   18   47 1   
    35   19   20 ar  
    36   19   21 ar  
    37   20   24 ar  
    38   20   42 1   
    39   21   22 ar  
    40   21   29 1   
    41   22   23 ar  
    42   22   43 1   
    43   23   24 ar  
    44   23   44 1   
    45   24   25 1   
    46   25   26 1   
    47   25   27 1   
    48   25   28 1   
    49   30   31 1   
    50   31   35 1   
@<TRIPOS>SUBSTRUCTURE
     1 T6E         1 TEMP              0 ****  ****    0 ROOT
