@<TRIPOS>MOLECULE
T6E
   44    47     1     0     0
SMALL
bcc


@<TRIPOS>ATOM
      1 C4          0.0440    0.3370    0.4350 ca        1 T6E      0.733200
      2 C5          1.4750    0.3580    0.2470 ca        1 T6E     -0.357400
      3 C6          2.2750    0.5430    1.4210 ca        1 T6E      0.439600
      4 N1          1.7500    0.7100    2.6640 nb        1 T6E     -0.706000
      5 N3         -0.4810    0.4930    1.6920 nb        1 T6E     -0.784000
      6 NBF        -0.8050    0.2100   -0.6430 nv        1 T6E     -0.950500
      7 C2          0.4030    0.6770    2.7120 ca        1 T6E      0.678900
      8 CBB         2.2970    0.2100   -0.9240 cc        1 T6E      0.005600
      9 CAZ         1.8130    0.0280   -2.2840 ca        1 T6E     -0.076800
     10 CAO         1.1630    1.0710   -2.9570 ca        1 T6E     -0.090000
     11 CAM         0.7330    0.9110   -4.2670 ca        1 T6E     -0.171000
     12 CAN         2.0290   -1.1790   -2.9580 ca        1 T6E     -0.090000
     13 CAL         1.6040   -1.3580   -4.2710 ca        1 T6E     -0.171000
     14 CAX         0.9450   -0.3130   -4.9500 ca        1 T6E      0.082600
     15 NAT         0.5000   -0.4070   -6.2800 ns        1 T6E     -0.477100
     16 CAV         0.3820   -1.5950   -7.0160 c         1 T6E      0.786100
     17 OAD         0.6080   -2.7190   -6.5190 o         1 T6E     -0.607100
     18 NAU         0.0250   -1.4580   -8.3810 ns        1 T6E     -0.465100
     19 CAY        -0.3450   -2.5500   -9.1820 ca        1 T6E      0.035600
     20 CAP         0.2500   -3.8210   -9.0530 ca        1 T6E     -0.071000
     21 CAJ        -1.3150   -2.3680  -10.2180 ca        1 T6E      0.097900
     22 CAH        -1.6510   -3.4230  -11.0800 ca        1 T6E     -0.145000
     23 CAK        -1.0520   -4.6670  -10.9260 ca        1 T6E     -0.081000
     24 CBA        -0.1100   -4.8560   -9.9150 ca        1 T6E     -0.159300
     25 CBG         0.5350   -6.2270   -9.7370 c3        1 T6E      0.690200
     26 FAF        -0.1330   -7.0520   -8.8640 f         1 T6E     -0.233633
     27 FAG         0.6230   -6.9650  -10.8930 f         1 T6E     -0.233633
     28 FAE         1.8220   -6.1980   -9.2590 f         1 T6E     -0.233633
     29 F1         -1.9130   -1.1620  -10.3860 f         1 T6E     -0.140900
     30 S           3.9210    0.5110    1.0310 ss        1 T6E      0.018100
     31 C8          3.6330    0.2700   -0.6000 cd        1 T6E     -0.189400
     32 HBF1       -1.7710    0.0550   -0.4770 hn        1 T6E      0.436800
     33 HBF2       -0.4210   -0.1360   -1.4900 hn        1 T6E      0.436800
     34 H2         -0.0580    0.8090    3.7140 h5        1 T6E      0.053100
     35 H8          4.4500    0.1810   -1.3160 h4        1 T6E      0.178000
     36 HAO         0.9920    2.0290   -2.4410 ha        1 T6E      0.148000
     37 HAN         2.5470   -2.0050   -2.4440 ha        1 T6E      0.148000
     38 HAM         0.2280    1.7530   -4.7670 ha        1 T6E      0.155500
     39 HAL         1.7880   -2.3260   -4.7650 ha        1 T6E      0.155500
     40 HAT         0.2690    0.4590   -6.7130 hn        1 T6E      0.321500
     41 HAU        -0.3250   -0.5780   -8.6950 hn        1 T6E      0.320500
     42 HAP         1.0010   -4.0080   -8.2630 ha        1 T6E      0.193000
     43 HAH        -2.3960   -3.2520  -11.8720 ha        1 T6E      0.161000
     44 HAK        -1.3160   -5.4980  -11.6000 ha        1 T6E      0.161000
@<TRIPOS>BOND
     1    1    2 ar  
     2    1    5 ar  
     3    1    6 1   
     4    2    3 ar  
     5    2    8 1   
     6    3    4 ar  
     7    3   30 1   
     8    4    7 ar  
     9    5    7 ar  
    10    6   32 1   
    11    6   33 1   
    12    7   34 1   
    13    8    9 1   
    14    8   31 2   
    15    9   10 ar  
    16    9   12 ar  
    17   10   11 ar  
    18   10   36 1   
    19   11   14 ar  
    20   11   38 1   
    21   12   13 ar  
    22   12   37 1   
    23   13   14 ar  
    24   13   39 1   
    25   14   15 1   
    26   15   16 1   
    27   15   40 1   
    28   16   17 2   
    29   16   18 1   
    30   18   19 1   
    31   18   41 1   
    32   19   20 ar  
    33   19   21 ar  
    34   20   24 ar  
    35   20   42 1   
    36   21   22 ar  
    37   21   29 1   
    38   22   23 ar  
    39   22   43 1   
    40   23   24 ar  
    41   23   44 1   
    42   24   25 1   
    43   25   26 1   
    44   25   27 1   
    45   25   28 1   
    46   30   31 1   
    47   31   35 1   
@<TRIPOS>SUBSTRUCTURE
     1 T6E         1 TEMP              0 ****  ****    0 ROOT
