@<TRIPOS>MOLECULE
T6E
   44    47     1     0     0
SMALL
bcc


@<TRIPOS>ATOM
      1 C4          0.0440    0.3530    0.4290 ca        1 T6E      0.733200
      2 C5          1.4750    0.3600    0.2460 ca        1 T6E     -0.357400
      3 C6          2.2730    0.5380    1.4230 ca        1 T6E      0.439600
      4 N1          1.7450    0.7120    2.6640 nb        1 T6E     -0.706000
      5 N3         -0.4840    0.5150    1.6840 nb        1 T6E     -0.784000
      6 NBF        -0.8020    0.2330   -0.6530 nh        1 T6E     -0.950500
      7 C2          0.3970    0.6920    2.7070 ca        1 T6E      0.678900
      8 CBB         2.3000    0.2010   -0.9210 cc        1 T6E      0.005600
      9 CAZ         1.8200    0.0220   -2.2820 ca        1 T6E     -0.076800
     10 CAO         1.1840    1.0710   -2.9600 ca        1 T6E     -0.090000
     11 CAM         0.7570    0.9130   -4.2720 ca        1 T6E     -0.171000
     12 CAN         2.0260   -1.1890   -2.9540 ca        1 T6E     -0.090000
     13 CAL         1.6040   -1.3650   -4.2680 ca        1 T6E     -0.171000
     14 CAX         0.9590   -0.3140   -4.9520 ca        1 T6E      0.082600
     15 NAT         0.5180   -0.4060   -6.2830 n         1 T6E     -0.477100
     16 CAV         0.3900   -1.5950   -7.0170 c         1 T6E      0.786100
     17 OAD         0.6010   -2.7200   -6.5160 o         1 T6E     -0.607100
     18 NAU         0.0410   -1.4560   -8.3830 n         1 T6E     -0.465100
     19 CAY        -0.3390   -2.5470   -9.1840 ca        1 T6E      0.035600
     20 CAP         0.2410   -3.8240   -9.0500 ca        1 T6E     -0.071000
     21 CAJ        -1.3020   -2.3550  -10.2240 ca        1 T6E      0.097900
     22 CAH        -1.6470   -3.4080  -11.0860 ca        1 T6E     -0.145000
     23 CAK        -1.0630   -4.6590  -10.9260 ca        1 T6E     -0.081000
     24 CBA        -0.1280   -4.8560   -9.9100 ca        1 T6E     -0.159300
     25 CBG         0.5000   -6.2350   -9.7270 c3        1 T6E      0.690200
     26 FAF        -0.1810   -7.0490   -8.8550 f         1 T6E     -0.233633
     27 FAG         0.5840   -6.9770  -10.8810 f         1 T6E     -0.233633
     28 FAE         1.7850   -6.2190   -9.2430 f         1 T6E     -0.233633
     29 F1         -1.8850   -1.1420  -10.3980 f         1 T6E     -0.140900
     30 S           3.9200    0.4900    1.0400 ss        1 T6E      0.018100
     31 C8          3.6360    0.2490   -0.5920 cd        1 T6E     -0.189400
     32 HBF1       -1.7700    0.0870   -0.4890 hn        1 T6E      0.436800
     33 HBF2       -0.4190   -0.1180   -1.4980 hn        1 T6E      0.436800
     34 H2         -0.0660    0.8300    3.7070 h5        1 T6E      0.053100
     35 H8          4.4550    0.1510   -1.3050 h4        1 T6E      0.178000
     36 HAO         1.0200    2.0320   -2.4470 ha        1 T6E      0.148000
     37 HAN         2.5330   -2.0190   -2.4360 ha        1 T6E      0.148000
     38 HAM         0.2630    1.7590   -4.7750 ha        1 T6E      0.155500
     39 HAL         1.7800   -2.3360   -4.7590 ha        1 T6E      0.155500
     40 HAT         0.2980    0.4610   -6.7190 hn        1 T6E      0.321500
     41 HAU        -0.2970   -0.5730   -8.7020 hn        1 T6E      0.320500
     42 HAP         0.9860   -4.0180   -8.2550 ha        1 T6E      0.193000
     43 HAH        -2.3860   -3.2300  -11.8810 ha        1 T6E      0.161000
     44 HAK        -1.3340   -5.4880  -11.5990 ha        1 T6E      0.161000
@<TRIPOS>BOND
     1    1    2 ar  
     2    1    5 ar  
     3    1    6 1   
     4    2    3 ar  
     5    2    8 1   
     6    3    4 ar  
     7    3   30 1   
     8    4    7 ar  
     9    5    7 ar  
    10    6   32 1   
    11    6   33 1   
    12    7   34 1   
    13    8    9 1   
    14    8   31 2   
    15    9   10 ar  
    16    9   12 ar  
    17   10   11 ar  
    18   10   36 1   
    19   11   14 ar  
    20   11   38 1   
    21   12   13 ar  
    22   12   37 1   
    23   13   14 ar  
    24   13   39 1   
    25   14   15 1   
    26   15   16 1   
    27   15   40 1   
    28   16   17 2   
    29   16   18 1   
    30   18   19 1   
    31   18   41 1   
    32   19   20 ar  
    33   19   21 ar  
    34   20   24 ar  
    35   20   42 1   
    36   21   22 ar  
    37   21   29 1   
    38   22   23 ar  
    39   22   43 1   
    40   23   24 ar  
    41   23   44 1   
    42   24   25 1   
    43   25   26 1   
    44   25   27 1   
    45   25   28 1   
    46   30   31 1   
    47   31   35 1   
@<TRIPOS>SUBSTRUCTURE
     1 T6E         1 TEMP              0 ****  ****    0 ROOT
