@<TRIPOS>MOLECULE
T6P
   48    49     1     0     0
SMALL
bcc


@<TRIPOS>ATOM
      1 C1         -0.4180    0.3280    2.3500 c3        1 T6P      0.372900
      2 C2          0.3510   -0.8690    1.7840 c3        1 T6P      0.036100
      3 C3          1.6750   -0.9600    2.5500 c3        1 T6P      0.130100
      4 C4          2.4870    0.2760    2.1350 c3        1 T6P      0.046100
      5 C5          1.7140    1.5890    2.2850 c3        1 T6P      0.132100
      6 C6          2.0030    2.5190    1.0960 c3        1 T6P      0.148400
      7 O1         -1.5750    0.7000    1.6180 os        1 T6P     -0.494600
      8 O2         -0.4400   -2.0210    2.0120 oh        1 T6P     -0.630800
      9 O3          2.4050   -2.1290    2.2880 oh        1 T6P     -0.660800
     10 O4          3.6470    0.3930    2.9640 oh        1 T6P     -0.645800
     11 O5          0.3060    1.5280    2.5110 os        1 T6P     -0.466600
     12 O6          1.3630    2.1960   -0.1060 oh        1 T6P     -0.653800
     13 C1P        -1.4210    1.3570    0.3720 c3        1 T6P      0.300900
     14 C2P        -2.8360    1.8090   -0.0530 c3        1 T6P      0.091100
     15 C3P        -3.6950    0.6060   -0.4680 c3        1 T6P      0.068100
     16 C4P        -2.9410   -0.2950   -1.4640 c3        1 T6P      0.125100
     17 C5P        -1.6070   -0.7130   -0.8220 c3        1 T6P      0.088100
     18 C6P        -0.7040   -1.5820   -1.7300 c3        1 T6P      0.236400
     19 O2P        -3.5020    2.5330    0.9680 oh        1 T6P     -0.631800
     20 O3P        -4.8960    1.0360   -1.1010 oh        1 T6P     -0.630800
     21 O4P        -3.7080   -1.4570   -1.7320 oh        1 T6P     -0.584800
     22 O5P        -0.8590    0.4780   -0.5610 os        1 T6P     -0.381600
     23 O6P         0.1920   -2.2760   -0.9550 os        1 T6P     -0.579200
     24 P           1.8600   -1.9990   -1.3190 p5        1 T6P      1.337900
     25 O7P         2.0440   -0.6110   -0.7400 o         1 T6P     -0.917167
     26 O8P         2.4770   -3.0320   -0.4170 o         1 T6P     -0.917167
     27 O9P         1.9250   -2.1420   -2.8050 o         1 T6P     -0.917167
     28 HC1        -0.8540    0.0720    3.3660 h2        1 T6P      0.053700
     29 HC2         0.5840   -0.7450    0.6680 h1        1 T6P      0.183700
     30 HC3         1.5020   -0.9650    3.6630 h1        1 T6P      0.028700
     31 HC4         2.8130    0.1360    1.0540 h1        1 T6P      0.157700
     32 HC5         2.0910    2.1110    3.2190 h1        1 T6P      0.038700
     33 HC61        3.1190    2.5430    0.9520 h1        1 T6P      0.013200
     34 HC62        1.6380    3.5540    1.3470 h1        1 T6P      0.013200
     35 HO2        -0.2590   -2.6100    1.2600 ho        1 T6P      0.454000
     36 HO3         2.3870   -2.3100    1.3080 ho        1 T6P      0.502000
     37 HO4         4.0630   -0.4790    2.9250 ho        1 T6P      0.415000
     38 HO6         1.5200    1.2480   -0.3230 ho        1 T6P      0.507000
     39 HC1P       -0.6990    2.2210    0.4450 h2        1 T6P      0.127700
     40 HC2P       -2.7440    2.5290   -0.9120 h1        1 T6P      0.076700
     41 HC3P       -3.9630    0.0070    0.4480 h1        1 T6P      0.058700
     42 HC4P       -2.7580    0.2680   -2.4200 h1        1 T6P      0.043700
     43 HC5P       -1.8050   -1.2580    0.1420 h1        1 T6P      0.075700
     44 H6P1       -1.3980   -2.2940   -2.2640 h1        1 T6P      0.020200
     45 H6P2       -0.1740   -0.9300   -2.4780 h1        1 T6P      0.020200
     46 HO2P       -3.2920    2.0960    1.8060 ho        1 T6P      0.423000
     47 HO3P       -5.2390    1.7580   -0.5600 ho        1 T6P      0.402000
     48 HO4P       -4.5500   -1.1400   -2.0810 ho        1 T6P      0.388000
@<TRIPOS>BOND
     1    1    2 1   
     2    1    7 1   
     3    1   11 1   
     4    1   28 1   
     5    2    3 1   
     6    2    8 1   
     7    2   29 1   
     8    3    4 1   
     9    3    9 1   
    10    3   30 1   
    11    4    5 1   
    12    4   10 1   
    13    4   31 1   
    14    5    6 1   
    15    5   11 1   
    16    5   32 1   
    17    6   12 1   
    18    6   33 1   
    19    6   34 1   
    20    7   13 1   
    21    8   35 1   
    22    9   36 1   
    23   10   37 1   
    24   12   38 1   
    25   13   14 1   
    26   13   22 1   
    27   13   39 1   
    28   14   15 1   
    29   14   19 1   
    30   14   40 1   
    31   15   16 1   
    32   15   20 1   
    33   15   41 1   
    34   16   17 1   
    35   16   21 1   
    36   16   42 1   
    37   17   18 1   
    38   17   22 1   
    39   17   43 1   
    40   18   23 1   
    41   18   44 1   
    42   18   45 1   
    43   19   46 1   
    44   20   47 1   
    45   21   48 1   
    46   23   24 1   
    47   24   25 1   
    48   24   26 1   
    49   24   27 1   
@<TRIPOS>SUBSTRUCTURE
     1 T6P         1 TEMP              0 ****  ****    0 ROOT
