@<TRIPOS>MOLECULE
T6Q
   59    62     1     0     0
SMALL
bcc


@<TRIPOS>ATOM
      1 C01        -0.0250   -0.4790    0.0770 c3        1 T6Q      0.180100
      2 N02         1.4040   -0.3750    0.1740 nu        1 T6Q     -0.811900
      3 C03         2.0070   -0.2890    1.4190 cc        1 T6Q      0.645300
      4 N04         1.3600   -0.0830    2.5940 nd        1 T6Q     -0.723000
      5 C05         2.2760    0.0720    3.6190 cd        1 T6Q      0.477600
      6 C06         1.7870    0.3230    4.9980 c3        1 T6Q     -0.132400
      7 C07         3.6250   -0.0350    3.2370 cc        1 T6Q     -0.346900
      8 C08         4.8060    0.0630    4.0630 ca        1 T6Q      0.651800
      9 N09         4.6680    0.2840    5.3930 nb        1 T6Q     -0.774000
     10 C10         5.8220    0.3870    6.1580 ca        1 T6Q      0.906900
     11 N11         5.6300    0.7050    7.5100 nu        1 T6Q     -0.710300
     12 C12         6.6450    0.5500    8.4860 ca        1 T6Q      0.149600
     13 C13         7.8720    1.2340    8.3820 ca        1 T6Q     -0.128000
     14 C14         8.8100    1.1040    9.3990 ca        1 T6Q     -0.098000
     15 C15         8.5580    0.3320   10.5270 ca        1 T6Q     -0.184000
     16 C16         7.3340   -0.3590   10.6570 ca        1 T6Q      0.152600
     17 N17         7.0520   -1.2210   11.7500 nh        1 T6Q     -0.654000
     18 C18         5.8610   -0.8890   12.5170 c3        1 T6Q      0.195800
     19 C19         5.1470   -2.1140   13.0850 c3        1 T6Q     -0.102400
     20 C20         5.6670   -2.5480   14.4520 c3        1 T6Q      0.085000
     21 N21         7.1060   -2.5730   14.6050 n         1 T6Q     -0.473800
     22 C22         7.6720   -2.0790   15.7780 c         1 T6Q      0.654100
     23 C23         9.1740   -2.0410   15.9180 c3        1 T6Q     -0.170100
     24 O24         6.9420   -1.7140   16.7220 o         1 T6Q     -0.606100
     25 C25         7.9030   -2.8580   13.4440 c3        1 T6Q      0.091000
     26 C26         8.1970   -1.6470   12.5280 c3        1 T6Q      0.165800
     27 C27         6.3830   -0.2450    9.6200 ca        1 T6Q     -0.187000
     28 N28         7.1170    0.2470    5.6620 nb        1 T6Q     -0.743000
     29 C29         7.2160    0.0210    4.3510 ca        1 T6Q      0.512200
     30 C30         6.1040   -0.0810    3.4820 ca        1 T6Q     -0.345600
     31 C31         6.3320   -0.3210    2.1090 cg        1 T6Q      0.252800
     32 N32         6.6090   -0.5200    0.9940 n1        1 T6Q     -0.366800
     33 S33         3.7360   -0.3130    1.5650 ss        1 T6Q     -0.096300
     34 H011       -0.3030   -0.4350   -1.0090 h1        1 T6Q      0.050033
     35 H012       -0.4210   -1.4330    0.5200 h1        1 T6Q      0.050033
     36 H013       -0.5010    0.3850    0.6140 h1        1 T6Q      0.050033
     37 H02         1.9110   -0.9400   -0.4770 hn        1 T6Q      0.417800
     38 H061        2.2000    1.2940    5.3710 hc        1 T6Q      0.062700
     39 H062        2.1300   -0.5000    5.6730 hc        1 T6Q      0.062700
     40 H063        0.6700    0.3730    5.0400 hc        1 T6Q      0.062700
     41 H11         4.6970    0.5840    7.8510 hn        1 T6Q      0.445800
     42 H13         8.0960    1.8650    7.5090 ha        1 T6Q      0.156000
     43 H27         5.4310   -0.7940    9.6960 ha        1 T6Q      0.140000
     44 H14         9.7720    1.6350    9.3130 ha        1 T6Q      0.136000
     45 H15         9.3250    0.2730   11.3130 ha        1 T6Q      0.134000
     46 H181        5.1390   -0.3490   11.8400 h1        1 T6Q      0.043700
     47 H182        6.1130   -0.1860   13.3650 h1        1 T6Q      0.043700
     48 H261        9.0000   -1.9700   11.8050 h1        1 T6Q      0.042200
     49 H262        8.6120   -0.8050   13.1580 h1        1 T6Q      0.042200
     50 H191        4.0630   -1.8530   13.2110 hc        1 T6Q      0.057200
     51 H192        5.2010   -2.9710   12.3630 hc        1 T6Q      0.057200
     52 H201        5.2350   -1.8620   15.2390 h1        1 T6Q      0.060700
     53 H202        5.2820   -3.5890   14.6610 h1        1 T6Q      0.060700
     54 H251        7.3820   -3.6600   12.8460 h1        1 T6Q      0.061700
     55 H252        8.9020   -3.2680   13.7690 h1        1 T6Q      0.061700
     56 H231        9.6380   -1.4510   15.0920 hc        1 T6Q      0.065700
     57 H232        9.5890   -3.0780   15.9100 hc        1 T6Q      0.065700
     58 H233        9.4260   -1.5600   16.8950 hc        1 T6Q      0.065700
     59 H29         8.2470   -0.0910    3.9610 h4        1 T6Q      0.038100
@<TRIPOS>BOND
     1    1    2 1   
     2    1   34 1   
     3    1   35 1   
     4    1   36 1   
     5    2    3 1   
     6    2   37 1   
     7    3    4 2   
     8    3   33 1   
     9    4    5 1   
    10    5    6 1   
    11    5    7 2   
    12    6   38 1   
    13    6   39 1   
    14    6   40 1   
    15    7    8 1   
    16    7   33 1   
    17    8    9 ar  
    18    8   30 ar  
    19    9   10 ar  
    20   10   11 1   
    21   10   28 ar  
    22   11   12 1   
    23   11   41 1   
    24   12   13 ar  
    25   12   27 ar  
    26   13   14 ar  
    27   13   42 1   
    28   14   15 ar  
    29   14   44 1   
    30   15   16 ar  
    31   15   45 1   
    32   16   17 1   
    33   16   27 ar  
    34   17   18 1   
    35   17   26 1   
    36   18   19 1   
    37   18   46 1   
    38   18   47 1   
    39   19   20 1   
    40   19   50 1   
    41   19   51 1   
    42   20   21 1   
    43   20   52 1   
    44   20   53 1   
    45   21   22 1   
    46   21   25 1   
    47   22   23 1   
    48   22   24 2   
    49   23   56 1   
    50   23   57 1   
    51   23   58 1   
    52   25   26 1   
    53   25   54 1   
    54   25   55 1   
    55   26   48 1   
    56   26   49 1   
    57   27   43 1   
    58   28   29 ar  
    59   29   30 ar  
    60   29   59 1   
    61   30   31 1   
    62   31   32 3   
@<TRIPOS>SUBSTRUCTURE
     1 T6Q         1 TEMP              0 ****  ****    0 ROOT
