@<TRIPOS>MOLECULE
T6Q
   59    62     1     0     0
SMALL
bcc


@<TRIPOS>ATOM
      1 C01         8.8310    2.9860   -0.5560 c3        1 T6Q      0.179100
      2 N02         8.1870    1.7620   -0.9470 nh        1 T6Q     -0.810900
      3 C03         6.9210    1.4650   -0.4660 cc        1 T6Q      0.645300
      4 N04         6.1080    2.3290    0.1940 nd        1 T6Q     -0.722000
      5 C05         4.8750    1.7420    0.4180 cd        1 T6Q      0.476600
      6 C06         3.8210    2.5110    1.1240 c3        1 T6Q     -0.132400
      7 C07         4.7470    0.4230   -0.0530 cc        1 T6Q     -0.345900
      8 C08         3.6030   -0.4550    0.0300 ca        1 T6Q      0.650800
      9 N09         2.4320    0.0270    0.5120 nb        1 T6Q     -0.773000
     10 C10         1.3520   -0.8430    0.5880 ca        1 T6Q      0.905900
     11 N11         0.1900   -0.3240    1.1750 nh        1 T6Q     -0.709300
     12 C12        -1.0750   -0.9500    1.0540 ca        1 T6Q      0.148600
     13 C13        -1.2900   -2.2600    1.5230 ca        1 T6Q     -0.128000
     14 C14        -2.5660   -2.8090    1.4460 ca        1 T6Q     -0.098000
     15 C15        -3.6380   -2.0860    0.9370 ca        1 T6Q     -0.184000
     16 C16        -3.4490   -0.7690    0.4660 ca        1 T6Q      0.152600
     17 N17        -4.4900   -0.0110   -0.1330 nh        1 T6Q     -0.654000
     18 C18        -4.7780    1.2660    0.5000 c3        1 T6Q      0.195800
     19 C19        -5.2320    2.3410   -0.4860 c3        1 T6Q     -0.102400
     20 C20        -6.7370    2.3490   -0.7350 c3        1 T6Q      0.085000
     21 N21        -7.3530    1.0550   -0.9380 n         1 T6Q     -0.473800
     22 C22        -8.5740    0.7810   -0.3260 c         1 T6Q      0.654100
     23 C23        -9.1900   -0.5880   -0.4800 c3        1 T6Q     -0.170100
     24 O24        -9.1740    1.6740    0.3070 o         1 T6Q     -0.606100
     25 C25        -6.5620    0.0180   -1.5400 c3        1 T6Q      0.091000
     26 C26        -5.6460   -0.7660   -0.5710 c3        1 T6Q      0.165800
     27 C27        -2.1530   -0.2120    0.5250 ca        1 T6Q     -0.187000
     28 N28         1.3770   -2.1740    0.1720 nb        1 T6Q     -0.743000
     29 C29         2.5430   -2.6130   -0.3050 ca        1 T6Q      0.511200
     30 C30         3.7060   -1.8140   -0.4040 ca        1 T6Q     -0.344600
     31 C31         4.8870   -2.3890   -0.9200 cg        1 T6Q      0.252800
     32 N32         5.8200   -2.9400   -1.3510 n1        1 T6Q     -0.366800
     33 S33         6.1910   -0.0730   -0.7950 ss        1 T6Q     -0.096300
     34 H011        9.7920    3.0700   -1.1290 h1        1 T6Q      0.049700
     35 H012        8.1710    3.8560   -0.8150 h1        1 T6Q      0.049700
     36 H013        9.0540    3.0250    0.5450 h1        1 T6Q      0.049700
     37 H02         8.7910    0.9680   -0.9940 hn        1 T6Q      0.416800
     38 H061        2.9460    2.6560    0.4430 hc        1 T6Q      0.062700
     39 H062        3.4850    1.9470    2.0300 hc        1 T6Q      0.062700
     40 H063        4.1870    3.5170    1.4480 hc        1 T6Q      0.062700
     41 H11         0.1580    0.6740    1.2510 hn        1 T6Q      0.445800
     42 H13        -0.4650   -2.8540    1.9440 ha        1 T6Q      0.155000
     43 H27        -1.9830    0.8070    0.1430 ha        1 T6Q      0.140000
     44 H14        -2.7310   -3.8360    1.8080 ha        1 T6Q      0.136000
     45 H15        -4.6320   -2.5560    0.9120 ha        1 T6Q      0.134000
     46 H181       -5.5660    1.1490    1.3020 h1        1 T6Q      0.043700
     47 H182       -3.8400    1.6330    1.0070 h1        1 T6Q      0.043700
     48 H261       -5.2720   -1.6690   -1.1330 h1        1 T6Q      0.042200
     49 H262       -6.2640   -1.1290    0.3020 h1        1 T6Q      0.042200
     50 H191       -4.9640    3.3420   -0.0530 hc        1 T6Q      0.057200
     51 H192       -4.6820    2.2410   -1.4580 hc        1 T6Q      0.057200
     52 H201       -7.2470    2.8540    0.1380 h1        1 T6Q      0.060700
     53 H202       -6.9390    2.9730   -1.6540 h1        1 T6Q      0.060700
     54 H251       -7.2440   -0.7380   -2.0250 h1        1 T6Q      0.061700
     55 H252       -5.9330    0.4820   -2.3540 h1        1 T6Q      0.061700
     56 H231       -8.4930   -1.3830   -0.1230 hc        1 T6Q      0.065700
     57 H232      -10.1270   -0.6240    0.1300 hc        1 T6Q      0.065700
     58 H233       -9.4500   -0.7770   -1.5500 hc        1 T6Q      0.065700
     59 H29         2.5570   -3.6710   -0.6340 h4        1 T6Q      0.038100
@<TRIPOS>BOND
     1    1    2 1   
     2    1   34 1   
     3    1   35 1   
     4    1   36 1   
     5    2    3 1   
     6    2   37 1   
     7    3    4 2   
     8    3   33 1   
     9    4    5 1   
    10    5    6 1   
    11    5    7 2   
    12    6   38 1   
    13    6   39 1   
    14    6   40 1   
    15    7    8 1   
    16    7   33 1   
    17    8    9 ar  
    18    8   30 ar  
    19    9   10 ar  
    20   10   11 1   
    21   10   28 ar  
    22   11   12 1   
    23   11   41 1   
    24   12   13 ar  
    25   12   27 ar  
    26   13   14 ar  
    27   13   42 1   
    28   14   15 ar  
    29   14   44 1   
    30   15   16 ar  
    31   15   45 1   
    32   16   17 1   
    33   16   27 ar  
    34   17   18 1   
    35   17   26 1   
    36   18   19 1   
    37   18   46 1   
    38   18   47 1   
    39   19   20 1   
    40   19   50 1   
    41   19   51 1   
    42   20   21 1   
    43   20   52 1   
    44   20   53 1   
    45   21   22 1   
    46   21   25 1   
    47   22   23 1   
    48   22   24 2   
    49   23   56 1   
    50   23   57 1   
    51   23   58 1   
    52   25   26 1   
    53   25   54 1   
    54   25   55 1   
    55   26   48 1   
    56   26   49 1   
    57   27   43 1   
    58   28   29 ar  
    59   29   30 ar  
    60   29   59 1   
    61   30   31 1   
    62   31   32 3   
@<TRIPOS>SUBSTRUCTURE
     1 T6Q         1 TEMP              0 ****  ****    0 ROOT
