@<TRIPOS>MOLECULE
T6Q
   59    60     1     0     0
SMALL
bcc


@<TRIPOS>ATOM
      1 C01        -0.3040   -0.4430   -0.0650 c3        1 T6Q      0.180100
      2 N02         1.0670   -0.8460    0.0770 nh        1 T6Q     -0.811900
      3 C03         1.8010   -0.4250    1.1740 cc        1 T6Q      0.648300
      4 N04         1.2910    0.1840    2.2750 nd        1 T6Q     -0.722000
      5 C05         2.2820    0.3560    3.2240 cd        1 T6Q      0.479600
      6 C06         1.9450    0.9990    4.5190 c3        1 T6Q     -0.133400
      7 C07         3.5570   -0.1030    2.8460 cc        1 T6Q     -0.348900
      8 C08         4.7880   -0.0620    3.6020 ca        1 T6Q      0.651800
      9 N09         4.7630    0.3700    4.8860 nb        1 T6Q     -0.771000
     10 C10         5.9630    0.4050    5.5820 ca        1 T6Q      0.905900
     11 N11         5.9020    0.9400    6.8780 nh        1 T6Q     -0.711300
     12 C12         6.9430    0.7760    7.8220 ca        1 T6Q      0.144600
     13 C13         8.2460    1.2470    7.5660 ca        1 T6Q     -0.109000
     14 C14         9.2240    1.1250    8.5480 ca        1 T6Q     -0.109000
     15 C15         8.9400    0.5620    9.7880 ca        1 T6Q     -0.141000
     16 C16         7.6400    0.1000   10.0670 ca        1 T6Q      0.062600
     17 N17         7.3100   -0.4680   11.3480 nh        1 T6Q     -0.340800
     18 C18         6.1820   -0.2740   11.9800 c1        1 T6Q     -0.108500
     19 C19         5.6370   -3.0880   13.8800 c3        1 T6Q     -0.111100
     20 C20         5.8400   -3.1470   15.3800 c3        1 T6Q      0.089000
     21 N21         7.2070   -2.8510   15.8290 n         1 T6Q     -0.284400
     22 C22         7.3520   -2.7540   17.2620 c         1 T6Q      0.602100
     23 C23         8.7040   -2.4040   17.8210 c3        1 T6Q     -0.183100
     24 O24         6.3780   -2.9580   17.9990 o         1 T6Q     -0.532100
     25 C25         8.1740   -2.7080   14.9560 c1        1 T6Q     -0.077500
     26 C26         8.3410   -1.3010   11.9420 c3        1 T6Q      0.168100
     27 C27         6.6480    0.2000    9.0760 ca        1 T6Q     -0.172000
     28 N28         7.1920   -0.0020    5.0660 nb        1 T6Q     -0.746000
     29 C29         7.1800   -0.4290    3.8010 ca        1 T6Q      0.512200
     30 C30         6.0150   -0.4840    3.0010 ca        1 T6Q     -0.342600
     31 C31         6.1230   -0.9470    1.6710 cg        1 T6Q      0.252800
     32 N32         6.2990   -1.3370    0.5870 n1        1 T6Q     -0.364800
     33 S33         3.4980   -0.7670    1.2850 ss        1 T6Q     -0.097300
     34 H011       -0.8800   -0.7420    0.8510 h1        1 T6Q      0.050367
     35 H012       -0.7310   -0.9720   -0.9580 h1        1 T6Q      0.050367
     36 H013       -0.4150    0.6670   -0.2070 h1        1 T6Q      0.050367
     37 H02         1.5910   -0.8610   -0.7730 hn        1 T6Q      0.417800
     38 H061        2.5920    1.8980    4.6730 hc        1 T6Q      0.063367
     39 H062        2.1270    0.2750    5.3530 hc        1 T6Q      0.063367
     40 H063        0.8750    1.3210    4.5570 hc        1 T6Q      0.063367
     41 H11         4.9840    1.0100    7.2710 hn        1 T6Q      0.448800
     42 H13         8.5000    1.7070    6.5990 ha        1 T6Q      0.158000
     43 H27         5.6310   -0.1750    9.2820 ha        1 T6Q      0.143000
     44 H14        10.2430    1.4890    8.3400 ha        1 T6Q      0.140000
     45 H15         9.7370    0.4850   10.5430 ha        1 T6Q      0.143000
     46 H181        5.8120   -2.0520   13.4860 hc        1 T6Q      0.060033
     47 H182        5.4340    0.3820   11.4870 ha        1 T6Q     -0.013500
     48 H261        8.7430   -2.0100   11.1720 h1        1 T6Q      0.069367
     49 H262        9.1770   -0.6560   12.3210 h1        1 T6Q      0.069367
     50 H191        6.3310   -3.7850   13.3530 hc        1 T6Q      0.060033
     51 H192        4.5830   -3.3870   13.6610 hc        1 T6Q      0.060033
     52 H201        5.5800   -4.1740   15.7660 h1        1 T6Q      0.056200
     53 H202        5.1530   -2.4060   15.8830 h1        1 T6Q      0.056200
     54 H251        7.9070   -1.8830   12.8090 h1        1 T6Q      0.069367
     55 H252        9.1860   -2.4870   15.3600 ha        1 T6Q     -0.019500
     56 H231        9.0480   -1.4160   17.4310 hc        1 T6Q      0.075367
     57 H232        9.4540   -3.1870   17.5520 hc        1 T6Q      0.075367
     58 H233        8.6280   -2.3460   18.9350 hc        1 T6Q      0.075367
     59 H29         8.1590   -0.7510    3.3960 h4        1 T6Q      0.038100
@<TRIPOS>BOND
     1    1    2 1   
     2    1   34 1   
     3    1   35 1   
     4    1   36 1   
     5    2    3 1   
     6    2   37 1   
     7    3    4 2   
     8    3   33 1   
     9    4    5 1   
    10    5    6 1   
    11    5    7 2   
    12    6   38 1   
    13    6   39 1   
    14    6   40 1   
    15    7    8 1   
    16    7   33 1   
    17    8    9 ar  
    18    8   30 ar  
    19    9   10 ar  
    20   10   11 1   
    21   10   28 ar  
    22   11   12 1   
    23   11   41 1   
    24   12   13 ar  
    25   12   27 ar  
    26   13   14 ar  
    27   13   42 1   
    28   14   15 ar  
    29   14   44 1   
    30   15   16 ar  
    31   15   45 1   
    32   16   17 1   
    33   16   27 ar  
    34   17   18 3   
    35   17   26 1   
    36   18   47 1   
    37   19   20 1   
    38   19   46 1   
    39   19   50 1   
    40   19   51 1   
    41   20   21 1   
    42   20   52 1   
    43   20   53 1   
    44   21   22 1   
    45   21   25 3   
    46   22   23 1   
    47   22   24 2   
    48   23   56 1   
    49   23   57 1   
    50   23   58 1   
    51   25   55 1   
    52   26   48 1   
    53   26   49 1   
    54   26   54 1   
    55   27   43 1   
    56   28   29 ar  
    57   29   30 ar  
    58   29   59 1   
    59   30   31 1   
    60   31   32 3   
@<TRIPOS>SUBSTRUCTURE
     1 T6Q         1 TEMP              0 ****  ****    0 ROOT
