@<TRIPOS>MOLECULE
T6Q
   59    56     1     0     0
SMALL
bcc


@<TRIPOS>ATOM
      1 C01        -6.9380    2.5450   -7.6900 c3        1 T6Q     -0.107000
      2 N02        -6.7040    2.1840   -6.2740 n3        1 T6Q     -0.245000
      3 C03        -5.3780    2.2760   -5.7180 c2        1 T6Q     -0.144000
      4 N04        -4.4830    3.3860   -5.8620 n2        1 T6Q     -0.166000
      5 C05        -3.1850    3.0900   -5.0440 c1        1 T6Q      0.009000
      6 C06        -1.9570    3.9610   -5.0090 c2        1 T6Q     -0.160000
      7 C07        -3.3270    1.7800   -4.4110 c1        1 T6Q     -0.425000
      8 C08        -2.2570    1.0680   -3.5020 c1        1 T6Q      0.189000
      9 N09        -2.0900    1.4590   -2.2410 n2        1 T6Q     -0.225000
     10 C10        -1.1060    0.8820   -1.4670 c1        1 T6Q      0.179000
     11 N11        -0.9620    1.2530   -0.1320 n2        1 T6Q     -0.233000
     12 C12         0.2950    0.9390    0.5930 c2        1 T6Q      0.061000
     13 C13         1.5320    1.4620    0.1270 c2        1 T6Q     -0.120000
     14 C14         2.7130    1.1360    0.7810 c1        1 T6Q     -0.104000
     15 C15         2.6860    0.2880    1.9060 c1        1 T6Q     -0.173000
     16 C16         1.4610   -0.2310    2.3700 c1        1 T6Q      0.051000
     17 N17         1.4430   -1.1750    3.4710 n2        1 T6Q     -0.246000
     18 C18         1.9140   -0.5390    4.6510 c3        1 T6Q     -0.052000
     19 C19         1.4040   -1.2240    5.8570 c3        1 T6Q     -0.176000
     20 C20         2.4320   -2.1760    6.4050 c3        1 T6Q     -0.032000
     21 N21         3.1800   -2.7910    5.3370 n         1 T6Q     -0.332000
     22 C22         4.5800   -2.9040    5.3090 c2        1 T6Q      0.298000
     23 C23         5.2740   -3.6620    4.1440 c3        1 T6Q     -0.238000
     24 O24         5.2530   -2.4610    6.2440 o         1 T6Q     -0.367000
     25 C25         2.2980   -3.2690    4.3010 c3        1 T6Q     -0.025000
     26 C26         2.2430   -2.2900    3.1460 c3        1 T6Q     -0.075000
     27 C27         0.2660    0.0970    1.7090 c2        1 T6Q     -0.171000
     28 N28        -0.3090   -0.0830   -1.9890 n2        1 T6Q     -0.210000
     29 C29        -0.4740   -0.4800   -3.2570 c1        1 T6Q      0.035000
     30 C30        -1.4470    0.0880   -4.0290 c1        1 T6Q     -0.173000
     31 C31        -1.5700   -0.2860   -5.4660 c1        1 T6Q     -0.075000
     32 N32        -1.6650   -0.5700   -6.5580 n1        1 T6Q     -0.039000
     33 S33        -4.6900    1.2210   -4.8010 ss        1 T6Q      0.499000
     34 H011       -7.8810    2.4240   -7.9040 h1        1 T6Q      0.088667
     35 H012       -6.7030    3.4290   -7.8270 h1        1 T6Q      0.088667
     36 H013       -6.3880    1.9620   -8.2750 h1        1 T6Q      0.088667
     37 H02        -7.3760    1.8060   -5.7860 hn        1 T6Q      0.197000
     38 H061       -1.9080    4.3850   -4.2040 ha        1 T6Q      0.099000
     39 H062       -1.1410    3.3960   -5.1390 ha        1 T6Q      0.099000
     40 H063       -2.0100    4.6000   -5.6960 ha        1 T6Q      0.099000
     41 H11        -1.6560    1.5980    0.3100 hn        1 T6Q      0.249000
     42 H13         1.5530    2.0730   -0.6830 ha        1 T6Q      0.155000
     43 H27        -0.6550   -0.2930    2.0570 ha        1 T6Q      0.141000
     44 H14         3.5560    1.4910    0.4650 ha        1 T6Q      0.138000
     45 H15         3.4910    0.0680    2.3490 ha        1 T6Q      0.138000
     46 H181        2.9150   -0.5600    4.6590 h1        1 T6Q      0.082000
     47 H182        1.6240    0.3510    4.6580 h1        1 T6Q      0.082000
     48 H261        1.8490   -2.7600    2.3210 h1        1 T6Q      0.081000
     49 H262        3.1570   -1.9830    2.9380 h1        1 T6Q      0.081000
     50 H191        1.1750   -0.5150    6.5810 hc        1 T6Q      0.097500
     51 H192        0.6130   -1.7090    5.6320 hc        1 T6Q      0.097500
     52 H201        3.0600   -1.6720    7.0010 h1        1 T6Q      0.099500
     53 H202        1.9700   -2.8890    6.9380 h1        1 T6Q      0.099500
     54 H251        2.6160   -4.1220    3.9800 h1        1 T6Q      0.100000
     55 H252        1.3840   -3.3820    4.6790 h1        1 T6Q      0.100000
     56 H231        4.5930   -3.8460    3.4080 hc        1 T6Q      0.105000
     57 H232        5.9850   -3.1290    3.7940 hc        1 T6Q      0.105000
     58 H233        5.6380   -4.5150    4.4770 hc        1 T6Q      0.105000
     59 H29         0.1060   -1.1790   -3.6320 ha        1 T6Q      0.177000
@<TRIPOS>BOND
     1    1    2 1   
     2    1   34 1   
     3    1   35 1   
     4    1   36 1   
     5    2    3 1   
     6    2   37 1   
     7    3    4 1   
     8    3   33 1   
     9    4    5 1   
    10    5    7 1   
    11    6   38 1   
    12    6   39 1   
    13    6   40 1   
    14    7   33 1   
    15    8    9 1   
    16    8   30 1   
    17    9   10 1   
    18   10   28 1   
    19   11   12 1   
    20   11   41 1   
    21   12   13 1   
    22   12   27 1   
    23   13   14 1   
    24   13   42 1   
    25   14   44 1   
    26   15   16 1   
    27   15   45 1   
    28   16   27 1   
    29   17   18 1   
    30   17   26 1   
    31   18   19 1   
    32   18   46 1   
    33   18   47 1   
    34   19   20 1   
    35   19   50 1   
    36   19   51 1   
    37   20   21 1   
    38   20   52 1   
    39   20   53 1   
    40   21   22 1   
    41   21   25 1   
    42   22   23 1   
    43   22   24 1   
    44   23   56 1   
    45   23   57 1   
    46   23   58 1   
    47   25   26 1   
    48   25   54 1   
    49   25   55 1   
    50   26   48 1   
    51   26   49 1   
    52   27   43 1   
    53   28   29 1   
    54   29   59 1   
    55   30   31 1   
    56   31   32 1   
@<TRIPOS>SUBSTRUCTURE
     1 T6Q         1 TEMP              0 ****  ****    0 ROOT
