@<TRIPOS>MOLECULE
T6Q
   61    63     1     0     0
SMALL
bcc


@<TRIPOS>ATOM
      1 C01         0.5930   -0.1140   -0.1350 c3        1 T6Q      0.084100
      2 N02         1.1130   -1.2990    0.6050 n4        1 T6Q     -0.708700
      3 C03         1.8580   -0.9270    1.8040 cc        1 T6Q      0.373300
      4 N04         1.2200   -0.3480    2.8550 nd        1 T6Q     -0.601000
      5 C05         2.1230   -0.0980    3.8660 cd        1 T6Q      0.492600
      6 C06         1.6650    0.5330    5.1260 c3        1 T6Q     -0.153400
      7 C07         3.4520   -0.4980    3.5550 cc        1 T6Q     -0.320300
      8 C08         4.6240   -0.3730    4.4020 cc        1 T6Q      0.703200
      9 N09         4.5080    0.1540    5.6240 nd        1 T6Q     -0.699000
     10 C10         5.6530    0.2820    6.4310 cd        1 T6Q      0.592800
     11 N11         5.5230    0.8290    7.6660 nh        1 T6Q     -0.218200
     12 C12         6.6240    1.0470    8.5490 ca        1 T6Q     -0.104200
     13 C13         7.6990    1.8650    8.1570 ca        1 T6Q     -0.166000
     14 C14         8.7390    2.0890    9.0580 ca        1 T6Q     -0.099000
     15 C15         8.7170    1.5370   10.3320 ca        1 T6Q     -0.066000
     16 C16         7.6250    0.7320   10.7440 ca        1 T6Q      0.180600
     17 N17         7.6160    0.2000   12.0660 nh        1 T6Q     -0.366800
     18 C18         6.3290   -0.2030   12.6320 c3        1 T6Q      0.117800
     19 C19         5.9140   -1.6490   12.3580 c3        1 T6Q     -0.108400
     20 C20         5.8470   -2.4850   13.6420 c3        1 T6Q      0.093000
     21 N21         7.1230   -2.8880   14.1820 n         1 T6Q     -0.489800
     22 C22         7.6860   -2.1730   15.2400 c         1 T6Q      0.661100
     23 C23         8.8480   -2.7630   15.9920 c3        1 T6Q     -0.171100
     24 O24         7.2350   -1.0430   15.5210 o         1 T6Q     -0.620100
     25 C25         7.6040   -4.1950   13.8390 c3        1 T6Q      0.077300
     26 C26         8.7740    0.1450   12.7020 c1        1 T6Q     -0.074500
     27 C27         6.5810    0.4750    9.8350 ca        1 T6Q     -0.151000
     28 N28         6.9200   -0.1430    5.9660 na        1 T6Q     -0.279400
     29 C29         7.0250   -0.6900    4.7180 cd        1 T6Q      0.103900
     30 C30         5.9100   -0.8240    3.8990 cc        1 T6Q     -0.212300
     31 C31         6.0580   -1.3920    2.6120 cg        1 T6Q      0.153500
     32 N32         6.2620   -1.8690    1.5670 n1        1 T6Q     -0.245800
     33 S33         3.5210   -1.1670    2.0180 ss        1 T6Q      0.193700
     34 H011        0.0560   -0.4810   -1.0530 hx        1 T6Q      0.122700
     35 H012        1.4460    0.5530   -0.4300 hx        1 T6Q      0.122700
     36 H013       -0.1210    0.4560    0.5210 hx        1 T6Q      0.122700
     37 H02         1.7310   -1.8470   -0.0080 hn        1 T6Q      0.475800
     38 H061        0.5660    0.7540    5.1070 hc        1 T6Q      0.091700
     39 H062        2.2120    1.4980    5.2870 hc        1 T6Q      0.091700
     40 H063        1.8680   -0.1530    5.9870 hc        1 T6Q      0.091700
     41 H11         4.6090    1.0880    7.9970 hn        1 T6Q      0.353700
     42 H13         7.7150    2.3670    7.1770 ha        1 T6Q      0.144000
     43 H27         5.7360   -0.1700   10.1310 ha        1 T6Q      0.160000
     44 H14         9.5850    2.7310    8.7590 ha        1 T6Q      0.172000
     45 H15         9.5540    1.7150   11.0400 ha        1 T6Q      0.213000
     46 H181        6.4040   -0.0420   13.7520 h1        1 T6Q      0.087700
     47 H182        5.5280    0.4930   12.2520 h1        1 T6Q      0.087700
     48 H261        7.2890   -4.4490   12.7920 h1        1 T6Q      0.043700
     49 H262        8.7440   -0.2550   13.7380 ha        1 T6Q      0.037500
     50 H191        6.5910   -2.1440   11.6150 hc        1 T6Q      0.044700
     51 H192        4.8820   -1.6440   11.9170 hc        1 T6Q      0.044700
     52 H201        5.2900   -1.8890   14.4250 h1        1 T6Q      0.065700
     53 H202        5.2430   -3.4110   13.4160 h1        1 T6Q      0.065700
     54 H251        8.7260   -4.2210   13.8880 h1        1 T6Q      0.043700
     55 H252        7.1960   -4.9760   14.5370 h1        1 T6Q      0.043700
     56 H231        8.6210   -3.8020   16.3320 hc        1 T6Q      0.076700
     57 H232        9.7580   -2.7790   15.3430 hc        1 T6Q      0.076700
     58 H233        9.0550   -2.1240   16.8870 hc        1 T6Q      0.076700
     59 H29         8.0420   -1.0150    4.3980 h4        1 T6Q      0.228000
     60 H022        0.3130   -1.8950    0.8820 hn        1 T6Q      0.475800
     61 H112        7.7340   -0.0510    6.5570 hn        1 T6Q      0.365700
@<TRIPOS>BOND
     1    1    2 1   
     2    1   34 1   
     3    1   35 1   
     4    1   36 1   
     5    2    3 1   
     6    2   37 1   
     7    2   60 1   
     8    3    4 2   
     9    3   33 1   
    10    4    5 1   
    11    5    6 1   
    12    5    7 2   
    13    6   38 1   
    14    6   39 1   
    15    6   40 1   
    16    7    8 1   
    17    7   33 1   
    18    8    9 2   
    19    8   30 1   
    20    9   10 1   
    21   10   11 2   
    22   10   28 1   
    23   11   12 1   
    24   11   41 1   
    25   12   13 ar  
    26   12   27 ar  
    27   13   14 ar  
    28   13   42 1   
    29   14   15 ar  
    30   14   44 1   
    31   15   16 ar  
    32   15   45 1   
    33   16   17 1   
    34   16   27 ar  
    35   17   18 1   
    36   17   26 3   
    37   18   19 1   
    38   18   46 1   
    39   18   47 1   
    40   19   20 1   
    41   19   50 1   
    42   19   51 1   
    43   20   21 1   
    44   20   52 1   
    45   20   53 1   
    46   21   22 1   
    47   21   25 1   
    48   22   23 1   
    49   22   24 2   
    50   23   56 1   
    51   23   57 1   
    52   23   58 1   
    53   25   48 1   
    54   25   54 1   
    55   25   55 1   
    56   26   49 1   
    57   27   43 1   
    58   28   29 1   
    59   28   61 1   
    60   29   30 2   
    61   29   59 1   
    62   30   31 1   
    63   31   32 3   
@<TRIPOS>SUBSTRUCTURE
     1 T6Q         1 TEMP              0 ****  ****    0 ROOT
