@<TRIPOS>MOLECULE
T74
   78    82     1     0     0
SMALL
bcc


@<TRIPOS>ATOM
      1 C38         1.6880   -1.2530   -1.6460 c3        1 T74      0.115700
      2 O37         2.8800   -0.7380   -1.0710 os        1 T74     -0.454600
      3 C25         3.1320   -1.1510    0.2810 c3        1 T74      0.158800
      4 C26         2.1230   -0.5210    1.2310 c3        1 T74     -0.126600
      5 C27         3.1200   -2.6680    0.4150 c3        1 T74     -0.126600
      6 C24         4.5580   -0.6450    0.5720 c3        1 T74     -0.094400
      7 C23         4.6370    0.8570    0.3290 c3        1 T74      0.045300
      8 N5          6.0060    1.3990    0.4100 na        1 T74      0.078200
      9 C9          6.7670    1.8560   -0.6910 ca        1 T74      0.450800
     10 C8          8.0660    2.2650   -0.1610 ca        1 T74     -0.410500
     11 C7          7.9490    1.9880    1.2540 cc        1 T74      0.358800
     12 N28         8.9860    2.2130    2.2470 n4        1 T74     -0.525400
     13 C29         8.4910    2.6100    3.5750 ca        1 T74     -0.074400
     14 C34         8.3350    1.6270    4.5770 ca        1 T74     -0.029300
     15 C36         8.6400    0.1970    4.3370 c3        1 T74     -0.089300
     16 C33         7.8930    2.0370    5.8390 ca        1 T74     -0.109500
     17 C32         7.6120    3.3770    6.0990 ca        1 T74     -0.054000
     18 C31         7.7720    4.3360    5.0990 ca        1 T74     -0.109500
     19 C30         8.2110    3.9730    3.8230 ca        1 T74     -0.029300
     20 C35         8.3900    5.0140    2.7840 c3        1 T74     -0.089300
     21 N6          6.7040    1.4690    1.5330 nd        1 T74     -0.386100
     22 C4          8.9940    2.7790   -1.0920 ca        1 T74      0.524200
     23 N1          8.6970    2.8820   -2.3860 nb        1 T74     -0.663000
     24 N3          6.4330    1.9500   -2.0140 nb        1 T74     -0.626000
     25 C2          7.4290    2.4600   -2.7850 ca        1 T74      0.751900
     26 N10         7.1440    2.5680   -4.2560 n4        1 T74     -0.576100
     27 C11         7.6550    1.4190   -4.9940 ca        1 T74     -0.197400
     28 C16         6.8240    0.3040   -5.2320 ca        1 T74     -0.028000
     29 C15         7.2820   -0.7500   -5.9900 ca        1 T74     -0.210500
     30 C14         8.6070   -0.7640   -6.5380 ca        1 T74      0.264600
     31 C13         9.4260    0.3810   -6.2670 ca        1 T74     -0.210500
     32 C12         8.9680    1.4350   -5.5090 ca        1 T74     -0.028000
     33 N17         9.0790   -1.8340   -7.2530 nh        1 T74     -0.615000
     34 C22        10.3570   -1.7130   -7.9360 c3        1 T74      0.197800
     35 C21        10.8750   -2.9980   -8.6140 c3        1 T74      0.156800
     36 N20         9.8230   -3.7380   -9.2700 n3        1 T74     -0.820200
     37 C19         8.7800   -4.1050   -8.3410 c3        1 T74      0.156800
     38 C18         8.1490   -2.8790   -7.6500 c3        1 T74      0.197800
     39 H38         1.7810   -2.3540   -1.8160 h1        1 T74      0.046033
     40 H38A        1.6050   -0.7140   -2.6230 h1        1 T74      0.046033
     41 H38B        0.8020   -1.0320   -1.0020 h1        1 T74      0.046033
     42 H26         1.1510   -1.0690    1.1860 hc        1 T74      0.055867
     43 H26A        1.9370    0.5430    0.9520 hc        1 T74      0.055867
     44 H26B        2.5020   -0.5680    2.2800 hc        1 T74      0.055867
     45 H27         3.5100   -2.9650    1.4170 hc        1 T74      0.055867
     46 H27A        2.0780   -3.0580    0.3120 hc        1 T74      0.055867
     47 H27B        3.7530   -3.1320   -0.3780 hc        1 T74      0.055867
     48 H24         4.8140   -0.8900    1.6340 hc        1 T74      0.068200
     49 H24A        5.2690   -1.1910   -0.1020 hc        1 T74      0.068200
     50 H23         4.0130    1.4030    1.0950 h1        1 T74      0.112700
     51 H23A        4.2500    1.0970   -0.7040 h1        1 T74      0.112700
     52 HN28        9.5310    1.3390    2.3450 hn        1 T74      0.469300
     53 H36         9.7330    0.0490    4.1420 hc        1 T74      0.067033
     54 H36A        8.3780   -0.4210    5.2350 hc        1 T74      0.067033
     55 H36B        8.0530   -0.2050    3.4730 hc        1 T74      0.067033
     56 H33         7.7690    1.2850    6.6380 ha        1 T74      0.174500
     57 H32         7.2640    3.6820    7.1020 ha        1 T74      0.178000
     58 H31         7.5530    5.3960    5.3150 ha        1 T74      0.174500
     59 H35         9.4760    5.1490    2.5420 hc        1 T74      0.067033
     60 H35A        7.8350    4.7530    1.8480 hc        1 T74      0.067033
     61 H35B        8.0020    6.0030    3.1410 hc        1 T74      0.067033
     62 H4         10.0070    3.1240   -0.8020 h4        1 T74      0.065100
     63 HN10        6.1240    2.6320   -4.3960 hn        1 T74      0.480300
     64 H16         5.7970    0.2680   -4.8290 ha        1 T74      0.152000
     65 H15         6.5900   -1.5870   -6.1780 ha        1 T74      0.166500
     66 H13        10.4470    0.4480   -6.6770 ha        1 T74      0.166500
     67 H12         9.6360    2.2930   -5.3230 ha        1 T74      0.152000
     68 H22        11.1370   -1.4090   -7.1810 h1        1 T74      0.060200
     69 H22A       10.2730   -0.9020   -8.7180 h1        1 T74      0.060200
     70 H21        11.6290   -2.6870   -9.3920 h1        1 T74      0.055200
     71 H21A       11.4140   -3.6140   -7.8340 h1        1 T74      0.055200
     72 HN20       10.1840   -4.5410   -9.7500 hn        1 T74      0.397800
     73 H19         9.1460   -4.8120   -7.5380 h1        1 T74      0.055200
     74 H19A        7.9610   -4.6250   -8.9140 h1        1 T74      0.055200
     75 H18         7.6280   -3.2610   -6.7260 h1        1 T74      0.060200
     76 H18A        7.3770   -2.4320   -8.3420 h1        1 T74      0.060200
     77 H282        9.5980    2.9620    1.8910 hn        1 T74      0.469300
     78 H102        7.5960    3.4240   -4.6120 hn        1 T74      0.480300
@<TRIPOS>BOND
     1    1    2 1   
     2    1   39 1   
     3    1   40 1   
     4    1   41 1   
     5    2    3 1   
     6    3    4 1   
     7    3    5 1   
     8    3    6 1   
     9    4   42 1   
    10    4   43 1   
    11    4   44 1   
    12    5   45 1   
    13    5   46 1   
    14    5   47 1   
    15    6    7 1   
    16    6   48 1   
    17    6   49 1   
    18    7    8 1   
    19    7   50 1   
    20    7   51 1   
    21    8    9 1   
    22    8   21 1   
    23    9   10 ar  
    24    9   24 ar  
    25   10   11 1   
    26   10   22 ar  
    27   11   12 1   
    28   11   21 2   
    29   12   13 1   
    30   12   52 1   
    31   12   77 1   
    32   13   14 ar  
    33   13   19 ar  
    34   14   15 1   
    35   14   16 ar  
    36   15   53 1   
    37   15   54 1   
    38   15   55 1   
    39   16   17 ar  
    40   16   56 1   
    41   17   18 ar  
    42   17   57 1   
    43   18   19 ar  
    44   18   58 1   
    45   19   20 1   
    46   20   59 1   
    47   20   60 1   
    48   20   61 1   
    49   22   23 ar  
    50   22   62 1   
    51   23   25 ar  
    52   24   25 ar  
    53   25   26 1   
    54   26   27 1   
    55   26   63 1   
    56   26   78 1   
    57   27   28 ar  
    58   27   32 ar  
    59   28   29 ar  
    60   28   64 1   
    61   29   30 ar  
    62   29   65 1   
    63   30   31 ar  
    64   30   33 1   
    65   31   32 ar  
    66   31   66 1   
    67   32   67 1   
    68   33   34 1   
    69   33   38 1   
    70   34   35 1   
    71   34   68 1   
    72   34   69 1   
    73   35   36 1   
    74   35   70 1   
    75   35   71 1   
    76   36   37 1   
    77   36   72 1   
    78   37   38 1   
    79   37   73 1   
    80   37   74 1   
    81   38   75 1   
    82   38   76 1   
@<TRIPOS>SUBSTRUCTURE
     1 T74         1 TEMP              0 ****  ****    0 ROOT
