@<TRIPOS>MOLECULE
T74
   76    80     1     0     0
SMALL
bcc


@<TRIPOS>ATOM
      1 C38         3.4970    6.1150   -0.1280 c3        1 T74      0.117700
      2 O37         3.2290    4.7260   -0.0950 os        1 T74     -0.424600
      3 C25         4.2250    3.9260    0.5630 c3        1 T74      0.152800
      4 C26         5.5400    3.9660   -0.2050 c3        1 T74     -0.121100
      5 C27         4.4380    4.3900    2.0000 c3        1 T74     -0.121100
      6 C24         3.6350    2.5080    0.5850 c3        1 T74     -0.093400
      7 C23         3.2840    2.0280   -0.8220 c3        1 T74      0.061300
      8 N5          2.7510    0.6770   -0.8860 na        1 T74     -0.000800
      9 C9          1.3770    0.3630   -0.8270 ca        1 T74      0.494800
     10 C8          1.2940   -1.0710   -0.5850 ca        1 T74     -0.508500
     11 C7          2.6890   -1.4940   -0.4530 cc        1 T74      0.571800
     12 N28         3.0620   -2.8380   -0.2940 nh        1 T74     -0.631600
     13 C29         4.4260   -3.1420   -0.0050 ca        1 T74      0.092600
     14 C34         4.8440   -3.4230    1.3190 ca        1 T74     -0.065800
     15 C36         3.8920   -3.3430    2.4540 c3        1 T74     -0.057300
     16 C33         6.1700   -3.7890    1.5620 ca        1 T74     -0.130500
     17 C32         7.0860   -3.8720    0.5170 ca        1 T74     -0.124000
     18 C31         6.6790   -3.5980   -0.7840 ca        1 T74     -0.130500
     19 C30         5.3570   -3.2390   -1.0670 ca        1 T74     -0.065800
     20 C35         4.9600   -2.9790   -2.4710 c3        1 T74     -0.057300
     21 N6          3.5100   -0.4120   -0.5940 nd        1 T74     -0.559100
     22 C4          0.0130   -1.6310   -0.5670 ca        1 T74      0.532200
     23 N1         -1.0850   -0.8960   -0.7490 nb        1 T74     -0.751000
     24 N3          0.2890    1.1590   -1.0040 nb        1 T74     -0.760000
     25 C2         -0.9170    0.4790   -0.9770 ca        1 T74      0.892900
     26 N10        -2.0580    1.2560   -1.2670 nh        1 T74     -0.697300
     27 C11        -3.3510    0.8590   -0.8440 ca        1 T74      0.093600
     28 C16        -4.0920    1.6810    0.0320 ca        1 T74     -0.106500
     29 C15        -5.3910    1.3530    0.3900 ca        1 T74     -0.161000
     30 C14        -6.0110    0.1810   -0.1040 ca        1 T74      0.131600
     31 C13        -5.2630   -0.6330   -0.9810 ca        1 T74     -0.161000
     32 C12        -3.9620   -0.3040   -1.3450 ca        1 T74     -0.106500
     33 N17        -7.3060   -0.1720    0.3530 nh        1 T74     -0.633000
     34 C22        -7.7700   -1.5030    0.0020 c3        1 T74      0.149300
     35 C21        -9.1130   -1.8520    0.6820 c3        1 T74      0.147800
     36 N20       -10.1490   -0.8500    0.5380 n3        1 T74     -0.796200
     37 C19        -9.6600    0.4720    0.8690 c3        1 T74      0.147800
     38 C18        -8.3220    0.8600    0.1990 c3        1 T74      0.149300
     39 H38         4.4930    6.3260   -0.5890 h1        1 T74      0.032700
     40 H38A        2.6770    6.5350   -0.7640 h1        1 T74      0.032700
     41 H38B        3.4510    6.5520    0.9000 h1        1 T74      0.032700
     42 H26         6.1070    4.8980    0.0310 hc        1 T74      0.045200
     43 H26A        6.1690    3.0880    0.0720 hc        1 T74      0.045200
     44 H26B        5.3440    3.9420   -1.3040 hc        1 T74      0.045200
     45 H27         3.4540    4.5080    2.5130 hc        1 T74      0.045200
     46 H27A        5.0500    3.6370    2.5510 hc        1 T74      0.045200
     47 H27B        4.9730    5.3690    2.0220 hc        1 T74      0.045200
     48 H24         4.3850    1.8250    1.0590 hc        1 T74      0.062200
     49 H24A        2.7120    2.5170    1.2220 hc        1 T74      0.062200
     50 H23         2.5130    2.7180   -1.2690 h1        1 T74      0.083700
     51 H23A        4.2110    2.0550   -1.4640 h1        1 T74      0.083700
     52 HN28        2.4320   -3.3020    0.3370 hn        1 T74      0.403800
     53 H36         3.1060   -4.1350    2.3650 hc        1 T74      0.048200
     54 H36A        4.4180   -3.4900    3.4290 hc        1 T74      0.048200
     55 H36B        3.3890   -2.3440    2.4800 hc        1 T74      0.048200
     56 H33         6.4920   -4.0090    2.5910 ha        1 T74      0.132500
     57 H32         8.1290   -4.1540    0.7220 ha        1 T74      0.132000
     58 H31         7.4050   -3.6680   -1.6090 ha        1 T74      0.132500
     59 H35         4.6580   -1.9090   -2.5990 hc        1 T74      0.048200
     60 H35A        5.8040   -3.1920   -3.1730 hc        1 T74      0.048200
     61 H35B        4.0920   -3.6230   -2.7580 hc        1 T74      0.048200
     62 H4         -0.1480   -2.7120   -0.4010 h4        1 T74      0.028100
     63 HN10       -1.9050    2.2460   -1.2230 hn        1 T74      0.436800
     64 H16        -3.6450    2.6000    0.4450 ha        1 T74      0.143000
     65 H15        -5.9260    2.0140    1.0880 ha        1 T74      0.136500
     66 H13        -5.6950   -1.5540   -1.4020 ha        1 T74      0.136500
     67 H12        -3.4170   -0.9690   -2.0340 ha        1 T74      0.143000
     68 H22        -7.8930   -1.6190   -1.1150 h1        1 T74      0.040200
     69 H22A       -6.9970   -2.2440    0.3470 h1        1 T74      0.040200
     70 H21        -9.4780   -2.8240    0.2500 h1        1 T74      0.060950
     71 H21A       -8.9360   -2.0010    1.7840 h1        1 T74      0.060950
     72 HN20      -10.5030   -0.8580   -0.4030 hn        1 T74      0.349800
     73 H19       -10.4300    1.2350    0.5710 h1        1 T74      0.060950
     74 H19A       -9.5330    0.5160    1.9870 h1        1 T74      0.060950
     75 H18        -7.9520    1.8050    0.6810 h1        1 T74      0.040200
     76 H18A       -8.5120    1.0820   -0.8920 h1        1 T74      0.040200
@<TRIPOS>BOND
     1    1    2 1   
     2    1   39 1   
     3    1   40 1   
     4    1   41 1   
     5    2    3 1   
     6    3    4 1   
     7    3    5 1   
     8    3    6 1   
     9    4   42 1   
    10    4   43 1   
    11    4   44 1   
    12    5   45 1   
    13    5   46 1   
    14    5   47 1   
    15    6    7 1   
    16    6   48 1   
    17    6   49 1   
    18    7    8 1   
    19    7   50 1   
    20    7   51 1   
    21    8    9 1   
    22    8   21 1   
    23    9   10 ar  
    24    9   24 ar  
    25   10   11 1   
    26   10   22 ar  
    27   11   12 1   
    28   11   21 2   
    29   12   13 1   
    30   12   52 1   
    31   13   14 ar  
    32   13   19 ar  
    33   14   15 1   
    34   14   16 ar  
    35   15   53 1   
    36   15   54 1   
    37   15   55 1   
    38   16   17 ar  
    39   16   56 1   
    40   17   18 ar  
    41   17   57 1   
    42   18   19 ar  
    43   18   58 1   
    44   19   20 1   
    45   20   59 1   
    46   20   60 1   
    47   20   61 1   
    48   22   23 ar  
    49   22   62 1   
    50   23   25 ar  
    51   24   25 ar  
    52   25   26 1   
    53   26   27 1   
    54   26   63 1   
    55   27   28 ar  
    56   27   32 ar  
    57   28   29 ar  
    58   28   64 1   
    59   29   30 ar  
    60   29   65 1   
    61   30   31 ar  
    62   30   33 1   
    63   31   32 ar  
    64   31   66 1   
    65   32   67 1   
    66   33   34 1   
    67   33   38 1   
    68   34   35 1   
    69   34   68 1   
    70   34   69 1   
    71   35   36 1   
    72   35   70 1   
    73   35   71 1   
    74   36   37 1   
    75   36   72 1   
    76   37   38 1   
    77   37   73 1   
    78   37   74 1   
    79   38   75 1   
    80   38   76 1   
@<TRIPOS>SUBSTRUCTURE
     1 T74         1 TEMP              0 ****  ****    0 ROOT
