@<TRIPOS>MOLECULE
T74
   76    80     1     0     0
SMALL
bcc


@<TRIPOS>ATOM
      1 C38         0.3450   -0.4520   -0.1710 c3        1 T74      0.117700
      2 O37         1.7120   -0.1220   -0.0150 os        1 T74     -0.423600
      3 C25         2.2030   -0.1730    1.3340 c3        1 T74      0.152800
      4 C26         1.5300    0.8910    2.1920 c3        1 T74     -0.121100
      5 C27         1.9900   -1.5550    1.9430 c3        1 T74     -0.121100
      6 C24         3.7130    0.0840    1.2100 c3        1 T74     -0.093400
      7 C23         3.9970    1.4040    0.4980 c3        1 T74      0.061300
      8 N5          5.4070    1.7350    0.3730 na        1 T74     -0.000800
      9 C9          6.2090    1.3830   -0.7330 ca        1 T74      0.494800
     10 C8          7.5900    1.5930   -0.3220 ca        1 T74     -0.509500
     11 C7          7.4890    2.0100    1.0780 cc        1 T74      0.571800
     12 N28         8.6050    2.3970    1.8360 nu        1 T74     -0.631600
     13 C29         8.4380    2.6260    3.2340 ca        1 T74      0.092600
     14 C34         8.8050    1.6380    4.1820 ca        1 T74     -0.065800
     15 C36         9.3080    0.3120    3.7470 c3        1 T74     -0.057300
     16 C33         8.6990    1.9160    5.5460 ca        1 T74     -0.130500
     17 C32         8.2280    3.1500    5.9850 ca        1 T74     -0.124000
     18 C31         7.8690    4.1230    5.0580 ca        1 T74     -0.130500
     19 C30         7.9720    3.8840    3.6840 ca        1 T74     -0.065800
     20 C35         7.6010    4.9570    2.7310 c3        1 T74     -0.057300
     21 N6          6.1760    2.0330    1.4540 nd        1 T74     -0.559100
     22 C4          8.5730    1.3830   -1.2950 ca        1 T74      0.532200
     23 N1          8.2730    1.0000   -2.5360 nb        1 T74     -0.751000
     24 N3          5.8490    0.9790   -1.9810 nb        1 T74     -0.761000
     25 C2          6.9160    0.8210   -2.8500 ca        1 T74      0.893900
     26 N10         6.5710    0.5090   -4.1820 nu        1 T74     -0.698300
     27 C11         7.4910   -0.1170   -5.0580 ca        1 T74      0.093600
     28 C16         7.1950   -1.3830   -5.6100 ca        1 T74     -0.107000
     29 C15         8.0420   -1.9740   -6.5330 ca        1 T74     -0.160000
     30 C14         9.2340   -1.3330   -6.9460 ca        1 T74      0.131600
     31 C13         9.5210   -0.0670   -6.3940 ca        1 T74     -0.160000
     32 C12         8.6710    0.5300   -5.4700 ca        1 T74     -0.107000
     33 N17        10.1230   -2.0090   -7.8210 nh        1 T74     -0.635000
     34 C22        11.4340   -1.4060   -7.9970 c3        1 T74      0.184800
     35 C21        12.3890   -2.3120   -8.8030 c3        1 T74      0.159300
     36 N20        11.8110   -2.7730  -10.0490 n7        1 T74     -0.820200
     37 C19        10.4950   -3.3560   -9.8840 c3        1 T74      0.159300
     38 C18         9.5360   -2.4550   -9.0780 c3        1 T74      0.184800
     39 H38         0.1390   -0.2500   -1.2530 h1        1 T74      0.032700
     40 H38A       -0.3040    0.1880    0.4740 h1        1 T74      0.032700
     41 H38B        0.1700   -1.5320    0.0600 h1        1 T74      0.032700
     42 H26         1.4040    1.8340    1.6080 hc        1 T74      0.045200
     43 H26A        0.5220    0.5470    2.5280 hc        1 T74      0.045200
     44 H26B        2.1510    1.1020    3.0940 hc        1 T74      0.045200
     45 H27         0.9090   -1.7290    2.1550 hc        1 T74      0.045200
     46 H27A        2.3480   -2.3420    1.2370 hc        1 T74      0.045200
     47 H27B        2.5590   -1.6370    2.8990 hc        1 T74      0.045200
     48 H24         4.1710   -0.7620    0.6350 hc        1 T74      0.062200
     49 H24A        4.1520    0.0890    2.2410 hc        1 T74      0.062200
     50 H23         3.5650    1.3670   -0.5420 h1        1 T74      0.083700
     51 H23A        3.5040    2.2450    1.0650 h1        1 T74      0.083700
     52 HN28        9.3830    1.7910    1.6450 hn        1 T74      0.403800
     53 H36         8.5910   -0.1720    3.0380 hc        1 T74      0.048033
     54 H36A        9.4430   -0.3720    4.6210 hc        1 T74      0.048033
     55 H36B       10.2980    0.4160    3.2360 hc        1 T74      0.048033
     56 H33         8.9860    1.1470    6.2800 ha        1 T74      0.132500
     57 H32         8.1420    3.3560    7.0620 ha        1 T74      0.132000
     58 H31         7.5010    5.1000    5.4070 ha        1 T74      0.132500
     59 H35         6.7140    4.6480    2.1220 hc        1 T74      0.048033
     60 H35A        8.4470    5.1690    2.0310 hc        1 T74      0.048033
     61 H35B        7.3440    5.9020    3.2700 hc        1 T74      0.048033
     62 H4          9.6480    1.5280   -1.0770 h4        1 T74      0.028100
     63 HN10        5.6250    0.2020   -4.3030 hn        1 T74      0.437800
     64 H16         6.2800   -1.9190   -5.3110 ha        1 T74      0.143000
     65 H15         7.7800   -2.9680   -6.9280 ha        1 T74      0.136500
     66 H13        10.4290    0.4830   -6.6860 ha        1 T74      0.136500
     67 H12         8.9340    1.5210   -5.0660 ha        1 T74      0.143000
     68 H22        11.3660   -0.4060   -8.5160 h1        1 T74      0.044700
     69 H22A       11.8870   -1.2470   -6.9780 h1        1 T74      0.044700
     70 H21        13.3040   -1.7060   -9.0550 h1        1 T74      0.036200
     71 H21A       12.7110   -3.1670   -8.1380 h1        1 T74      0.036200
     72 HN20       12.4260   -3.4300  -10.4910 hn        1 T74      0.364800
     73 H19        10.5350   -4.3680   -9.3840 h1        1 T74      0.036200
     74 H19A       10.0530   -3.4950  -10.9100 h1        1 T74      0.036200
     75 H18         8.6100   -3.0530   -8.8540 h1        1 T74      0.044700
     76 H18A        9.2380   -1.5770   -9.7210 h1        1 T74      0.044700
@<TRIPOS>BOND
     1    1    2 1   
     2    1   39 1   
     3    1   40 1   
     4    1   41 1   
     5    2    3 1   
     6    3    4 1   
     7    3    5 1   
     8    3    6 1   
     9    4   42 1   
    10    4   43 1   
    11    4   44 1   
    12    5   45 1   
    13    5   46 1   
    14    5   47 1   
    15    6    7 1   
    16    6   48 1   
    17    6   49 1   
    18    7    8 1   
    19    7   50 1   
    20    7   51 1   
    21    8    9 1   
    22    8   21 1   
    23    9   10 ar  
    24    9   24 ar  
    25   10   11 1   
    26   10   22 ar  
    27   11   12 1   
    28   11   21 2   
    29   12   13 1   
    30   12   52 1   
    31   13   14 ar  
    32   13   19 ar  
    33   14   15 1   
    34   14   16 ar  
    35   15   53 1   
    36   15   54 1   
    37   15   55 1   
    38   16   17 ar  
    39   16   56 1   
    40   17   18 ar  
    41   17   57 1   
    42   18   19 ar  
    43   18   58 1   
    44   19   20 1   
    45   20   59 1   
    46   20   60 1   
    47   20   61 1   
    48   22   23 ar  
    49   22   62 1   
    50   23   25 ar  
    51   24   25 ar  
    52   25   26 1   
    53   26   27 1   
    54   26   63 1   
    55   27   28 ar  
    56   27   32 ar  
    57   28   29 ar  
    58   28   64 1   
    59   29   30 ar  
    60   29   65 1   
    61   30   31 ar  
    62   30   33 1   
    63   31   32 ar  
    64   31   66 1   
    65   32   67 1   
    66   33   34 1   
    67   33   38 1   
    68   34   35 1   
    69   34   68 1   
    70   34   69 1   
    71   35   36 1   
    72   35   70 1   
    73   35   71 1   
    74   36   37 1   
    75   36   72 1   
    76   37   38 1   
    77   37   73 1   
    78   37   74 1   
    79   38   75 1   
    80   38   76 1   
@<TRIPOS>SUBSTRUCTURE
     1 T74         1 TEMP              0 ****  ****    0 ROOT
