@<TRIPOS>MOLECULE
T74
   76    80     1     0     0
SMALL
bcc


@<TRIPOS>ATOM
      1 C38         0.3450   -0.4550   -0.1740 c3        1 T74      0.117700
      2 O37         1.7110   -0.1240   -0.0170 os        1 T74     -0.423600
      3 C25         2.2020   -0.1740    1.3320 c3        1 T74      0.152800
      4 C26         1.5280    0.8900    2.1890 c3        1 T74     -0.121100
      5 C27         1.9890   -1.5550    1.9420 c3        1 T74     -0.121100
      6 C24         3.7120    0.0840    1.2090 c3        1 T74     -0.093400
      7 C23         3.9950    1.4040    0.4960 c3        1 T74      0.061300
      8 N5          5.4060    1.7350    0.3720 na        1 T74     -0.000800
      9 C9          6.2080    1.3830   -0.7340 ca        1 T74      0.494800
     10 C8          7.5890    1.5930   -0.3220 ca        1 T74     -0.509500
     11 C7          7.4870    2.0110    1.0770 cc        1 T74      0.571800
     12 N28         8.6020    2.3990    1.8360 nh        1 T74     -0.631600
     13 C29         8.4340    2.6270    3.2340 ca        1 T74      0.092600
     14 C34         8.8010    1.6400    4.1820 ca        1 T74     -0.065800
     15 C36         9.3050    0.3150    3.7480 c3        1 T74     -0.057300
     16 C33         8.6940    1.9180    5.5470 ca        1 T74     -0.130500
     17 C32         8.2230    3.1530    5.9840 ca        1 T74     -0.124000
     18 C31         7.8640    4.1260    5.0580 ca        1 T74     -0.130500
     19 C30         7.9680    3.8860    3.6830 ca        1 T74     -0.065800
     20 C35         7.5970    4.9590    2.7300 c3        1 T74     -0.057300
     21 N6          6.1740    2.0330    1.4530 nd        1 T74     -0.559100
     22 C4          8.5730    1.3830   -1.2940 ca        1 T74      0.532200
     23 N1          8.2730    0.9990   -2.5350 nb        1 T74     -0.751000
     24 N3          5.8490    0.9780   -1.9820 nb        1 T74     -0.761000
     25 C2          6.9170    0.8190   -2.8510 ca        1 T74      0.893900
     26 N10         6.5720    0.5070   -4.1820 nh        1 T74     -0.698300
     27 C11         7.4930   -0.1190   -5.0580 ca        1 T74      0.093600
     28 C16         7.1980   -1.3850   -5.6090 ca        1 T74     -0.107000
     29 C15         8.0460   -1.9760   -6.5320 ca        1 T74     -0.160000
     30 C14         9.2380   -1.3340   -6.9450 ca        1 T74      0.131600
     31 C13         9.5230   -0.0670   -6.3920 ca        1 T74     -0.160000
     32 C12         8.6730    0.5290   -5.4690 ca        1 T74     -0.107000
     33 N17        10.1270   -2.0090   -7.8190 nh        1 T74     -0.635000
     34 C22        11.4380   -1.4060   -7.9940 c3        1 T74      0.184800
     35 C21        12.3940   -2.3120   -8.7990 c3        1 T74      0.159300
     36 N20        11.8170   -2.7730  -10.0460 n3        1 T74     -0.820200
     37 C19        10.5010   -3.3570   -9.8810 c3        1 T74      0.159300
     38 C18         9.5410   -2.4560   -9.0760 c3        1 T74      0.184800
     39 H38         0.1690   -1.5340    0.0580 h1        1 T74      0.032700
     40 H38A       -0.3050    0.1860    0.4700 h1        1 T74      0.032700
     41 H38B        0.1390   -0.2540   -1.2560 h1        1 T74      0.032700
     42 H26         2.1480    1.1020    3.0910 hc        1 T74      0.045200
     43 H26A        0.5200    0.5460    2.5240 hc        1 T74      0.045200
     44 H26B        1.4020    1.8330    1.6030 hc        1 T74      0.045200
     45 H27         0.9080   -1.7300    2.1540 hc        1 T74      0.045200
     46 H27A        2.3480   -2.3430    1.2370 hc        1 T74      0.045200
     47 H27B        2.5570   -1.6360    2.8980 hc        1 T74      0.045200
     48 H24         4.1500    0.0890    2.2400 hc        1 T74      0.062200
     49 H24A        4.1700   -0.7630    0.6350 hc        1 T74      0.062200
     50 H23         3.5010    2.2450    1.0630 h1        1 T74      0.083700
     51 H23A        3.5640    1.3650   -0.5450 h1        1 T74      0.083700
     52 HN28        9.3810    1.7930    1.6450 hn        1 T74      0.403800
     53 H36         9.4400   -0.3700    4.6220 hc        1 T74      0.048033
     54 H36A       10.2950    0.4180    3.2370 hc        1 T74      0.048033
     55 H36B        8.5880   -0.1700    3.0380 hc        1 T74      0.048033
     56 H33         8.9810    1.1500    6.2810 ha        1 T74      0.132500
     57 H32         8.1360    3.3580    7.0610 ha        1 T74      0.132000
     58 H31         7.4950    5.1020    5.4060 ha        1 T74      0.132500
     59 H35         6.7110    4.6490    2.1200 hc        1 T74      0.048033
     60 H35A        8.4440    5.1710    2.0310 hc        1 T74      0.048033
     61 H35B        7.3390    5.9040    3.2690 hc        1 T74      0.048033
     62 H4          9.6470    1.5290   -1.0770 h4        1 T74      0.028100
     63 HN10        5.6260    0.1990   -4.3030 hn        1 T74      0.437800
     64 H16         6.2830   -1.9210   -5.3110 ha        1 T74      0.143000
     65 H15         7.7850   -2.9700   -6.9260 ha        1 T74      0.136500
     66 H13        10.4310    0.4820   -6.6840 ha        1 T74      0.136500
     67 H12         8.9350    1.5200   -5.0650 ha        1 T74      0.143000
     68 H22        11.8910   -1.2470   -6.9750 h1        1 T74      0.044700
     69 H22A       11.3700   -0.4060   -8.5130 h1        1 T74      0.044700
     70 H21        13.3090   -1.7060   -9.0510 h1        1 T74      0.036200
     71 H21A       12.7170   -3.1660   -8.1340 h1        1 T74      0.036200
     72 HN20       12.4330   -3.4310  -10.4870 hn        1 T74      0.364800
     73 H19        10.0600   -3.4960  -10.9080 h1        1 T74      0.036200
     74 H19A       10.5410   -4.3690   -9.3810 h1        1 T74      0.036200
     75 H18         8.6160   -3.0550   -8.8520 h1        1 T74      0.044700
     76 H18A        9.2430   -1.5790   -9.7200 h1        1 T74      0.044700
@<TRIPOS>BOND
     1    1    2 1   
     2    1   39 1   
     3    1   40 1   
     4    1   41 1   
     5    2    3 1   
     6    3    4 1   
     7    3    5 1   
     8    3    6 1   
     9    4   42 1   
    10    4   43 1   
    11    4   44 1   
    12    5   45 1   
    13    5   46 1   
    14    5   47 1   
    15    6    7 1   
    16    6   48 1   
    17    6   49 1   
    18    7    8 1   
    19    7   50 1   
    20    7   51 1   
    21    8    9 1   
    22    8   21 1   
    23    9   10 ar  
    24    9   24 ar  
    25   10   11 1   
    26   10   22 ar  
    27   11   12 1   
    28   11   21 2   
    29   12   13 1   
    30   12   52 1   
    31   13   14 ar  
    32   13   19 ar  
    33   14   15 1   
    34   14   16 ar  
    35   15   53 1   
    36   15   54 1   
    37   15   55 1   
    38   16   17 ar  
    39   16   56 1   
    40   17   18 ar  
    41   17   57 1   
    42   18   19 ar  
    43   18   58 1   
    44   19   20 1   
    45   20   59 1   
    46   20   60 1   
    47   20   61 1   
    48   22   23 ar  
    49   22   62 1   
    50   23   25 ar  
    51   24   25 ar  
    52   25   26 1   
    53   26   27 1   
    54   26   63 1   
    55   27   28 ar  
    56   27   32 ar  
    57   28   29 ar  
    58   28   64 1   
    59   29   30 ar  
    60   29   65 1   
    61   30   31 ar  
    62   30   33 1   
    63   31   32 ar  
    64   31   66 1   
    65   32   67 1   
    66   33   34 1   
    67   33   38 1   
    68   34   35 1   
    69   34   68 1   
    70   34   69 1   
    71   35   36 1   
    72   35   70 1   
    73   35   71 1   
    74   36   37 1   
    75   36   72 1   
    76   37   38 1   
    77   37   73 1   
    78   37   74 1   
    79   38   75 1   
    80   38   76 1   
@<TRIPOS>SUBSTRUCTURE
     1 T74         1 TEMP              0 ****  ****    0 ROOT
