@<TRIPOS>MOLECULE
T75
   50    53     1     0     0
SMALL
bcc


@<TRIPOS>ATOM
      1 O24         4.4310   -0.1830    2.1500 o         1 T75     -0.534100
      2 C22         4.2300   -0.0240    0.9390 c         1 T75      0.683700
      3 C23         5.3580    0.0470   -0.0400 ca        1 T75     -0.147600
      4 C29         6.3720   -0.9140    0.0520 ca        1 T75     -0.094000
      5 C28         7.4480   -0.8720   -0.8320 ca        1 T75     -0.135500
      6 C27         7.5200    0.1300   -1.8000 ca        1 T75     -0.109000
      7 C26         6.5160    1.0950   -1.8830 ca        1 T75     -0.135500
      8 C25         5.4330    1.0550   -1.0050 ca        1 T75     -0.094000
      9 N19         2.9570    0.1210    0.3820 n         1 T75     -0.566400
     10 C8          1.7250   -0.0760    1.0360 ca        1 T75      0.538200
     11 C7          0.5740    0.5660    0.4900 ca        1 T75     -0.284300
     12 N9          1.6490   -0.8800    2.1430 nb        1 T75     -0.662000
     13 C10         0.4450   -1.0260    2.7140 ca        1 T75      0.424200
     14 C11        -0.7390   -0.4260    2.2530 ca        1 T75     -0.251300
     15 C6         -0.6670    0.3840    1.1120 ca        1 T75      0.053000
     16 C5         -1.8460    1.0480    0.5990 cc        1 T75     -0.163400
     17 S4         -2.1230    2.6910    0.8490 ss        1 T75     -0.086300
     18 C3         -3.6210    2.5960    0.0150 cc        1 T75      0.401700
     19 C20        -4.4650    3.8080   -0.1550 c3        1 T75     -0.111700
     20 C21        -5.8180    3.6570    0.4970 c3        1 T75     -0.089100
     21 N2         -3.9240    1.3830   -0.4450 nd        1 T75     -0.626000
     22 C1         -2.9080    0.4820   -0.1180 cd        1 T75      0.423800
     23 C12        -3.0050   -0.9180   -0.5300 ca        1 T75     -0.123500
     24 C17        -1.8730   -1.5930   -1.0040 ca        1 T75     -0.114000
     25 C16        -1.9710   -2.9250   -1.4010 ca        1 T75     -0.132000
     26 C15        -3.1920   -3.5910   -1.3310 ca        1 T75     -0.121000
     27 C14        -4.3310   -2.9260   -0.8630 ca        1 T75     -0.084300
     28 C18        -5.6300   -3.6340   -0.7750 c3        1 T75     -0.053800
     29 C13        -4.2340   -1.5870   -0.4670 ca        1 T75     -0.095000
     30 H19         2.8940    0.3350   -0.5880 hn        1 T75      0.323500
     31 H29         6.3140   -1.6900    0.8330 ha        1 T75      0.144500
     32 H25         4.6550    1.8310   -1.0670 ha        1 T75      0.144500
     33 H28         8.2440   -1.6290   -0.7610 ha        1 T75      0.138500
     34 H27         8.3720    0.1620   -2.4960 ha        1 T75      0.136000
     35 H26         6.5780    1.8910   -2.6390 ha        1 T75      0.138500
     36 H7          0.6510    1.1970   -0.4060 ha        1 T75      0.145000
     37 H10         0.4330   -1.6790    3.6070 h4        1 T75      0.030100
     38 H11        -1.6920   -0.5950    2.7710 ha        1 T75      0.155000
     39 H201       -3.9260    4.6890    0.2860 hc        1 T75      0.059200
     40 H202       -4.5980    4.0110   -1.2540 hc        1 T75      0.059200
     41 H211       -6.4080    4.5960    0.3580 hc        1 T75      0.044033
     42 H212       -6.3830    2.8090    0.0400 hc        1 T75      0.044033
     43 H213       -5.7120    3.4630    1.5910 hc        1 T75      0.044033
     44 H17        -0.9070   -1.0670   -1.0590 ha        1 T75      0.137000
     45 H13        -5.1310   -1.0600   -0.1080 ha        1 T75      0.146000
     46 H16        -1.0790   -3.4510   -1.7720 ha        1 T75      0.133000
     47 H15        -3.2640   -4.6430   -1.6450 ha        1 T75      0.132000
     48 H181       -5.7510   -4.0830    0.2430 hc        1 T75      0.044700
     49 H182       -6.4810   -2.9300   -0.9500 hc        1 T75      0.044700
     50 H183       -5.6900   -4.4560   -1.5290 hc        1 T75      0.044700
@<TRIPOS>BOND
     1    1    2 2   
     2    2    3 1   
     3    2    9 1   
     4    3    4 ar  
     5    3    8 ar  
     6    4    5 ar  
     7    4   31 1   
     8    5    6 ar  
     9    5   33 1   
    10    6    7 ar  
    11    6   34 1   
    12    7    8 ar  
    13    7   35 1   
    14    8   32 1   
    15    9   10 1   
    16    9   30 1   
    17   10   11 ar  
    18   10   12 ar  
    19   11   15 ar  
    20   11   36 1   
    21   12   13 ar  
    22   13   14 ar  
    23   13   37 1   
    24   14   15 ar  
    25   14   38 1   
    26   15   16 1   
    27   16   17 1   
    28   16   22 2   
    29   17   18 1   
    30   18   19 1   
    31   18   21 2   
    32   19   20 1   
    33   19   39 1   
    34   19   40 1   
    35   20   41 1   
    36   20   42 1   
    37   20   43 1   
    38   21   22 1   
    39   22   23 1   
    40   23   24 ar  
    41   23   29 ar  
    42   24   25 ar  
    43   24   44 1   
    44   25   26 ar  
    45   25   46 1   
    46   26   27 ar  
    47   26   47 1   
    48   27   28 1   
    49   27   29 ar  
    50   28   48 1   
    51   28   49 1   
    52   28   50 1   
    53   29   45 1   
@<TRIPOS>SUBSTRUCTURE
     1 T75         1 TEMP              0 ****  ****    0 ROOT
