@<TRIPOS>MOLECULE
T75
   50    44     1     0     0
SMALL
bcc


@<TRIPOS>ATOM
      1 O24        -0.4640    2.2740    4.0070 o         1 T75     -0.298000
      2 C22         0.2470    1.3440    4.1230 c1        1 T75      0.359000
      3 C23         1.1090    1.1390    5.5070 c1        1 T75     -0.130000
      4 C29         0.9540    2.0180    6.5440 c2        1 T75     -0.079000
      5 C28         1.5840    1.7810    7.7500 c1        1 T75     -0.137000
      6 C27         2.3610    0.6690    7.9050 c1        1 T75     -0.118000
      7 C26         2.5160   -0.2190    6.8550 c1        1 T75     -0.118000
      8 C25         1.8950    0.0140    5.6670 c1        1 T75     -0.104000
      9 N19         0.4030    0.4570    3.0740 n3        1 T75     -0.335000
     10 C8         -0.2930    0.6720    1.8620 c2        1 T75      0.130000
     11 C7          0.2980    0.3330    0.6670 c2        1 T75     -0.220000
     12 N9         -1.4910    1.2650    1.8740 n1        1 T75     -0.136000
     13 C10        -2.1320    1.5390    0.6970 c1        1 T75     -0.118000
     14 C11        -1.5450    1.2020   -0.4970 c1        1 T75     -0.118000
     15 C6         -0.3340    0.6020   -0.5080 c1        1 T75      0.053000
     16 C5          0.4080    0.4230   -1.8210 c2        1 T75     -0.367000
     17 S4          1.5350    1.2920   -2.3370 ss        1 T75      0.499000
     18 C3          1.9310    0.7510   -3.7600 c1        1 T75     -0.270000
     19 C20         3.0140    1.3580   -4.7060 c2        1 T75     -0.096000
     20 C21         2.4100    2.5340   -5.4930 c3        1 T75     -0.207000
     21 N2          1.0970   -0.3490   -4.0510 n2        1 T75     -0.100000
     22 C1          0.1180   -0.5760   -2.8280 c1        1 T75     -0.012000
     23 C12        -0.9550   -1.6640   -2.7230 c1        1 T75     -0.015000
     24 C17        -0.7500   -2.7820   -1.8940 c2        1 T75     -0.114000
     25 C16        -1.6910   -3.7860   -1.8530 c1        1 T75     -0.132000
     26 C15        -2.8150   -3.6930   -2.6130 c1        1 T75     -0.121000
     27 C14        -3.0130   -2.5820   -3.4330 c1        1 T75     -0.077000
     28 C18        -4.3220   -2.4570   -4.2790 c2        1 T75     -0.179000
     29 C13        -2.0740   -1.5780   -3.4760 c2        1 T75     -0.095000
     30 H19         1.0560   -0.1580    3.1060 hn        1 T75      0.238000
     31 H29         0.3930    2.8210    6.4300 ha        1 T75      0.155000
     32 H25         1.9990   -0.5720    4.9760 ha        1 T75      0.138000
     33 H28         1.4720    2.4220    8.5090 ha        1 T75      0.140000
     34 H27         2.7940    0.5040    8.7310 ha        1 T75      0.148750
     35 H26         3.0910   -1.0430    6.9690 ha        1 T75      0.148750
     36 H7          1.1920   -0.1110    0.6630 ha        1 T75      0.146000
     37 H10        -3.0450    1.9900    0.7070 ha        1 T75      0.148750
     38 H11        -2.0070    1.3990   -1.3470 ha        1 T75      0.148750
     39 H201        3.3190    0.6750   -5.3330 ha        1 T75      0.098500
     40 H202        3.8120    1.6920   -4.1430 ha        1 T75      0.098500
     41 H211        2.1370    3.2840   -4.8380 hc        1 T75      0.083333
     42 H212        3.1010    2.8910   -6.1490 hc        1 T75      0.083333
     43 H213        1.5710    2.2070   -6.0170 hc        1 T75      0.083333
     44 H17         0.0980   -2.8490   -1.3230 ha        1 T75      0.136000
     45 H13        -2.2050   -0.8550   -4.0100 ha        1 T75      0.146000
     46 H16        -1.5460   -4.6030   -1.2490 ha        1 T75      0.132000
     47 H15        -3.4720   -4.3940   -2.5860 ha        1 T75      0.132000
     48 H181       -4.7060   -1.5870   -4.1470 ha        1 T75      0.084000
     49 H182       -4.1170   -2.5790   -5.2040 ha        1 T75      0.084000
     50 H183       -4.9380   -3.1160   -4.0050 ha        1 T75      0.084000
@<TRIPOS>BOND
     1    1    2 1   
     2    2    9 1   
     3    3    4 1   
     4    3    8 1   
     5    4    5 1   
     6    4   31 1   
     7    5   33 1   
     8    6    7 1   
     9    6   34 1   
    10    7   35 1   
    11    8   32 1   
    12    9   10 1   
    13    9   30 1   
    14   10   11 1   
    15   10   12 1   
    16   11   15 1   
    17   11   36 1   
    18   13   14 1   
    19   13   37 1   
    20   14   38 1   
    21   15   16 1   
    22   16   17 1   
    23   16   22 1   
    24   17   18 1   
    25   18   21 1   
    26   19   20 1   
    27   19   39 1   
    28   19   40 1   
    29   20   41 1   
    30   20   42 1   
    31   20   43 1   
    32   21   22 1   
    33   23   24 1   
    34   23   29 1   
    35   24   25 1   
    36   24   44 1   
    37   25   46 1   
    38   26   27 1   
    39   26   47 1   
    40   27   29 1   
    41   28   48 1   
    42   28   49 1   
    43   28   50 1   
    44   29   45 1   
@<TRIPOS>SUBSTRUCTURE
     1 T75         1 TEMP              0 ****  ****    0 ROOT
