@<TRIPOS>MOLECULE
T75
   51    54     1     0     0
SMALL
bcc


@<TRIPOS>ATOM
      1 O24         4.4290   -0.1930   -1.2200 o         1 T75     -0.442100
      2 C22         3.4010    0.1870   -0.6730 c         1 T75      0.587700
      3 C23         2.7700   -0.3300    0.5360 ca        1 T75     -0.204600
      4 C29         3.5610   -1.1790    1.3350 ca        1 T75     -0.061500
      5 C28         3.0360   -1.7180    2.5060 ca        1 T75     -0.130000
      6 C27         1.7260   -1.4240    2.8860 ca        1 T75     -0.047000
      7 C26         0.9360   -0.5910    2.0880 ca        1 T75     -0.130000
      8 C25         1.4490   -0.0430    0.9170 ca        1 T75     -0.061500
      9 N19         2.7620    1.4000   -1.3400 n4        1 T75     -0.661500
     10 C8          1.8860    1.0020   -2.4680 ca        1 T75      0.452200
     11 C7          2.4640    0.3930   -3.5960 ca        1 T75     -0.214300
     12 N9          0.5550    1.2720   -2.3330 nb        1 T75     -0.674000
     13 C10        -0.2300    0.9290   -3.3640 ca        1 T75      0.434200
     14 C11         0.2440    0.3220   -4.5440 ca        1 T75     -0.186300
     15 C6          1.6120    0.0420   -4.6690 ca        1 T75      0.097000
     16 C5          2.1590   -0.5610   -5.8510 cc        1 T75     -0.228400
     17 S4          3.7010   -0.1890   -6.4370 ss        1 T75     -0.095300
     18 C3          3.4750   -1.2270   -7.7850 cc        1 T75      0.454700
     19 C20         4.5480   -1.3850   -8.8020 c3        1 T75     -0.122700
     20 C21         4.0940   -0.9690  -10.1800 c3        1 T75     -0.092100
     21 N2          2.2940   -1.8490   -7.8140 nd        1 T75     -0.618000
     22 C1          1.5320   -1.4820   -6.7100 cd        1 T75      0.479800
     23 C12         0.2050   -2.0700   -6.5170 ca        1 T75     -0.158500
     24 C17        -0.0620   -2.8520   -5.3860 ca        1 T75     -0.121000
     25 C16        -1.3210   -3.4290   -5.2280 ca        1 T75     -0.129000
     26 C15        -2.3100   -3.2340   -6.1890 ca        1 T75     -0.112000
     27 C14        -2.0480   -2.4640   -7.3290 ca        1 T75     -0.071300
     28 C18        -3.0880   -2.2850   -8.3680 c3        1 T75     -0.061800
     29 C13        -0.7830   -1.8870   -7.4920 ca        1 T75     -0.098000
     30 H19         2.2290    1.9380   -0.6440 hn        1 T75      0.469800
     31 H29         4.5940   -1.4160    1.0270 ha        1 T75      0.159500
     32 H25         0.7880    0.5880    0.3020 ha        1 T75      0.159500
     33 H28         3.6590   -2.3800    3.1300 ha        1 T75      0.167000
     34 H27         1.3100   -1.8520    3.8150 ha        1 T75      0.166000
     35 H26        -0.1020   -0.3680    2.3860 ha        1 T75      0.167000
     36 H7          3.5440    0.1760   -3.6530 ha        1 T75      0.178000
     37 H10        -1.3060    1.1610   -3.2340 h4        1 T75      0.060100
     38 H11        -0.4570    0.0640   -5.3560 ha        1 T75      0.193000
     39 H201        4.8730   -2.4630   -8.8230 hc        1 T75      0.070200
     40 H202        5.4360   -0.7710   -8.4900 hc        1 T75      0.070200
     41 H211        3.7720    0.1010  -10.1880 hc        1 T75      0.051367
     42 H212        4.9370   -1.0910  -10.9020 hc        1 T75      0.051367
     43 H213        3.2380   -1.5990  -10.5220 hc        1 T75      0.051367
     44 H17         0.7240   -3.0250   -4.6370 ha        1 T75      0.133000
     45 H13        -0.5610   -1.3000   -8.3960 ha        1 T75      0.150000
     46 H16        -1.5290   -4.0530   -4.3450 ha        1 T75      0.140000
     47 H15        -3.3010   -3.6970   -6.0600 ha        1 T75      0.145000
     48 H181       -3.0280   -3.1200   -9.1120 hc        1 T75      0.054033
     49 H182       -2.9490   -1.3200   -8.9150 hc        1 T75      0.054033
     50 H183       -4.1110   -2.2930   -7.9160 hc        1 T75      0.054033
     51 H192        3.5050    1.9950   -1.7300 hn        1 T75      0.469800
@<TRIPOS>BOND
     1    1    2 2   
     2    2    3 1   
     3    2    9 1   
     4    3    4 ar  
     5    3    8 ar  
     6    4    5 ar  
     7    4   31 1   
     8    5    6 ar  
     9    5   33 1   
    10    6    7 ar  
    11    6   34 1   
    12    7    8 ar  
    13    7   35 1   
    14    8   32 1   
    15    9   10 1   
    16    9   30 1   
    17    9   51 1   
    18   10   11 ar  
    19   10   12 ar  
    20   11   15 ar  
    21   11   36 1   
    22   12   13 ar  
    23   13   14 ar  
    24   13   37 1   
    25   14   15 ar  
    26   14   38 1   
    27   15   16 1   
    28   16   17 1   
    29   16   22 2   
    30   17   18 1   
    31   18   19 1   
    32   18   21 2   
    33   19   20 1   
    34   19   39 1   
    35   19   40 1   
    36   20   41 1   
    37   20   42 1   
    38   20   43 1   
    39   21   22 1   
    40   22   23 1   
    41   23   24 ar  
    42   23   29 ar  
    43   24   25 ar  
    44   24   44 1   
    45   25   26 ar  
    46   25   46 1   
    47   26   27 ar  
    48   26   47 1   
    49   27   28 1   
    50   27   29 ar  
    51   28   48 1   
    52   28   49 1   
    53   28   50 1   
    54   29   45 1   
@<TRIPOS>SUBSTRUCTURE
     1 T75         1 TEMP              0 ****  ****    0 ROOT
