@<TRIPOS>MOLECULE
T75
   50    53     1     0     0
SMALL
bcc


@<TRIPOS>ATOM
      1 O24         0.4680    1.5620    0.1610 o         1 T75     -0.534100
      2 C22         1.2690    0.6260    0.0350 c         1 T75      0.683700
      3 C23         2.0020    0.0600    1.2090 ca        1 T75     -0.147600
      4 C29         1.2720   -0.2200    2.3690 ca        1 T75     -0.094000
      5 C28         1.9230   -0.7340    3.4900 ca        1 T75     -0.135500
      6 C27         3.2990   -0.9590    3.4580 ca        1 T75     -0.109000
      7 C26         4.0280   -0.6670    2.3050 ca        1 T75     -0.135500
      8 C25         3.3820   -0.1590    1.1780 ca        1 T75     -0.094000
      9 N19         1.5730    0.0330   -1.1920 n         1 T75     -0.566400
     10 C8          0.9120    0.2470   -2.4170 ca        1 T75      0.538200
     11 C7          1.6290   -0.0430   -3.6170 ca        1 T75     -0.284300
     12 N9         -0.3820    0.6950   -2.4380 nb        1 T75     -0.662000
     13 C10        -0.9510    0.8750   -3.6380 ca        1 T75      0.424200
     14 C11        -0.3210    0.6260   -4.8690 ca        1 T75     -0.251300
     15 C6          0.9980    0.1520   -4.8510 ca        1 T75      0.053000
     16 C5          1.7100   -0.1040   -6.0840 cc        1 T75     -0.162400
     17 S4          2.8840    0.9510   -6.6700 ss        1 T75     -0.086300
     18 C3          3.1250   -0.0350   -8.0550 cc        1 T75      0.401700
     19 C20         4.1260    0.3440   -9.0850 c3        1 T75     -0.111700
     20 C21         3.4950    0.5710  -10.4380 c3        1 T75     -0.089100
     21 N2          2.3600   -1.1270   -8.0970 nd        1 T75     -0.626000
     22 C1          1.5430   -1.1800   -6.9660 cd        1 T75      0.423800
     23 C12         0.6200   -2.2990   -6.7780 ca        1 T75     -0.123500
     24 C17         0.4520   -2.8670   -5.5080 ca        1 T75     -0.114000
     25 C16        -0.4250   -3.9350   -5.3330 ca        1 T75     -0.132000
     26 C15        -1.1370   -4.4450   -6.4180 ca        1 T75     -0.121000
     27 C14        -0.9710   -3.8910   -7.6920 ca        1 T75     -0.084300
     28 C18        -1.7100   -4.4430   -8.8510 c3        1 T75     -0.052800
     29 C13        -0.0900   -2.8190   -7.8680 ca        1 T75     -0.095000
     30 H19         2.2940   -0.6520   -1.2120 hn        1 T75      0.323500
     31 H29         0.1880   -0.0210    2.3900 ha        1 T75      0.144500
     32 H25         3.9690    0.0860    0.2800 ha        1 T75      0.144500
     33 H28         1.3480   -0.9570    4.4020 ha        1 T75      0.138500
     34 H27         3.8110   -1.3630    4.3440 ha        1 T75      0.136000
     35 H26         5.1150   -0.8350    2.2840 ha        1 T75      0.138500
     36 H7          2.6620   -0.4150   -3.5820 ha        1 T75      0.145000
     37 H10        -1.9940    1.2430   -3.6050 h4        1 T75      0.030100
     38 H11        -0.8520    0.7920   -5.8150 ha        1 T75      0.155000
     39 H201        4.9000   -0.4690   -9.1630 hc        1 T75      0.059200
     40 H202        4.6530    1.2790   -8.7500 hc        1 T75      0.059200
     41 H211        3.0020   -0.3620  -10.8030 hc        1 T75      0.044033
     42 H212        2.7280    1.3800  -10.3880 hc        1 T75      0.044033
     43 H213        4.2810    0.8700  -11.1730 hc        1 T75      0.044033
     44 H17         1.0110   -2.4630   -4.6500 ha        1 T75      0.137000
     45 H13         0.0450   -2.3850   -8.8710 ha        1 T75      0.146000
     46 H16        -0.5570   -4.3760   -4.3340 ha        1 T75      0.133000
     47 H15        -1.8300   -5.2870   -6.2740 ha        1 T75      0.132000
     48 H181       -1.9320   -3.6440   -9.6010 hc        1 T75      0.044367
     49 H182       -2.6760   -4.9030   -8.5280 hc        1 T75      0.044367
     50 H183       -1.0960   -5.2320   -9.3530 hc        1 T75      0.044367
@<TRIPOS>BOND
     1    1    2 2   
     2    2    3 1   
     3    2    9 1   
     4    3    4 ar  
     5    3    8 ar  
     6    4    5 ar  
     7    4   31 1   
     8    5    6 ar  
     9    5   33 1   
    10    6    7 ar  
    11    6   34 1   
    12    7    8 ar  
    13    7   35 1   
    14    8   32 1   
    15    9   10 1   
    16    9   30 1   
    17   10   11 ar  
    18   10   12 ar  
    19   11   15 ar  
    20   11   36 1   
    21   12   13 ar  
    22   13   14 ar  
    23   13   37 1   
    24   14   15 ar  
    25   14   38 1   
    26   15   16 1   
    27   16   17 1   
    28   16   22 2   
    29   17   18 1   
    30   18   19 1   
    31   18   21 2   
    32   19   20 1   
    33   19   39 1   
    34   19   40 1   
    35   20   41 1   
    36   20   42 1   
    37   20   43 1   
    38   21   22 1   
    39   22   23 1   
    40   23   24 ar  
    41   23   29 ar  
    42   24   25 ar  
    43   24   44 1   
    44   25   26 ar  
    45   25   46 1   
    46   26   27 ar  
    47   26   47 1   
    48   27   28 1   
    49   27   29 ar  
    50   28   48 1   
    51   28   49 1   
    52   28   50 1   
    53   29   45 1   
@<TRIPOS>SUBSTRUCTURE
     1 T75         1 TEMP              0 ****  ****    0 ROOT
