@<TRIPOS>MOLECULE
T75
   50    53     1     0     0
SMALL
bcc


@<TRIPOS>ATOM
      1 O24         0.4700    1.5610    0.1620 o         1 T75     -0.534100
      2 C22         1.2690    0.6230    0.0350 c         1 T75      0.683700
      3 C23         2.0010    0.0530    1.2080 ca        1 T75     -0.147600
      4 C29         1.2690   -0.2270    2.3680 ca        1 T75     -0.094000
      5 C28         1.9180   -0.7440    3.4890 ca        1 T75     -0.135500
      6 C27         3.2940   -0.9730    3.4570 ca        1 T75     -0.109000
      7 C26         4.0240   -0.6820    2.3040 ca        1 T75     -0.135500
      8 C25         3.3800   -0.1700    1.1780 ca        1 T75     -0.094000
      9 N19         1.5720    0.0300   -1.1920 ns        1 T75     -0.566400
     10 C8          0.9130    0.2480   -2.4180 ca        1 T75      0.538200
     11 C7          1.6290   -0.0420   -3.6180 ca        1 T75     -0.284300
     12 N9         -0.3800    0.7000   -2.4380 nb        1 T75     -0.662000
     13 C10        -0.9480    0.8820   -3.6390 ca        1 T75      0.424200
     14 C11        -0.3190    0.6330   -4.8700 ca        1 T75     -0.251300
     15 C6          0.9990    0.1560   -4.8520 ca        1 T75      0.053000
     16 C5          1.7110   -0.1000   -6.0850 cc        1 T75     -0.162400
     17 S4          2.8840    0.9560   -6.6720 ss        1 T75     -0.086300
     18 C3          3.1240   -0.0310   -8.0560 cc        1 T75      0.401700
     19 C20         4.1250    0.3490   -9.0880 c3        1 T75     -0.111700
     20 C21         3.4930    0.5740  -10.4400 c3        1 T75     -0.089100
     21 N2          2.3610   -1.1230   -8.0980 nd        1 T75     -0.626000
     22 C1          1.5440   -1.1760   -6.9660 cd        1 T75      0.423800
     23 C12         0.6220   -2.2960   -6.7770 ca        1 T75     -0.123500
     24 C17         0.4560   -2.8640   -5.5070 ca        1 T75     -0.114000
     25 C16        -0.4210   -3.9320   -5.3310 ca        1 T75     -0.132000
     26 C15        -1.1330   -4.4430   -6.4140 ca        1 T75     -0.121000
     27 C14        -0.9700   -3.8880   -7.6890 ca        1 T75     -0.084300
     28 C18        -1.7100   -4.4410   -8.8470 c3        1 T75     -0.052800
     29 C13        -0.0890   -2.8160   -7.8660 ca        1 T75     -0.095000
     30 H19         2.2920   -0.6560   -1.2140 hn        1 T75      0.323500
     31 H29         0.1860   -0.0250    2.3890 ha        1 T75      0.144500
     32 H25         3.9680    0.0740    0.2800 ha        1 T75      0.144500
     33 H28         1.3430   -0.9660    4.3990 ha        1 T75      0.138500
     34 H27         3.8050   -1.3800    4.3420 ha        1 T75      0.136000
     35 H26         5.1110   -0.8520    2.2830 ha        1 T75      0.138500
     36 H7          2.6610   -0.4160   -3.5830 ha        1 T75      0.145000
     37 H10        -1.9900    1.2530   -3.6050 h4        1 T75      0.030100
     38 H11        -0.8490    0.8020   -5.8160 ha        1 T75      0.155000
     39 H201        4.8990   -0.4640   -9.1650 hc        1 T75      0.059200
     40 H202        4.6510    1.2840   -8.7530 hc        1 T75      0.059200
     41 H211        3.0000   -0.3590  -10.8050 hc        1 T75      0.044033
     42 H212        4.2780    0.8740  -11.1760 hc        1 T75      0.044033
     43 H213        2.7260    1.3830  -10.3900 hc        1 T75      0.044033
     44 H17         1.0160   -2.4590   -4.6500 ha        1 T75      0.137000
     45 H13         0.0450   -2.3820   -8.8690 ha        1 T75      0.146000
     46 H16        -0.5500   -4.3730   -4.3320 ha        1 T75      0.133000
     47 H15        -1.8250   -5.2860   -6.2690 ha        1 T75      0.132000
     48 H181       -1.9330   -3.6430   -9.5970 hc        1 T75      0.044367
     49 H182       -1.0960   -5.2310   -9.3490 hc        1 T75      0.044367
     50 H183       -2.6750   -4.9010   -8.5230 hc        1 T75      0.044367
@<TRIPOS>BOND
     1    1    2 2   
     2    2    3 1   
     3    2    9 1   
     4    3    4 ar  
     5    3    8 ar  
     6    4    5 ar  
     7    4   31 1   
     8    5    6 ar  
     9    5   33 1   
    10    6    7 ar  
    11    6   34 1   
    12    7    8 ar  
    13    7   35 1   
    14    8   32 1   
    15    9   10 1   
    16    9   30 1   
    17   10   11 ar  
    18   10   12 ar  
    19   11   15 ar  
    20   11   36 1   
    21   12   13 ar  
    22   13   14 ar  
    23   13   37 1   
    24   14   15 ar  
    25   14   38 1   
    26   15   16 1   
    27   16   17 1   
    28   16   22 2   
    29   17   18 1   
    30   18   19 1   
    31   18   21 2   
    32   19   20 1   
    33   19   39 1   
    34   19   40 1   
    35   20   41 1   
    36   20   42 1   
    37   20   43 1   
    38   21   22 1   
    39   22   23 1   
    40   23   24 ar  
    41   23   29 ar  
    42   24   25 ar  
    43   24   44 1   
    44   25   26 ar  
    45   25   46 1   
    46   26   27 ar  
    47   26   47 1   
    48   27   28 1   
    49   27   29 ar  
    50   28   48 1   
    51   28   49 1   
    52   28   50 1   
    53   29   45 1   
@<TRIPOS>SUBSTRUCTURE
     1 T75         1 TEMP              0 ****  ****    0 ROOT
