@<TRIPOS>MOLECULE
T76
   68    71     1     0     0
SMALL
bcc


@<TRIPOS>ATOM
      1 C1         -3.4740   -0.4940    0.1630 ca        1 T76     -0.128300
      2 C2         -3.2740    0.6430   -0.6490 ca        1 T76      0.132100
      3 C3         -4.1350    0.9270   -1.7150 ca        1 T76     -0.191000
      4 C4         -5.2060    0.0740   -1.9760 ca        1 T76     -0.086000
      5 C5         -5.4080   -1.0540   -1.1790 ca        1 T76     -0.013600
      6 C6         -4.5440   -1.3410   -0.1170 ca        1 T76     -0.077000
      7 C7         -2.5540   -0.7730    1.3180 c3        1 T76      0.139300
      8 N8         -1.2320   -1.1850    0.9280 n         1 T76     -0.549900
      9 C9         -0.7790   -2.4670    1.1470 c         1 T76      0.650100
     10 C10         0.6080   -2.8450    0.5730 c3        1 T76      0.033700
     11 O11        -1.4530   -3.3010    1.7850 o         1 T76     -0.620100
     12 O12        -2.1690    1.4100   -0.3200 os        1 T76     -0.340900
     13 C18         1.0870   -4.1940    1.1530 c3        1 T76     -0.088400
     14 C19         2.2720   -3.8770    2.0580 c3        1 T76     -0.091400
     15 C20         2.6120   -2.3950    1.8240 c3        1 T76      0.086000
     16 N21         1.6500   -1.8690    0.8710 n         1 T76     -0.455800
     17 C29         1.8770   -0.7750    0.0660 c         1 T76      0.636100
     18 C30         3.1010    0.1370    0.3520 c3        1 T76      0.044700
     19 N31         2.7550    1.5240    0.1910 n         1 T76     -0.546900
     20 C32         2.4690    2.3390    1.2750 c         1 T76      0.655100
     21 O33         2.6670    1.9520    2.4440 o         1 T76     -0.613100
     22 C34         1.9620    3.7380    0.9890 c3        1 T76     -0.180400
     23 C35         0.5550    3.9290    1.5620 c3        1 T76      0.100000
     24 N38        -0.4810    3.1680    0.9230 n         1 T76     -0.554900
     25 C41        -1.0030    3.5340   -0.2950 c         1 T76      0.654100
     26 O42        -0.6420    4.5760   -0.8810 o         1 T76     -0.613100
     27 C43        -2.1040    2.6960   -0.9410 c3        1 T76      0.056400
     28 O44         1.0800   -0.5000   -0.8590 o         1 T76     -0.636100
     29 C45         4.2470   -0.3350   -0.5710 c3        1 T76     -0.064700
     30 C47         4.0200    0.0020   -2.0360 c3        1 T76     -0.078400
     31 C48         5.1390   -0.5700   -2.8840 c3        1 T76     -0.076400
     32 C49         6.4870   -0.0500   -2.4260 c3        1 T76     -0.079400
     33 C50         6.7130   -0.3150   -0.9520 c3        1 T76     -0.076400
     34 C51         5.5800    0.2310   -0.1050 c3        1 T76     -0.078400
     35 CL68       -6.7150   -2.0910   -1.5010 cl        1 T76     -0.088400
     36 H3         -3.9780    1.8080   -2.3540 ha        1 T76      0.146000
     37 H4         -5.8860    0.2940   -2.8140 ha        1 T76      0.151000
     38 H6         -4.7040   -2.2390    0.5040 ha        1 T76      0.162000
     39 H71        -3.0090   -1.5610    1.9850 h1        1 T76      0.071200
     40 H72        -2.4490    0.1830    1.9130 h1        1 T76      0.071200
     41 H8         -0.7680   -0.6100    0.2580 hn        1 T76      0.338500
     42 H10         0.4700   -2.9180   -0.5470 h1        1 T76      0.088700
     43 H181        1.3960   -4.8670    0.3150 hc        1 T76      0.075700
     44 H182        0.2660   -4.7000    1.7210 hc        1 T76      0.075700
     45 H191        3.1510   -4.5220    1.8130 hc        1 T76      0.058200
     46 H192        2.0090   -4.0440    3.1310 hc        1 T76      0.058200
     47 H201        3.6590   -2.2890    1.4280 h1        1 T76      0.053700
     48 H202        2.5370   -1.8120    2.7840 h1        1 T76      0.053700
     49 H30         3.4340   -0.0040    1.4270 h1        1 T76      0.104700
     50 H31         2.4150    1.7840   -0.7080 hn        1 T76      0.323500
     51 H341        1.9660    3.9860   -0.1040 hc        1 T76      0.083200
     52 H342        2.6510    4.4540    1.5100 hc        1 T76      0.083200
     53 H351        0.3000    5.0240    1.4660 h1        1 T76      0.074700
     54 H352        0.5690    3.6470    2.6550 h1        1 T76      0.074700
     55 H38        -0.6900    2.2640    1.2800 hn        1 T76      0.331500
     56 H431       -1.8590    2.5710   -2.0300 h1        1 T76      0.078200
     57 H432       -3.0760    3.2430   -0.8200 h1        1 T76      0.078200
     58 H45         4.2900   -1.4590   -0.4740 hc        1 T76      0.053700
     59 H471        3.0300   -0.4090   -2.3680 hc        1 T76      0.050700
     60 H472        3.9940    1.1140   -2.1800 hc        1 T76      0.050700
     61 H481        5.1270   -1.6900   -2.8200 hc        1 T76      0.041450
     62 H482        4.9730   -0.2920   -3.9570 hc        1 T76      0.041450
     63 H491        7.3010   -0.5390   -3.0230 hc        1 T76      0.041700
     64 H492        6.5450    1.0540   -2.6190 hc        1 T76      0.041700
     65 H501        6.8080   -1.4200   -0.7820 hc        1 T76      0.041450
     66 H502        7.6770    0.1580   -0.6290 hc        1 T76      0.041450
     67 H511        5.5610    1.3490   -0.1760 hc        1 T76      0.050700
     68 H512        5.7510   -0.0370    0.9700 hc        1 T76      0.050700
@<TRIPOS>BOND
     1    1    2 ar  
     2    1    6 ar  
     3    1    7 1   
     4    2    3 ar  
     5    2   12 1   
     6    3    4 ar  
     7    3   36 1   
     8    4    5 ar  
     9    4   37 1   
    10    5    6 ar  
    11    5   35 1   
    12    6   38 1   
    13    7    8 1   
    14    7   39 1   
    15    7   40 1   
    16    8    9 1   
    17    8   41 1   
    18    9   10 1   
    19    9   11 2   
    20   10   13 1   
    21   10   16 1   
    22   10   42 1   
    23   12   27 1   
    24   13   14 1   
    25   13   43 1   
    26   13   44 1   
    27   14   15 1   
    28   14   45 1   
    29   14   46 1   
    30   15   16 1   
    31   15   47 1   
    32   15   48 1   
    33   16   17 1   
    34   17   18 1   
    35   17   28 2   
    36   18   19 1   
    37   18   29 1   
    38   18   49 1   
    39   19   20 1   
    40   19   50 1   
    41   20   21 2   
    42   20   22 1   
    43   22   23 1   
    44   22   51 1   
    45   22   52 1   
    46   23   24 1   
    47   23   53 1   
    48   23   54 1   
    49   24   25 1   
    50   24   55 1   
    51   25   26 2   
    52   25   27 1   
    53   27   56 1   
    54   27   57 1   
    55   29   30 1   
    56   29   34 1   
    57   29   58 1   
    58   30   31 1   
    59   30   59 1   
    60   30   60 1   
    61   31   32 1   
    62   31   61 1   
    63   31   62 1   
    64   32   33 1   
    65   32   63 1   
    66   32   64 1   
    67   33   34 1   
    68   33   65 1   
    69   33   66 1   
    70   34   67 1   
    71   34   68 1   
@<TRIPOS>SUBSTRUCTURE
     1 T76         1 TEMP              0 ****  ****    0 ROOT
