@<TRIPOS>MOLECULE
T76
   71    74     1     0     0
SMALL
bcc


@<TRIPOS>ATOM
      1 C1          0.1520    0.7140    0.1930 ca        1 T76     -0.160300
      2 C2          1.5500    0.6620    0.0430 ca        1 T76      0.069100
      3 C3          2.4060    0.9270    1.1140 ca        1 T76     -0.149000
      4 C4          1.8660    1.2580    2.3560 ca        1 T76     -0.050000
      5 C5          0.4740    1.3230    2.5240 ca        1 T76      0.030400
      6 C6         -0.3770    1.0520    1.4420 ca        1 T76     -0.077000
      7 C7         -0.7540    0.3520   -0.9310 c3        1 T76      0.175100
      8 N8         -1.0370    1.5300   -1.8200 ny        1 T76     -0.678800
      9 C9         -1.7090    1.1550   -3.1170 c         1 T76      0.515100
     10 C10        -2.1760    2.3370   -3.9880 c3        1 T76      0.050700
     11 O11        -1.8120   -0.0290   -3.3820 o         1 T76     -0.371100
     12 O12         2.0370    0.3940   -1.2440 os        1 T76     -0.396900
     13 C18        -3.5750    2.0150   -4.5720 c3        1 T76     -0.086400
     14 C19        -3.3900    1.8700   -6.0790 c3        1 T76     -0.093400
     15 C20        -1.9320    2.2370   -6.3890 c3        1 T76      0.074000
     16 N21        -1.2760    2.5420   -5.1160 n         1 T76     -0.428800
     17 C29        -0.0220    3.0510   -4.9510 c         1 T76      0.679100
     18 C30         0.7900    3.4920   -6.1880 c3        1 T76      0.073500
     19 N31         2.2630    3.5770   -5.8620 ny        1 T76     -0.662800
     20 C32         2.8700    2.3350   -5.2800 c         1 T76      0.540100
     21 O33         2.1550    1.3520   -5.1360 o         1 T76     -0.421100
     22 C34         4.3280    2.4110   -4.9070 c3        1 T76     -0.192400
     23 C35         4.7510    1.1920   -4.0920 c3        1 T76      0.106800
     24 N38         4.2020    1.1770   -2.7070 ny        1 T76     -0.689800
     25 C41         4.2350   -0.2160   -2.0680 c         1 T76      0.522100
     26 O42         5.2540   -0.8550   -2.2350 o         1 T76     -0.341100
     27 C43         2.9890   -0.6600   -1.3250 c3        1 T76      0.070400
     28 O44         0.4960    3.1300   -3.8040 o         1 T76     -0.707100
     29 C45         0.2870    4.8550   -6.7130 c3        1 T76     -0.100700
     30 C47         0.5410    6.0120   -5.7560 c3        1 T76     -0.088400
     31 C48        -0.1190    7.2700   -6.2970 c3        1 T76     -0.080400
     32 C49         0.3870    7.5980   -7.6860 c3        1 T76     -0.092400
     33 C50         0.2250    6.4310   -8.6370 c3        1 T76     -0.080400
     34 C51         0.8650    5.1670   -8.0880 c3        1 T76     -0.088400
     35 Cl68       -0.1780    1.7140    4.0220 cl        1 T76      0.037600
     36 H3          3.4990    0.8650    0.9980 ha        1 T76      0.152000
     37 H4          2.5370    1.4610    3.2120 ha        1 T76      0.200000
     38 H6         -1.4720    1.0820    1.5900 ha        1 T76      0.178000
     39 H71        -1.7440   -0.0360   -0.5470 hx        1 T76      0.126700
     40 H72        -0.2830   -0.4530   -1.5700 hx        1 T76      0.126700
     41 H8         -1.6320    2.1970   -1.3140 hn        1 T76      0.470300
     42 H10        -2.2120    3.2780   -3.3640 h1        1 T76      0.105700
     43 H181       -3.9970    1.0770   -4.1300 hc        1 T76      0.105200
     44 H182       -4.2740    2.8580   -4.3320 hc        1 T76      0.105200
     45 H191       -4.0900    2.5470   -6.6330 hc        1 T76      0.106200
     46 H192       -3.6030    0.8200   -6.4100 hc        1 T76      0.106200
     47 H201       -1.8890    3.1270   -7.0740 h1        1 T76      0.079700
     48 H202       -1.3960    1.3750   -6.8780 h1        1 T76      0.079700
     49 H30         0.6810    2.7090   -7.0030 hx        1 T76      0.140700
     50 H31         2.3820    4.3430   -5.1760 hn        1 T76      0.490300
     51 H341        4.9480    2.4030   -5.8570 hc        1 T76      0.146700
     52 H342        4.5640    3.3720   -4.3700 hc        1 T76      0.146700
     53 H351        5.8830    1.1620   -4.0260 hx        1 T76      0.152700
     54 H352        4.4140    0.2440   -4.6140 hx        1 T76      0.152700
     55 H38         4.7500    1.8120   -2.1120 hn        1 T76      0.465300
     56 H431        2.5200   -1.4910   -1.9310 h1        1 T76      0.149700
     57 H432        3.3040   -1.0540   -0.3150 h1        1 T76      0.149700
     58 H45        -0.8330    4.7520   -6.8300 hc        1 T76      0.111700
     59 H471        1.6410    6.2160   -5.6560 hc        1 T76      0.041450
     60 H472        0.1360    5.7680   -4.7410 hc        1 T76      0.041450
     61 H481       -1.2320    7.1320   -6.3190 hc        1 T76      0.075700
     62 H482        0.0990    8.1260   -5.6040 hc        1 T76      0.075700
     63 H491        1.4680    7.8960   -7.6340 hc        1 T76      0.075700
     64 H492       -0.1790    8.4820   -8.0870 hc        1 T76      0.075700
     65 H501       -0.8650    6.2450   -8.8290 hc        1 T76      0.075700
     66 H502        0.6990    6.6800   -9.6240 hc        1 T76      0.075700
     67 H511        0.6750    4.3160   -8.7910 hc        1 T76      0.041450
     68 H512        1.9740    5.3260   -8.0220 hc        1 T76      0.041450
     69 H82        -0.1540    2.0100   -2.0540 hn        1 T76      0.470300
     70 H312        2.7560    3.8370   -6.7320 hn        1 T76      0.490300
     71 H382        3.2250    1.4980   -2.7110 hn        1 T76      0.465300
@<TRIPOS>BOND
     1    1    2 ar  
     2    1    6 ar  
     3    1    7 1   
     4    2    3 ar  
     5    2   12 1   
     6    3    4 ar  
     7    3   36 1   
     8    4    5 ar  
     9    4   37 1   
    10    5    6 ar  
    11    5   35 1   
    12    6   38 1   
    13    7    8 1   
    14    7   39 1   
    15    7   40 1   
    16    8    9 1   
    17    8   41 1   
    18    8   69 1   
    19    9   10 1   
    20    9   11 2   
    21   10   13 1   
    22   10   16 1   
    23   10   42 1   
    24   12   27 1   
    25   13   14 1   
    26   13   43 1   
    27   13   44 1   
    28   14   15 1   
    29   14   45 1   
    30   14   46 1   
    31   15   16 1   
    32   15   47 1   
    33   15   48 1   
    34   16   17 1   
    35   17   18 1   
    36   17   28 2   
    37   18   19 1   
    38   18   29 1   
    39   18   49 1   
    40   19   20 1   
    41   19   50 1   
    42   19   70 1   
    43   20   21 2   
    44   20   22 1   
    45   22   23 1   
    46   22   51 1   
    47   22   52 1   
    48   23   24 1   
    49   23   53 1   
    50   23   54 1   
    51   24   25 1   
    52   24   55 1   
    53   24   71 1   
    54   25   26 2   
    55   25   27 1   
    56   27   56 1   
    57   27   57 1   
    58   29   30 1   
    59   29   34 1   
    60   29   58 1   
    61   30   31 1   
    62   30   59 1   
    63   30   60 1   
    64   31   32 1   
    65   31   61 1   
    66   31   62 1   
    67   32   33 1   
    68   32   63 1   
    69   32   64 1   
    70   33   34 1   
    71   33   65 1   
    72   33   66 1   
    73   34   67 1   
    74   34   68 1   
@<TRIPOS>SUBSTRUCTURE
     1 T76         1 TEMP              0 ****  ****    0 ROOT
