@<TRIPOS>MOLECULE
T76
   71    74     1     0     0
SMALL
bcc


@<TRIPOS>ATOM
      1 C1          0.1710    0.7160    0.1960 ca        1 T76     -0.160300
      2 C2          1.5690    0.6640    0.0420 ca        1 T76      0.069100
      3 C3          2.4280    0.9320    1.1110 ca        1 T76     -0.150000
      4 C4          1.8910    1.2640    2.3540 ca        1 T76     -0.050000
      5 C5          0.5000    1.3290    2.5250 ca        1 T76      0.030400
      6 C6         -0.3540    1.0560    1.4460 ca        1 T76     -0.077000
      7 C7         -0.7380    0.3510   -0.9250 c3        1 T76      0.175100
      8 N8         -1.0310    1.5290   -1.8100 n4        1 T76     -0.678800
      9 C9         -1.7100    1.1530   -3.1030 c         1 T76      0.515100
     10 C10        -2.1790    2.3340   -3.9740 c3        1 T76      0.050700
     11 O11        -1.8160   -0.0320   -3.3650 o         1 T76     -0.371100
     12 O12         2.0520    0.3940   -1.2450 os        1 T76     -0.396900
     13 C18        -3.5790    2.0130   -4.5540 c3        1 T76     -0.086400
     14 C19        -3.3980    1.8650   -6.0610 c3        1 T76     -0.093400
     15 C20        -1.9410    2.2290   -6.3760 c3        1 T76      0.074000
     16 N21        -1.2810    2.5370   -5.1050 n         1 T76     -0.428800
     17 C29        -0.0280    3.0480   -4.9440 c         1 T76      0.679100
     18 C30         0.7800    3.4870   -6.1850 c3        1 T76      0.073500
     19 N31         2.2550    3.5740   -5.8620 n4        1 T76     -0.663800
     20 C32         2.8640    2.3330   -5.2820 c         1 T76      0.540100
     21 O33         2.1500    1.3510   -5.1320 o         1 T76     -0.421100
     22 C34         4.3250    2.4090   -4.9170 c3        1 T76     -0.192400
     23 C35         4.7520    1.1900   -4.1040 c3        1 T76      0.106800
     24 N38         4.2130    1.1780   -2.7150 n4        1 T76     -0.689800
     25 C41         4.2490   -0.2140   -2.0750 c         1 T76      0.522100
     26 O42         5.2670   -0.8530   -2.2440 o         1 T76     -0.341100
     27 C43         3.0060   -0.6590   -1.3270 c3        1 T76      0.070400
     28 O44         0.4930    3.1320   -3.7990 o         1 T76     -0.707100
     29 C45         0.2750    4.8490   -6.7110 c3        1 T76     -0.100700
     30 C47         0.5320    6.0080   -5.7590 c3        1 T76     -0.088400
     31 C48        -0.1310    7.2650   -6.3010 c3        1 T76     -0.080400
     32 C49         0.3720    7.5890   -7.6920 c3        1 T76     -0.092400
     33 C50         0.2060    6.4200   -8.6390 c3        1 T76     -0.080400
     34 C51         0.8490    5.1570   -8.0890 c3        1 T76     -0.088400
     35 CL68       -0.1480    1.7220    4.0240 cl        1 T76      0.037600
     36 H3          3.5200    0.8700    0.9910 ha        1 T76      0.152000
     37 H4          2.5650    1.4690    3.2080 ha        1 T76      0.200000
     38 H6         -1.4480    1.0850    1.5980 ha        1 T76      0.178000
     39 H71        -0.2660   -0.4500   -1.5670 hx        1 T76      0.126700
     40 H72        -1.7240   -0.0430   -0.5370 hx        1 T76      0.126700
     41 H8         -0.1510    2.0130   -2.0490 hn        1 T76      0.470300
     42 H10        -2.2120    3.2760   -3.3510 h1        1 T76      0.105700
     43 H181       -4.0000    1.0760   -4.1090 hc        1 T76      0.105200
     44 H182       -4.2770    2.8560   -4.3140 hc        1 T76      0.105200
     45 H191       -3.6130    0.8150   -6.3890 hc        1 T76      0.106200
     46 H192       -4.0990    2.5420   -6.6150 hc        1 T76      0.106200
     47 H201       -1.4070    1.3660   -6.8630 h1        1 T76      0.079700
     48 H202       -1.8980    3.1180   -7.0630 h1        1 T76      0.079700
     49 H30         0.6700    2.7030   -6.9970 hx        1 T76      0.140700
     50 H31         2.7450    3.8340   -6.7330 hn        1 T76      0.490300
     51 H341        4.9390    2.4000   -5.8700 hc        1 T76      0.147200
     52 H342        4.5640    3.3700   -4.3830 hc        1 T76      0.147200
     53 H351        5.8850    1.1600   -4.0460 hx        1 T76      0.152700
     54 H352        4.4110    0.2430   -4.6220 hx        1 T76      0.152700
     55 H38         4.7670    1.8130   -2.1240 hn        1 T76      0.465300
     56 H431        3.3230   -1.0500   -0.3180 h1        1 T76      0.149700
     57 H432        2.5350   -1.4910   -1.9310 h1        1 T76      0.149700
     58 H45        -0.8450    4.7450   -6.8250 hc        1 T76      0.111700
     59 H471        1.6320    6.2130   -5.6620 hc        1 T76      0.041450
     60 H472        0.1300    5.7670   -4.7410 hc        1 T76      0.041450
     61 H481       -1.2430    7.1260   -6.3190 hc        1 T76      0.075700
     62 H482        0.0890    8.1220   -5.6100 hc        1 T76      0.075700
     63 H491       -0.1970    8.4720   -8.0930 hc        1 T76      0.075700
     64 H492        1.4520    7.8880   -7.6440 hc        1 T76      0.075700
     65 H501        0.6770    6.6670   -9.6290 hc        1 T76      0.075700
     66 H502       -0.8840    6.2330   -8.8270 hc        1 T76      0.075700
     67 H511        0.6570    4.3040   -8.7900 hc        1 T76      0.041450
     68 H512        1.9580    5.3170   -8.0270 hc        1 T76      0.041450
     69 H82        -1.6250    2.1940   -1.2990 hn        1 T76      0.470300
     70 H312        2.3740    4.3400   -5.1770 hn        1 T76      0.490300
     71 H382        3.2380    1.5010   -2.7120 hn        1 T76      0.465300
@<TRIPOS>BOND
     1    1    2 ar  
     2    1    6 ar  
     3    1    7 1   
     4    2    3 ar  
     5    2   12 1   
     6    3    4 ar  
     7    3   36 1   
     8    4    5 ar  
     9    4   37 1   
    10    5    6 ar  
    11    5   35 1   
    12    6   38 1   
    13    7    8 1   
    14    7   39 1   
    15    7   40 1   
    16    8    9 1   
    17    8   41 1   
    18    8   69 1   
    19    9   10 1   
    20    9   11 2   
    21   10   13 1   
    22   10   16 1   
    23   10   42 1   
    24   12   27 1   
    25   13   14 1   
    26   13   43 1   
    27   13   44 1   
    28   14   15 1   
    29   14   45 1   
    30   14   46 1   
    31   15   16 1   
    32   15   47 1   
    33   15   48 1   
    34   16   17 1   
    35   17   18 1   
    36   17   28 2   
    37   18   19 1   
    38   18   29 1   
    39   18   49 1   
    40   19   20 1   
    41   19   50 1   
    42   19   70 1   
    43   20   21 2   
    44   20   22 1   
    45   22   23 1   
    46   22   51 1   
    47   22   52 1   
    48   23   24 1   
    49   23   53 1   
    50   23   54 1   
    51   24   25 1   
    52   24   55 1   
    53   24   71 1   
    54   25   26 2   
    55   25   27 1   
    56   27   56 1   
    57   27   57 1   
    58   29   30 1   
    59   29   34 1   
    60   29   58 1   
    61   30   31 1   
    62   30   59 1   
    63   30   60 1   
    64   31   32 1   
    65   31   61 1   
    66   31   62 1   
    67   32   33 1   
    68   32   63 1   
    69   32   64 1   
    70   33   34 1   
    71   33   65 1   
    72   33   66 1   
    73   34   67 1   
    74   34   68 1   
@<TRIPOS>SUBSTRUCTURE
     1 T76         1 TEMP              0 ****  ****    0 ROOT
