@<TRIPOS>MOLECULE
T77
   63    57     1     0     0
SMALL
bcc


@<TRIPOS>ATOM
      1 C34        -2.7770   -4.9330    7.4640 c3        1 T77     -0.117500
      2 N32        -2.8420   -3.5010    7.4930 n3        1 T77     -0.270000
      3 C33        -2.7850   -3.0360    8.8910 c3        1 T77     -0.117500
      4 C31        -1.7170   -2.9540    6.7550 c3        1 T77     -0.072000
      5 C30        -2.2070   -2.3940    5.4120 c3        1 T77     -0.024000
      6 O27        -1.2420   -1.4810    4.8960 os        1 T77     -0.216000
      7 C24        -1.3930   -1.2060    3.5280 c2        1 T77      0.096000
      8 C21        -1.0200   -2.1670    2.5840 c2        1 T77     -0.207000
      9 C15        -0.9680   -1.8330    1.2240 c1        1 T77     -0.086000
     10 C20        -1.7170    0.1010    3.1100 c1        1 T77     -0.159000
     11 C14        -1.6650    0.4330    1.7540 c1        1 T77     -0.069000
     12 C7         -1.2900   -0.5360    0.8070 c1        1 T77     -0.071000
     13 C3         -1.0860   -0.1270   -0.6910 c2        1 T77      0.022000
     14 N8         -2.1140   -0.4470   -1.5440 n2        1 T77     -0.187000
     15 C5         -1.7540   -0.0300   -2.8310 c1        1 T77      0.079000
     16 N11        -2.4280   -0.0230   -4.0060 n1        1 T77     -0.208000
     17 C18        -1.8640    0.5540   -5.1160 c1        1 T77      0.014000
     18 N13        -0.6220    1.1240   -5.0380 n1        1 T77     -0.264000
     19 C2         -0.5220    0.5360   -2.7570 c1        1 T77     -0.213000
     20 C1         -0.0990    0.4790   -1.4260 c1        1 T77     -0.066000
     21 C4          1.2660    0.8430   -0.7920 c1        1 T77     -0.027000
     22 C9          2.1930   -0.1550   -0.5230 c2        1 T77     -0.110000
     23 C16         3.3720    0.1530    0.1320 c1        1 T77     -0.132000
     24 C22         3.6290    1.4630    0.5200 c1        1 T77     -0.132000
     25 C17         2.7100    2.4550    0.2530 c1        1 T77     -0.132000
     26 C10         1.5220    2.1440   -0.4070 c1        1 T77     -0.124000
     27 C6          0.0440    1.1180   -3.8820 c1        1 T77      0.198000
     28 N12         1.3560    1.5810   -4.2620 n3        1 T77     -0.279000
     29 C19         1.5030    2.8460   -4.9540 c3        1 T77     -0.016000
     30 C23         2.3420    2.6170   -6.3330 c3        1 T77     -0.378000
     31 S25         3.6580    3.8960   -6.4930 ss        1 T77      0.091500
     32 C28         3.9770    4.0170   -8.0820 c3        1 T77     -0.274500
     33 C29         2.5550    3.5640   -8.8600 c3        1 T77     -0.274500
     34 S26         1.4430    2.7990   -7.5140 ss        1 T77      0.091500
     35 H1         -1.8640   -5.2310    7.7550 h1        1 T77      0.072500
     36 H2         -3.4430   -5.3000    8.0640 h1        1 T77      0.072500
     37 H3         -2.9540   -5.2590    6.5270 h1        1 T77      0.072500
     38 H5         -3.5380   -3.4330    9.4030 h1        1 T77      0.072500
     39 H6         -2.8540   -2.0620    8.9140 h1        1 T77      0.072500
     40 H7         -1.9410   -3.3100    9.2890 h1        1 T77      0.072500
     41 H8         -1.2990   -2.2280    7.2810 h1        1 T77      0.088000
     42 H9         -1.0450   -3.6770    6.5910 h1        1 T77      0.088000
     43 H10        -2.3360   -3.1490    4.7600 h1        1 T77      0.087000
     44 H11        -3.0590   -1.9270    5.5450 h1        1 T77      0.087000
     45 H12        -0.7920   -3.0830    2.8760 ha        1 T77      0.143000
     46 H13        -0.7100   -2.4980    0.5730 ha        1 T77      0.134000
     47 H14        -1.9870    0.7970    3.7910 ha        1 T77      0.153000
     48 H15        -1.8940    1.3550    1.4590 ha        1 T77      0.151000
     49 H16        -2.8930   -0.9190   -1.3140 DU        1 T77      0.264000
     50 H17        -2.3420    0.5590   -5.9480 ha        1 T77      0.187000
     51 H18         2.0150   -1.0640   -0.7920 ha        1 T77      0.142000
     52 H19         4.0180   -0.5430    0.3200 ha        1 T77      0.133000
     53 H20         4.4640    1.6820    0.9830 ha        1 T77      0.132500
     54 H21         2.8930    3.3920    0.5300 ha        1 T77      0.132500
     55 H22         0.8830    2.8330   -0.5920 ha        1 T77      0.145000
     56 H23         2.0880    1.1370   -3.9780 hn        1 T77      0.234000
     57 H24         1.9870    3.4840   -4.3740 h1        1 T77      0.118500
     58 H25         0.6390    3.1980   -5.1620 h1        1 T77      0.118500
     59 H26         2.7340    1.7310   -6.3440 h2        1 T77      0.170000
     60 H27         4.2080    4.9360   -8.3100 h1        1 T77      0.123500
     61 H28         4.7080    3.4110   -8.3280 h1        1 T77      0.123500
     62 H29         2.7490    2.8910   -9.5680 h1        1 T77      0.123500
     63 H30         2.1050    4.3790   -9.2650 h1        1 T77      0.123500
@<TRIPOS>BOND
     1    1    2 1   
     2    1   35 1   
     3    1   36 1   
     4    1   37 1   
     5    2    3 1   
     6    2    4 1   
     7    3   38 1   
     8    3   39 1   
     9    3   40 1   
    10    4    5 1   
    11    4   41 1   
    12    4   42 1   
    13    5    6 1   
    14    5   43 1   
    15    5   44 1   
    16    6    7 1   
    17    7    8 1   
    18    7   10 1   
    19    8    9 1   
    20    8   45 1   
    21    9   46 1   
    22   10   47 1   
    23   11   12 1   
    24   11   48 1   
    25   12   13 1   
    26   13   14 1   
    27   13   20 1   
    28   14   15 1   
    29   15   19 1   
    30   16   17 1   
    31   17   50 1   
    32   18   27 1   
    33   21   22 1   
    34   21   26 1   
    35   22   23 1   
    36   22   51 1   
    37   23   52 1   
    38   24   25 1   
    39   24   53 1   
    40   25   54 1   
    41   26   55 1   
    42   27   28 1   
    43   28   29 1   
    44   28   56 1   
    45   29   30 1   
    46   29   57 1   
    47   29   58 1   
    48   30   31 1   
    49   30   34 1   
    50   30   59 1   
    51   31   32 1   
    52   32   33 1   
    53   32   60 1   
    54   32   61 1   
    55   33   34 1   
    56   33   62 1   
    57   33   63 1   
@<TRIPOS>SUBSTRUCTURE
     1 T77         1 TEMP              0 ****  ****    0 ROOT
