@<TRIPOS>MOLECULE
T77
   63    67     1     0     0
SMALL
bcc


@<TRIPOS>ATOM
      1 C34        -9.6470    0.5440    0.2560 c3        1 T77      0.162600
      2 N32        -8.7410   -0.5600    0.4680 n3        1 T77     -0.746600
      3 C33        -9.3450   -1.6720    1.1610 c3        1 T77      0.162600
      4 C31        -8.0130   -0.9450   -0.7290 c3        1 T77      0.171800
      5 C30        -6.7560   -0.0940   -0.9690 c3        1 T77      0.126400
      6 O27        -5.7000   -0.7640   -0.2700 os        1 T77     -0.321900
      7 C24        -4.4790   -0.1240   -0.2620 ca        1 T77      0.141100
      8 C21        -4.1820    1.0380   -0.9850 ca        1 T77     -0.184500
      9 C15        -2.9020    1.5830   -0.9070 ca        1 T77     -0.077500
     10 C20        -3.4940   -0.7420    0.5350 ca        1 T77     -0.184500
     11 C14        -2.2250   -0.1870    0.6000 ca        1 T77     -0.077500
     12 C7         -1.9150    0.9810   -0.1180 ca        1 T77     -0.084800
     13 C3         -0.5810    1.5520   -0.0290 cc        1 T77      0.003700
     14 N8         -0.3940    2.9440    0.0750 na        1 T77     -0.273100
     15 C5          0.9710    3.2030    0.1790 ca        1 T77      0.472800
     16 N11         1.5970    4.4190    0.3020 nb        1 T77     -0.741000
     17 C18         2.9400    4.3120    0.3550 ca        1 T77      0.680900
     18 N13         3.7300    3.2040    0.2980 nb        1 T77     -0.798000
     19 C2          1.6740    1.9310    0.1180 ca        1 T77     -0.358400
     20 C1          0.6680    0.9070   -0.0120 cd        1 T77     -0.044400
     21 C4          0.8950   -0.5200   -0.1110 ca        1 T77     -0.031800
     22 C9          0.5780   -1.2110   -1.2910 ca        1 T77     -0.114000
     23 C16         0.7690   -2.5890   -1.3710 ca        1 T77     -0.137000
     24 C22         1.2770   -3.2910   -0.2780 ca        1 T77     -0.137000
     25 C17         1.6010   -2.6100    0.8950 ca        1 T77     -0.137000
     26 C10         1.4170   -1.2310    0.9800 ca        1 T77     -0.114000
     27 C6          3.1050    1.9860    0.1860 ca        1 T77      0.735200
     28 N12         3.8410    0.8120    0.1970 nh        1 T77     -0.844900
     29 C19         5.2750    0.8570    0.0560 c3        1 T77      0.233800
     30 C23         5.9450   -0.5040   -0.0720 c3        1 T77      0.053500
     31 S25         5.2460   -1.5140   -1.3570 ss        1 T77     -0.270200
     32 C28         4.9420   -2.9940   -0.4260 c3        1 T77     -0.018800
     33 C29         5.7490   -3.0100    0.8400 c3        1 T77     -0.018800
     34 S26         5.9400   -1.3700    1.4740 ss        1 T77     -0.270200
     35 H1        -10.0470    0.8800    1.2490 h1        1 T77      0.031700
     36 H2         -9.0860    1.3940   -0.2130 h1        1 T77      0.031700
     37 H3        -10.5170    0.2830   -0.4090 h1        1 T77      0.031700
     38 H5        -10.1380   -2.1940    0.5570 h1        1 T77      0.031700
     39 H6         -8.5480   -2.4160    1.4240 h1        1 T77      0.031700
     40 H7         -9.8120   -1.2960    2.1090 h1        1 T77      0.031700
     41 H8         -7.6850   -2.0200   -0.6400 h1        1 T77      0.048200
     42 H9         -8.6550   -0.8550   -1.6540 h1        1 T77      0.048200
     43 H10        -6.5150   -0.0810   -2.0650 h1        1 T77      0.044700
     44 H11        -6.8640    0.9540   -0.5880 h1        1 T77      0.044700
     45 H12        -4.9400    1.5240   -1.6140 ha        1 T77      0.145500
     46 H13        -2.6720    2.4890   -1.4870 ha        1 T77      0.141500
     47 H14        -3.7470   -1.6530    1.0950 ha        1 T77      0.145500
     48 H15        -1.4460   -0.6640    1.2160 ha        1 T77      0.141500
     49 H16        -1.1160    3.6140    0.1370 hn        1 T77      0.312700
     50 H17         3.4940    5.2700    0.4540 h5        1 T77      0.048100
     51 H18         0.1730   -0.6590   -2.1520 ha        1 T77      0.145500
     52 H19         0.5160   -3.1220   -2.2990 ha        1 T77      0.133000
     53 H20         1.4170   -4.3800   -0.3400 ha        1 T77      0.130000
     54 H21         2.0000   -3.1610    1.7600 ha        1 T77      0.133000
     55 H22         1.6780   -0.6940    1.9050 ha        1 T77      0.145500
     56 H23         3.3750   -0.0070   -0.1400 hn        1 T77      0.450800
     57 H24         5.5630    1.4680   -0.8520 h1        1 T77      0.069700
     58 H25         5.7010    1.3790    0.9640 h1        1 T77      0.069700
     59 H26         7.0100   -0.3080   -0.3640 h2        1 T77      0.106700
     60 H27         3.8450   -3.0610   -0.2000 h1        1 T77      0.086950
     61 H28         5.2110   -3.8540   -1.0880 h1        1 T77      0.086950
     62 H29         5.2370   -3.6040    1.6380 h1        1 T77      0.086950
     63 H30         6.7530   -3.4700    0.6610 h1        1 T77      0.086950
@<TRIPOS>BOND
     1    1    2 1   
     2    1   35 1   
     3    1   36 1   
     4    1   37 1   
     5    2    3 1   
     6    2    4 1   
     7    3   38 1   
     8    3   39 1   
     9    3   40 1   
    10    4    5 1   
    11    4   41 1   
    12    4   42 1   
    13    5    6 1   
    14    5   43 1   
    15    5   44 1   
    16    6    7 1   
    17    7    8 ar  
    18    7   10 ar  
    19    8    9 ar  
    20    8   45 1   
    21    9   12 ar  
    22    9   46 1   
    23   10   11 ar  
    24   10   47 1   
    25   11   12 ar  
    26   11   48 1   
    27   12   13 1   
    28   13   14 1   
    29   13   20 2   
    30   14   15 1   
    31   14   49 1   
    32   15   16 ar  
    33   15   19 ar  
    34   16   17 ar  
    35   17   18 ar  
    36   17   50 1   
    37   18   27 ar  
    38   19   20 1   
    39   19   27 ar  
    40   20   21 1   
    41   21   22 ar  
    42   21   26 ar  
    43   22   23 ar  
    44   22   51 1   
    45   23   24 ar  
    46   23   52 1   
    47   24   25 ar  
    48   24   53 1   
    49   25   26 ar  
    50   25   54 1   
    51   26   55 1   
    52   27   28 1   
    53   28   29 1   
    54   28   56 1   
    55   29   30 1   
    56   29   57 1   
    57   29   58 1   
    58   30   31 1   
    59   30   34 1   
    60   30   59 1   
    61   31   32 1   
    62   32   33 1   
    63   32   60 1   
    64   32   61 1   
    65   33   34 1   
    66   33   62 1   
    67   33   63 1   
@<TRIPOS>SUBSTRUCTURE
     1 T77         1 TEMP              0 ****  ****    0 ROOT
