@<TRIPOS>MOLECULE
T77
   65    69     1     0     0
SMALL
bcc


@<TRIPOS>ATOM
      1 C34         0.0590   -0.1170    0.5850 c3        1 T77      0.081600
      2 N32         1.4670   -0.1020    0.1080 n4        1 T77     -0.678400
      3 C33         2.4080   -0.1210    1.2610 c3        1 T77      0.081600
      4 C31         1.7480   -1.2450   -0.8210 c3        1 T77      0.100800
      5 C30         1.1850   -1.0420   -2.2310 c3        1 T77      0.105400
      6 O27         1.7650    0.1690   -2.7200 os        1 T77     -0.367900
      7 C24         1.6550    0.3870   -4.0880 ca        1 T77      0.127100
      8 C21         0.7670   -0.3010   -4.9210 ca        1 T77     -0.163500
      9 C15         0.7040    0.0390   -6.2710 ca        1 T77     -0.062500
     10 C20         2.4890    1.4000   -4.5920 ca        1 T77     -0.163500
     11 C14         2.4130    1.7280   -5.9410 ca        1 T77     -0.062500
     12 C7          1.5180    1.0550   -6.7890 ca        1 T77     -0.087800
     13 C3          1.4320    1.4310   -8.1940 cc        1 T77      0.074700
     14 N8          0.1860    1.5220   -8.8390 na        1 T77     -0.262100
     15 C5          0.3910    1.9230  -10.1570 ca        1 T77      0.476800
     16 N11        -0.5270    2.1490  -11.1400 nb        1 T77     -0.635000
     17 C18         0.0110    2.5280  -12.3190 ca        1 T77      0.675900
     18 N13         1.3320    2.7010  -12.6330 nb        1 T77     -0.691000
     19 C2          1.8410    2.0770  -10.3510 ca        1 T77     -0.293400
     20 C1          2.4650    1.7600   -9.0930 cd        1 T77     -0.071400
     21 C4          3.8900    1.7840   -8.8340 ca        1 T77     -0.083800
     22 C9          4.6050    0.5910   -8.6670 ca        1 T77     -0.129000
     23 C16         5.9750    0.6260   -8.4040 ca        1 T77     -0.127000
     24 C22         6.6390    1.8490   -8.3080 ca        1 T77     -0.114000
     25 C17         5.9330    3.0410   -8.4780 ca        1 T77     -0.127000
     26 C10         4.5640    3.0120   -8.7390 ca        1 T77     -0.129000
     27 C6          2.2320    2.4690  -11.6480 ca        1 T77      0.546200
     28 N12         3.6690    2.6550  -11.9360 n4        1 T77     -0.757700
     29 C19         4.0760    2.1660  -13.2930 c3        1 T77      0.137800
     30 C23         5.5620    2.3660  -13.5220 c3        1 T77      0.004500
     31 S25         6.5050    1.4420  -12.3390 ss        1 T77     -0.263700
     32 C28         7.6250    2.7140  -11.7960 c3        1 T77     -0.016800
     33 C29         7.5580    3.9260  -12.6780 c3        1 T77     -0.016800
     34 S26         5.9470    4.0900  -13.4020 ss        1 T77     -0.263700
     35 H1         -0.6340   -0.0990   -0.2980 hx        1 T77      0.108533
     36 H2         -0.1250   -1.0440    1.1910 hx        1 T77      0.108533
     37 H3         -0.1260    0.7890    1.2240 hx        1 T77      0.108533
     38 H5          3.4610   -0.0070    0.8860 hx        1 T77      0.108533
     39 H6          2.1620    0.7300    1.9520 hx        1 T77      0.108533
     40 H7          2.3070   -1.0930    1.8120 hx        1 T77      0.108533
     41 H8          1.3080   -2.1850   -0.3820 hx        1 T77      0.118200
     42 H9          2.8700   -1.3580   -0.8920 hx        1 T77      0.118200
     43 H10         1.4920   -1.9200   -2.8620 h1        1 T77      0.083700
     44 H11         0.0670   -0.9450   -2.2300 h1        1 T77      0.083700
     45 H12         0.1170   -1.1000   -4.5350 ha        1 T77      0.156500
     46 H13         0.0120   -0.5140   -6.9270 ha        1 T77      0.158000
     47 H14         3.1860    1.9250   -3.9220 ha        1 T77      0.156500
     48 H15         3.0640    2.5190   -6.3510 ha        1 T77      0.158000
     49 H16        -0.6980    1.3710   -8.4150 hn        1 T77      0.337700
     50 H17        -0.7050    2.7290  -13.1520 h5        1 T77      0.100100
     51 H18         4.0850   -0.3770   -8.7380 ha        1 T77      0.146000
     52 H19         6.5310   -0.3160   -8.2710 ha        1 T77      0.154000
     53 H20         7.7190    1.8750   -8.0910 ha        1 T77      0.155000
     54 H21         6.4530    4.0080   -8.3890 ha        1 T77      0.154000
     55 H22         4.0040    3.9550   -8.8400 ha        1 T77      0.146000
     56 H23         3.9020    3.6630  -11.8770 hn        1 T77      0.478800
     57 H24         3.4920    2.7340  -14.0780 hx        1 T77      0.132200
     58 H25         3.8090    1.0730  -13.3680 hx        1 T77      0.132200
     59 H26         5.8000    1.9820  -14.5500 h2        1 T77      0.156700
     60 H27         7.3740    2.9630  -10.7330 h1        1 T77      0.107950
     61 H28         8.6560    2.2720  -11.8090 h1        1 T77      0.107950
     62 H29         8.3270    3.8720  -13.4900 h1        1 T77      0.107950
     63 H30         7.7440    4.8670  -12.0980 h1        1 T77      0.107950
     64 H321        1.6190    0.7700   -0.4240 hn        1 T77      0.467800
     65 H122        4.2230    2.1490  -11.2160 hn        1 T77      0.478800
@<TRIPOS>BOND
     1    1    2 1   
     2    1   35 1   
     3    1   36 1   
     4    1   37 1   
     5    2    3 1   
     6    2    4 1   
     7    2   64 1   
     8    3   38 1   
     9    3   39 1   
    10    3   40 1   
    11    4    5 1   
    12    4   41 1   
    13    4   42 1   
    14    5    6 1   
    15    5   43 1   
    16    5   44 1   
    17    6    7 1   
    18    7    8 ar  
    19    7   10 ar  
    20    8    9 ar  
    21    8   45 1   
    22    9   12 ar  
    23    9   46 1   
    24   10   11 ar  
    25   10   47 1   
    26   11   12 ar  
    27   11   48 1   
    28   12   13 1   
    29   13   14 1   
    30   13   20 2   
    31   14   15 1   
    32   14   49 1   
    33   15   16 ar  
    34   15   19 ar  
    35   16   17 ar  
    36   17   18 ar  
    37   17   50 1   
    38   18   27 ar  
    39   19   20 1   
    40   19   27 ar  
    41   20   21 1   
    42   21   22 ar  
    43   21   26 ar  
    44   22   23 ar  
    45   22   51 1   
    46   23   24 ar  
    47   23   52 1   
    48   24   25 ar  
    49   24   53 1   
    50   25   26 ar  
    51   25   54 1   
    52   26   55 1   
    53   27   28 1   
    54   28   29 1   
    55   28   56 1   
    56   28   65 1   
    57   29   30 1   
    58   29   57 1   
    59   29   58 1   
    60   30   31 1   
    61   30   34 1   
    62   30   59 1   
    63   31   32 1   
    64   32   33 1   
    65   32   60 1   
    66   32   61 1   
    67   33   34 1   
    68   33   62 1   
    69   33   63 1   
@<TRIPOS>SUBSTRUCTURE
     1 T77         1 TEMP              0 ****  ****    0 ROOT
