@<TRIPOS>MOLECULE
T77
   64    68     1     0     0
SMALL
bcc


@<TRIPOS>ATOM
      1 C34         0.3410   -0.0960    0.6280 c3        1 T77      0.082600
      2 N32         1.6890    0.0180    0.0150 nx        1 T77     -0.677400
      3 C33         2.7430    0.0600    1.0610 c3        1 T77      0.082600
      4 C31         1.9490   -1.0980   -0.9550 c3        1 T77      0.098800
      5 C30         1.1880   -0.9370   -2.2770 c3        1 T77      0.108400
      6 O27         1.4650    0.3810   -2.7480 os        1 T77     -0.380900
      7 C24         1.4190    0.5300   -4.1350 ca        1 T77      0.074100
      8 C21         0.4760   -0.1290   -4.9290 ca        1 T77     -0.149500
      9 C15         0.4420    0.1360   -6.2960 ca        1 T77     -0.093000
     10 C20         2.3300    1.4430   -4.6850 ca        1 T77     -0.149500
     11 C14         2.2740    1.7050   -6.0490 ca        1 T77     -0.093000
     12 C7          1.3350    1.0560   -6.8680 ca        1 T77     -0.010800
     13 C3          1.2930    1.3480   -8.2900 cc        1 T77     -0.053300
     14 N8          0.0730    1.3860   -8.9960 na        1 T77     -0.273100
     15 C5          0.3400    1.7240  -10.3210 ca        1 T77      0.491800
     16 N11        -0.5560    1.8850  -11.3490 nb        1 T77     -0.748000
     17 C18         0.0430    2.1900  -12.5190 ca        1 T77      0.699900
     18 N13         1.3620    2.3530  -12.8070 nb        1 T77     -0.796000
     19 C2          1.7780    1.8730  -10.4650 ca        1 T77     -0.379400
     20 C1          2.3550    1.6300   -9.1700 cd        1 T77     -0.002400
     21 C4          3.7670    1.6510   -8.8410 ca        1 T77     -0.049800
     22 C9          4.4660    0.4530   -8.6380 ca        1 T77     -0.115500
     23 C16         5.8210    0.4790   -8.3090 ca        1 T77     -0.135000
     24 C22         6.4890    1.6960   -8.1820 ca        1 T77     -0.132000
     25 C17         5.8000    2.8920   -8.3920 ca        1 T77     -0.135000
     26 C10         4.4460    2.8730   -8.7230 ca        1 T77     -0.115500
     27 C6          2.2610    2.2060  -11.7780 ca        1 T77      0.754200
     28 N12         3.6070    2.4170  -11.9830 nu        1 T77     -0.848900
     29 C19         4.1350    2.6190  -13.3080 c3        1 T77      0.237800
     30 C23         5.6420    2.8190  -13.3620 c3        1 T77      0.050500
     31 S25         6.5470    1.5500  -12.5050 ss        1 T77     -0.269200
     32 C28         7.6480    2.5730  -11.5590 c3        1 T77     -0.018300
     33 C29         7.6760    3.9780  -12.0890 c3        1 T77     -0.018300
     34 S26         6.0950    4.4180  -12.7490 ss        1 T77     -0.269200
     35 H1          0.2750   -1.0450    1.2230 hx        1 T77      0.105367
     36 H2          0.1670    0.7840    1.3050 hx        1 T77      0.105367
     37 H3         -0.4350   -0.1020   -0.1840 hx        1 T77      0.105367
     38 H5          2.7640   -0.9170    1.6130 hx        1 T77      0.105367
     39 H6          2.5170    0.8920    1.7810 hx        1 T77      0.105367
     40 H7          3.7410    0.2430    0.5800 hx        1 T77      0.105367
     41 H8          3.0570   -1.1050   -1.1710 hx        1 T77      0.110200
     42 H9          1.6570   -2.0720   -0.4730 hx        1 T77      0.110200
     43 H10         0.0800   -1.0420   -2.1320 h1        1 T77      0.081700
     44 H11         1.5510   -1.7210   -2.9940 h1        1 T77      0.081700
     45 H12        -0.2310   -0.8460   -4.4890 ha        1 T77      0.142000
     46 H13        -0.2890   -0.3960   -6.9260 ha        1 T77      0.158500
     47 H14         3.0620    1.9510   -4.0430 ha        1 T77      0.142000
     48 H15         2.9800    2.4230   -6.5010 ha        1 T77      0.158500
     49 H16        -0.8240    1.3050   -8.5920 hn        1 T77      0.311700
     50 H17        -0.6410    2.3280  -13.3860 h5        1 T77      0.057100
     51 H18         3.9430   -0.5090   -8.7460 ha        1 T77      0.146500
     52 H19         6.3640   -0.4660   -8.1580 ha        1 T77      0.137500
     53 H20         7.5570    1.7140   -7.9220 ha        1 T77      0.135000
     54 H21         6.3260    3.8540   -8.3010 ha        1 T77      0.137500
     55 H22         3.9080    3.8170   -8.9000 ha        1 T77      0.146500
     56 H23         4.2380    2.1240  -11.2660 hn        1 T77      0.458800
     57 H24         3.6390    3.5310  -13.7580 h1        1 T77      0.075200
     58 H25         3.8740    1.7340  -13.9640 h1        1 T77      0.075200
     59 H26         5.9350    2.7530  -14.4430 h2        1 T77      0.112700
     60 H27         8.6610    2.1020  -11.6140 h1        1 T77      0.087200
     61 H28         7.3170    2.5570  -10.4880 h1        1 T77      0.087200
     62 H29         7.9010    4.7140  -11.2780 h1        1 T77      0.087200
     63 H30         8.4630    4.0860  -12.8760 h1        1 T77      0.087200
     64 H321        1.7240    0.9000   -0.5250 hn        1 T77      0.474800
@<TRIPOS>BOND
     1    1    2 1   
     2    1   35 1   
     3    1   36 1   
     4    1   37 1   
     5    2    3 1   
     6    2    4 1   
     7    2   64 1   
     8    3   38 1   
     9    3   39 1   
    10    3   40 1   
    11    4    5 1   
    12    4   41 1   
    13    4   42 1   
    14    5    6 1   
    15    5   43 1   
    16    5   44 1   
    17    6    7 1   
    18    7    8 ar  
    19    7   10 ar  
    20    8    9 ar  
    21    8   45 1   
    22    9   12 ar  
    23    9   46 1   
    24   10   11 ar  
    25   10   47 1   
    26   11   12 ar  
    27   11   48 1   
    28   12   13 1   
    29   13   14 1   
    30   13   20 2   
    31   14   15 1   
    32   14   49 1   
    33   15   16 ar  
    34   15   19 ar  
    35   16   17 ar  
    36   17   18 ar  
    37   17   50 1   
    38   18   27 ar  
    39   19   20 1   
    40   19   27 ar  
    41   20   21 1   
    42   21   22 ar  
    43   21   26 ar  
    44   22   23 ar  
    45   22   51 1   
    46   23   24 ar  
    47   23   52 1   
    48   24   25 ar  
    49   24   53 1   
    50   25   26 ar  
    51   25   54 1   
    52   26   55 1   
    53   27   28 1   
    54   28   29 1   
    55   28   56 1   
    56   29   30 1   
    57   29   57 1   
    58   29   58 1   
    59   30   31 1   
    60   30   34 1   
    61   30   59 1   
    62   31   32 1   
    63   32   33 1   
    64   32   60 1   
    65   32   61 1   
    66   33   34 1   
    67   33   62 1   
    68   33   63 1   
@<TRIPOS>SUBSTRUCTURE
     1 T77         1 TEMP              0 ****  ****    0 ROOT
