@<TRIPOS>MOLECULE
T77
   64    68     1     0     0
SMALL
bcc


@<TRIPOS>ATOM
      1 C34         0.3380   -0.0910    0.6260 c3        1 T77      0.082600
      2 N32         1.6900    0.0140    0.0190 n4        1 T77     -0.677400
      3 C33         2.7390    0.0500    1.0700 c3        1 T77      0.082600
      4 C31         1.9480   -1.1040   -0.9490 c3        1 T77      0.098800
      5 C30         1.1940   -0.9400   -2.2740 c3        1 T77      0.108400
      6 O27         1.4800    0.3750   -2.7450 os        1 T77     -0.380900
      7 C24         1.4310    0.5260   -4.1320 ca        1 T77      0.074100
      8 C21         0.4840   -0.1290   -4.9250 ca        1 T77     -0.149500
      9 C15         0.4470    0.1390   -6.2910 ca        1 T77     -0.092500
     10 C20         2.3430    1.4370   -4.6830 ca        1 T77     -0.149500
     11 C14         2.2840    1.7020   -6.0470 ca        1 T77     -0.092500
     12 C7          1.3410    1.0570   -6.8640 ca        1 T77     -0.010800
     13 C3          1.2960    1.3520   -8.2850 cc        1 T77     -0.053300
     14 N8          0.0740    1.3940   -8.9880 na        1 T77     -0.273100
     15 C5          0.3370    1.7340  -10.3120 ca        1 T77      0.491800
     16 N11        -0.5610    1.8990  -11.3370 nb        1 T77     -0.748000
     17 C18         0.0350    2.2050  -12.5090 ca        1 T77      0.699900
     18 N13         1.3540    2.3660  -12.8010 nb        1 T77     -0.796000
     19 C2          1.7760    1.8800  -10.4610 ca        1 T77     -0.379400
     20 C1          2.3560    1.6330   -9.1680 cd        1 T77     -0.002400
     21 C4          3.7690    1.6510   -8.8430 ca        1 T77     -0.049800
     22 C9          4.4650    0.4500   -8.6430 ca        1 T77     -0.115500
     23 C16         5.8210    0.4720   -8.3190 ca        1 T77     -0.135000
     24 C22         6.4930    1.6880   -8.1930 ca        1 T77     -0.132000
     25 C17         5.8070    2.8850   -8.3990 ca        1 T77     -0.135000
     26 C10         4.4520    2.8700   -8.7250 ca        1 T77     -0.115500
     27 C6          2.2560    2.2150  -11.7740 ca        1 T77      0.754200
     28 N12         3.6010    2.4230  -11.9830 nh        1 T77     -0.848900
     29 C19         4.1250    2.6270  -13.3090 c3        1 T77      0.237800
     30 C23         5.6330    2.8240  -13.3670 c3        1 T77      0.050500
     31 S25         6.5380    1.5510  -12.5160 ss        1 T77     -0.269200
     32 C28         7.6450    2.5690  -11.5710 c3        1 T77     -0.018300
     33 C29         7.6730    3.9750  -12.0980 c3        1 T77     -0.018300
     34 S26         6.0910    4.4200  -12.7520 ss        1 T77     -0.269200
     35 H1          0.2630   -1.0400    1.2210 hx        1 T77      0.105367
     36 H2          0.1660    0.7900    1.3010 hx        1 T77      0.105367
     37 H3         -0.4340   -0.0940   -0.1910 hx        1 T77      0.105367
     38 H5          2.7510   -0.9270    1.6230 hx        1 T77      0.105367
     39 H6          2.5140    0.8850    1.7880 hx        1 T77      0.105367
     40 H7          3.7400    0.2270    0.5930 hx        1 T77      0.105367
     41 H8          1.6490   -2.0760   -0.4680 hx        1 T77      0.110200
     42 H9          3.0570   -1.1180   -1.1600 hx        1 T77      0.110200
     43 H10         0.0850   -1.0390   -2.1340 h1        1 T77      0.081700
     44 H11         1.5560   -1.7270   -2.9890 h1        1 T77      0.081700
     45 H12        -0.2240   -0.8450   -4.4840 ha        1 T77      0.142000
     46 H13        -0.2870   -0.3900   -6.9200 ha        1 T77      0.158500
     47 H14         3.0790    1.9420   -4.0420 ha        1 T77      0.142000
     48 H15         2.9910    2.4180   -6.5000 ha        1 T77      0.158500
     49 H16        -0.8220    1.3150   -8.5820 hn        1 T77      0.311700
     50 H17        -0.6510    2.3460  -13.3730 h5        1 T77      0.057100
     51 H18         3.9400   -0.5110   -8.7510 ha        1 T77      0.146500
     52 H19         6.3630   -0.4740   -8.1710 ha        1 T77      0.137500
     53 H20         7.5620    1.7020   -7.9360 ha        1 T77      0.135000
     54 H21         6.3350    3.8460   -8.3080 ha        1 T77      0.137500
     55 H22         3.9150    3.8160   -8.8990 ha        1 T77      0.146500
     56 H23         4.2340    2.1270  -11.2690 hn        1 T77      0.458800
     57 H24         3.8610    1.7440  -13.9670 h1        1 T77      0.075200
     58 H25         3.6300    3.5410  -13.7550 h1        1 T77      0.075200
     59 H26         5.9230    2.7590  -14.4490 h2        1 T77      0.112700
     60 H27         7.3170    2.5510  -10.4990 h1        1 T77      0.087200
     61 H28         8.6560    2.0960  -11.6320 h1        1 T77      0.087200
     62 H29         8.4590    4.0830  -12.8870 h1        1 T77      0.087200
     63 H30         7.9030    4.7090  -11.2860 h1        1 T77      0.087200
     64 H321        1.7330    0.8960   -0.5210 hn        1 T77      0.474800
@<TRIPOS>BOND
     1    1    2 1   
     2    1   35 1   
     3    1   36 1   
     4    1   37 1   
     5    2    3 1   
     6    2    4 1   
     7    2   64 1   
     8    3   38 1   
     9    3   39 1   
    10    3   40 1   
    11    4    5 1   
    12    4   41 1   
    13    4   42 1   
    14    5    6 1   
    15    5   43 1   
    16    5   44 1   
    17    6    7 1   
    18    7    8 ar  
    19    7   10 ar  
    20    8    9 ar  
    21    8   45 1   
    22    9   12 ar  
    23    9   46 1   
    24   10   11 ar  
    25   10   47 1   
    26   11   12 ar  
    27   11   48 1   
    28   12   13 1   
    29   13   14 1   
    30   13   20 2   
    31   14   15 1   
    32   14   49 1   
    33   15   16 ar  
    34   15   19 ar  
    35   16   17 ar  
    36   17   18 ar  
    37   17   50 1   
    38   18   27 ar  
    39   19   20 1   
    40   19   27 ar  
    41   20   21 1   
    42   21   22 ar  
    43   21   26 ar  
    44   22   23 ar  
    45   22   51 1   
    46   23   24 ar  
    47   23   52 1   
    48   24   25 ar  
    49   24   53 1   
    50   25   26 ar  
    51   25   54 1   
    52   26   55 1   
    53   27   28 1   
    54   28   29 1   
    55   28   56 1   
    56   29   30 1   
    57   29   57 1   
    58   29   58 1   
    59   30   31 1   
    60   30   34 1   
    61   30   59 1   
    62   31   32 1   
    63   32   33 1   
    64   32   60 1   
    65   32   61 1   
    66   33   34 1   
    67   33   62 1   
    68   33   63 1   
@<TRIPOS>SUBSTRUCTURE
     1 T77         1 TEMP              0 ****  ****    0 ROOT
