@<TRIPOS>MOLECULE
T7Z
   56    59     1     0     0
SMALL
bcc


@<TRIPOS>ATOM
      1 C01         8.8230    2.9930    0.4620 c3        1 T7Z      0.107100
      2 N02         8.2280    1.6980    0.4730 n2        1 T7Z     -0.639900
      3 C03         6.9670    1.5060    0.2600 cc        1 T7Z      0.597100
      4 N04         5.9380    2.4500   -0.0180 na        1 T7Z     -0.744000
      5 C05         4.6810    1.8880   -0.1950 cc        1 T7Z      0.199800
      6 C06         3.5170    2.7610   -0.4880 c3        1 T7Z     -0.055900
      7 C07         4.6800    0.5080   -0.0660 cd        1 T7Z     -0.290200
      8 C08         3.5560   -0.3930   -0.1880 ca        1 T7Z      0.648100
      9 N09         2.3250    0.1150   -0.4530 nb        1 T7Z     -0.781000
     10 C10         1.2700   -0.7750   -0.5750 ca        1 T7Z      0.896900
     11 N11         0.0330   -0.2150   -0.9530 nh        1 T7Z     -0.701300
     12 C12        -1.1880   -0.9030   -0.7430 ca        1 T7Z      0.094600
     13 C13        -2.2050   -0.3110    0.0260 ca        1 T7Z     -0.065000
     14 C14        -3.4550   -0.9210    0.1930 ca        1 T7Z     -0.359500
     15 S15        -4.5860   -0.1060    1.1650 sy        1 T7Z      1.507200
     16 N16        -5.5470    0.6420    0.0840 n3        1 T7Z     -0.815500
     17 C17        -6.8580    0.1630   -0.2760 c3        1 T7Z      0.189800
     18 C18        -7.9240    1.2690   -0.2720 c3        1 T7Z      0.114900
     19 O19        -7.5070    2.4010   -1.0270 os        1 T7Z     -0.409600
     20 C20        -6.2660    2.9280   -0.5720 c3        1 T7Z      0.114900
     21 C21        -5.1610    1.8620   -0.5800 c3        1 T7Z      0.189800
     22 O22        -5.3420   -1.0380    1.9070 o         1 T7Z     -0.652300
     23 O23        -3.8810    0.8650    1.9140 o         1 T7Z     -0.652300
     24 C24        -3.6860   -2.1690   -0.4070 ca        1 T7Z      0.049700
     25 C25        -4.9700   -2.8900   -0.2320 c3        1 T7Z     -0.090800
     26 C26        -2.6780   -2.7610   -1.1790 ca        1 T7Z     -0.154000
     27 C27        -1.4470   -2.1460   -1.3610 ca        1 T7Z     -0.036000
     28 N28         1.3730   -2.1540   -0.4120 nb        1 T7Z     -0.745000
     29 C29         2.5950   -2.6200   -0.1440 ca        1 T7Z      0.509200
     30 C30         3.7410   -1.7990   -0.0220 ca        1 T7Z     -0.320600
     31 C31         4.9840   -2.4100    0.2560 cg        1 T7Z      0.243800
     32 N32         5.9610   -3.0050    0.4840 n1        1 T7Z     -0.343800
     33 S33         6.2500   -0.0980    0.2780 ss        1 T7Z     -0.002800
     34 H011        9.9150    2.8460    0.6760 h1        1 T7Z      0.039033
     35 H012        8.7220    3.5070   -0.5330 h1        1 T7Z      0.039033
     36 H013        8.3950    3.6730    1.2490 h1        1 T7Z      0.039033
     37 H04         6.0990    3.4250   -0.0740 hn        1 T7Z      0.454800
     38 H061        3.7980    3.8420   -0.5450 hc        1 T7Z      0.069033
     39 H062        3.0640    2.4630   -1.4680 hc        1 T7Z      0.069033
     40 H063        2.7460    2.6380    0.3140 hc        1 T7Z      0.069033
     41 H11        -0.0310    0.7760   -0.8290 hn        1 T7Z      0.439800
     42 H13        -2.0250    0.6590    0.5290 ha        1 T7Z      0.159000
     43 H27        -0.6810   -2.6360   -1.9840 ha        1 T7Z      0.161000
     44 H171       -6.8160   -0.2810   -1.3130 h1        1 T7Z      0.059950
     45 H172       -7.1740   -0.6410    0.4490 h1        1 T7Z      0.059950
     46 H211       -4.2510    2.2880   -0.0680 h1        1 T7Z      0.059950
     47 H212       -4.8990    1.6320   -1.6530 h1        1 T7Z      0.059950
     48 H181       -8.8500    0.9110   -0.7930 h1        1 T7Z      0.059200
     49 H182       -8.1660    1.5850    0.7770 h1        1 T7Z      0.059200
     50 H201       -6.0220    3.7400   -1.3050 h1        1 T7Z      0.059200
     51 H202       -6.3950    3.3600    0.4560 h1        1 T7Z      0.059200
     52 H251       -5.8280   -2.2560   -0.5680 hc        1 T7Z      0.065700
     53 H252       -4.9840   -3.8400   -0.8210 hc        1 T7Z      0.065700
     54 H253       -5.1280   -3.1400    0.8510 hc        1 T7Z      0.065700
     55 H26        -2.8640   -3.7380   -1.6530 ha        1 T7Z      0.145000
     56 H29         2.6710   -3.7170   -0.0140 h4        1 T7Z      0.041100
@<TRIPOS>BOND
     1    1    2 1   
     2    1   34 1   
     3    1   35 1   
     4    1   36 1   
     5    2    3 2   
     6    3    4 1   
     7    3   33 1   
     8    4    5 1   
     9    4   37 1   
    10    5    6 1   
    11    5    7 2   
    12    6   38 1   
    13    6   39 1   
    14    6   40 1   
    15    7    8 1   
    16    7   33 1   
    17    8    9 ar  
    18    8   30 ar  
    19    9   10 ar  
    20   10   11 1   
    21   10   28 ar  
    22   11   12 1   
    23   11   41 1   
    24   12   13 ar  
    25   12   27 ar  
    26   13   14 ar  
    27   13   42 1   
    28   14   15 1   
    29   14   24 ar  
    30   15   16 1   
    31   15   22 2   
    32   15   23 2   
    33   16   17 1   
    34   16   21 1   
    35   17   18 1   
    36   17   44 1   
    37   17   45 1   
    38   18   19 1   
    39   18   48 1   
    40   18   49 1   
    41   19   20 1   
    42   20   21 1   
    43   20   50 1   
    44   20   51 1   
    45   21   46 1   
    46   21   47 1   
    47   24   25 1   
    48   24   26 ar  
    49   25   52 1   
    50   25   53 1   
    51   25   54 1   
    52   26   27 ar  
    53   26   55 1   
    54   27   43 1   
    55   28   29 ar  
    56   29   30 ar  
    57   29   56 1   
    58   30   31 1   
    59   31   32 3   
@<TRIPOS>SUBSTRUCTURE
     1 T7Z         1 TEMP              0 ****  ****    0 ROOT
