@<TRIPOS>MOLECULE
T7Z
   56    59     1     0     0
SMALL
bcc


@<TRIPOS>ATOM
      1 C01        -0.0470    0.4780    0.4350 c3        1 T7Z      0.107100
      2 N02         1.3730    0.4620    0.5450 n2        1 T7Z     -0.639900
      3 C03         1.9860    0.2610    1.6670 cc        1 T7Z      0.597100
      4 N04         1.4510    0.0230    2.9640 na        1 T7Z     -0.744000
      5 C05         2.4100   -0.1520    3.9530 cc        1 T7Z      0.199800
      6 C06         1.9880   -0.4070    5.3520 c3        1 T7Z     -0.055900
      7 C07         3.7080   -0.0610    3.4730 cd        1 T7Z     -0.290200
      8 C08         4.9390   -0.1930    4.2190 ca        1 T7Z      0.648100
      9 N09         4.8840   -0.4300    5.5530 nb        1 T7Z     -0.781000
     10 C10         6.0820   -0.5630    6.2380 ca        1 T7Z      0.896900
     11 N11         5.9770   -0.9120    7.6000 nh        1 T7Z     -0.701300
     12 C12         7.0490   -0.7070    8.5030 ca        1 T7Z      0.094600
     13 C13         6.8610    0.0880    9.6480 ca        1 T7Z     -0.065000
     14 C14         7.8690    0.2540   10.6060 ca        1 T7Z     -0.359500
     15 S15         7.5150    1.2580   11.9300 sy        1 T7Z      1.507200
     16 N16         7.1260    0.2070   13.1110 n3        1 T7Z     -0.815500
     17 C17         8.0210   -0.1500   14.1830 c3        1 T7Z      0.189800
     18 C18         7.3530   -0.1050   15.5650 c3        1 T7Z      0.114900
     19 O19         6.1320   -0.8370   15.5800 os        1 T7Z     -0.409600
     20 C20         5.2170   -0.3830   14.5890 c3        1 T7Z      0.114900
     21 C21         5.8350   -0.4310   13.1840 c3        1 T7Z      0.189800
     22 O22         8.6660    1.9850   12.3020 o         1 T7Z     -0.652300
     23 O23         6.3750    2.0240   11.5910 o         1 T7Z     -0.652300
     24 C24         9.1070   -0.3750   10.4030 ca        1 T7Z      0.049700
     25 C25        10.2320   -0.2040   11.3540 c3        1 T7Z     -0.090800
     26 C26         9.2990   -1.1730    9.2670 ca        1 T7Z     -0.154000
     27 C27         8.2920   -1.3530    8.3280 ca        1 T7Z     -0.036000
     28 N28         7.3420   -0.4360    5.6620 nb        1 T7Z     -0.745000
     29 C29         7.3620   -0.1940    4.3490 ca        1 T7Z      0.509200
     30 C30         6.1970   -0.0650    3.5550 ca        1 T7Z     -0.320600
     31 C31         6.3460    0.1830    2.1720 cg        1 T7Z      0.243800
     32 N32         6.5700    0.3850    1.0460 n1        1 T7Z     -0.343800
     33 S33         3.7390    0.2460    1.7840 ss        1 T7Z     -0.002800
     34 H011       -0.5150   -0.5010    0.7300 h1        1 T7Z      0.039033
     35 H012       -0.5200    1.2890    1.0540 h1        1 T7Z      0.039033
     36 H013       -0.2830    0.6730   -0.6460 h1        1 T7Z      0.039033
     37 H04         0.4800   -0.0090    3.1510 hn        1 T7Z      0.454800
     38 H061        2.3880    0.4010    6.0160 hc        1 T7Z      0.069033
     39 H062        0.8760   -0.4360    5.4650 hc        1 T7Z      0.069033
     40 H063        2.4030   -1.3890    5.6950 hc        1 T7Z      0.069033
     41 H11         5.0710   -0.7630    8.0000 hn        1 T7Z      0.439800
     42 H13         5.8990    0.6130    9.8040 ha        1 T7Z      0.159000
     43 H27         8.4740   -1.9960    7.4520 ha        1 T7Z      0.161000
     44 H171        8.8990    0.5590   14.1870 h1        1 T7Z      0.060200
     45 H172        8.4040   -1.1980   14.0100 h1        1 T7Z      0.060200
     46 H211        5.1300    0.0800   12.4670 h1        1 T7Z      0.060200
     47 H212        5.9390   -1.5130   12.8790 h1        1 T7Z      0.060200
     48 H181        7.9990   -0.6240   16.3200 h1        1 T7Z      0.059200
     49 H182        7.1600    0.9540   15.8810 h1        1 T7Z      0.059200
     50 H201        4.8770    0.6560   14.8390 h1        1 T7Z      0.059200
     51 H202        4.3570   -1.0990   14.6550 h1        1 T7Z      0.059200
     52 H251       10.5420    0.8740   11.3960 hc        1 T7Z      0.065700
     53 H252        9.9270   -0.5160   12.3850 hc        1 T7Z      0.065700
     54 H253       11.1170   -0.8160   11.0500 hc        1 T7Z      0.065700
     55 H26        10.2700   -1.6690    9.1120 ha        1 T7Z      0.145000
     56 H29         8.3670   -0.0930    3.8950 h4        1 T7Z      0.041100
@<TRIPOS>BOND
     1    1    2 1   
     2    1   34 1   
     3    1   35 1   
     4    1   36 1   
     5    2    3 2   
     6    3    4 1   
     7    3   33 1   
     8    4    5 1   
     9    4   37 1   
    10    5    6 1   
    11    5    7 2   
    12    6   38 1   
    13    6   39 1   
    14    6   40 1   
    15    7    8 1   
    16    7   33 1   
    17    8    9 ar  
    18    8   30 ar  
    19    9   10 ar  
    20   10   11 1   
    21   10   28 ar  
    22   11   12 1   
    23   11   41 1   
    24   12   13 ar  
    25   12   27 ar  
    26   13   14 ar  
    27   13   42 1   
    28   14   15 1   
    29   14   24 ar  
    30   15   16 1   
    31   15   22 2   
    32   15   23 2   
    33   16   17 1   
    34   16   21 1   
    35   17   18 1   
    36   17   44 1   
    37   17   45 1   
    38   18   19 1   
    39   18   48 1   
    40   18   49 1   
    41   19   20 1   
    42   20   21 1   
    43   20   50 1   
    44   20   51 1   
    45   21   46 1   
    46   21   47 1   
    47   24   25 1   
    48   24   26 ar  
    49   25   52 1   
    50   25   53 1   
    51   25   54 1   
    52   26   27 ar  
    53   26   55 1   
    54   27   43 1   
    55   28   29 ar  
    56   29   30 ar  
    57   29   56 1   
    58   30   31 1   
    59   31   32 3   
@<TRIPOS>SUBSTRUCTURE
     1 T7Z         1 TEMP              0 ****  ****    0 ROOT
