@<TRIPOS>MOLECULE
T7Z
   56    57     1     0     0
SMALL
bcc


@<TRIPOS>ATOM
      1 C01        -0.1400    0.3840    0.3920 c3        1 T7Z      0.106100
      2 N02         1.2780    0.4700    0.4940 n2        1 T7Z     -0.638900
      3 C03         1.9150    0.2620    1.6000 cc        1 T7Z      0.597100
      4 N04         1.4110   -0.0770    2.8890 na        1 T7Z     -0.743000
      5 C05         2.3890   -0.2270    3.8620 cc        1 T7Z      0.201800
      6 C06         2.0020   -0.5810    5.2500 c3        1 T7Z     -0.056900
      7 C07         3.6730   -0.0150    3.3800 cd        1 T7Z     -0.292200
      8 C08         4.9160   -0.0850    4.1110 ca        1 T7Z      0.649100
      9 N09         4.8900   -0.3590    5.4410 nb        1 T7Z     -0.779000
     10 C10         6.1000   -0.4300    6.1110 ca        1 T7Z      0.895900
     11 N11         6.0320   -0.8150    7.4660 nu        1 T7Z     -0.705300
     12 C12         7.1070   -0.5810    8.3560 ca        1 T7Z      0.101600
     13 C13         6.9100    0.1860    9.5140 ca        1 T7Z     -0.054000
     14 C14         7.9300    0.3750   10.4610 ca        1 T7Z     -0.394500
     15 S15         7.5710    1.3360   11.7790 sy        1 T7Z      1.450300
     16 N16         7.2200    0.1330   12.9890 nh        1 T7Z     -0.090600
     17 C17         8.1170   -0.0760   13.9620 c2        1 T7Z     -0.084800
     18 C18         7.9310   -1.0380   15.0620 c3        1 T7Z     -0.109400
     19 O19         4.9310   -0.2710   16.8030 o         1 T7Z     -0.527100
     20 C20         4.5080    0.4680   15.9180 c         1 T7Z      0.557700
     21 C21         6.0630   -0.5240   12.8730 c2        1 T7Z     -0.129900
     22 O22         8.6800    2.0810   12.1980 o         1 T7Z     -0.619300
     23 O23         6.3900    2.0560   11.5390 o         1 T7Z     -0.619300
     24 C24         9.1850   -0.2160   10.2330 ca        1 T7Z      0.069700
     25 C25        10.3080   -0.0490   11.1850 c3        1 T7Z     -0.104800
     26 C26         9.3860   -0.9820    9.0760 ca        1 T7Z     -0.156000
     27 C27         8.3730   -1.1760    8.1490 ca        1 T7Z     -0.020000
     28 N28         7.3440   -0.2090    5.5290 nb        1 T7Z     -0.749000
     29 C29         7.3350    0.0670    4.2220 ca        1 T7Z      0.509200
     30 C30         6.1580    0.1410    3.4420 ca        1 T7Z     -0.317600
     31 C31         6.2760    0.4350    2.0650 cg        1 T7Z      0.241800
     32 N32         6.4760    0.6790    0.9420 n1        1 T7Z     -0.340800
     33 S33         3.6650    0.3710    1.7060 ss        1 T7Z     -0.003800
     34 H011       -0.3990    0.6130   -0.6770 h1        1 T7Z      0.039700
     35 H012       -0.6680    1.1260    1.0520 h1        1 T7Z      0.039700
     36 H013       -0.5310   -0.6410    0.6400 h1        1 T7Z      0.039700
     37 H04         0.4470   -0.1960    3.0790 hn        1 T7Z      0.454800
     38 H061        2.3320    0.2290    5.9480 hc        1 T7Z      0.069367
     39 H062        2.5040   -1.5360    5.5470 hc        1 T7Z      0.069367
     40 H063        0.8970   -0.7140    5.3640 hc        1 T7Z      0.069367
     41 H11         5.1250   -0.7360    7.8820 hn        1 T7Z      0.443800
     42 H13         5.9290    0.6660    9.7000 ha        1 T7Z      0.161000
     43 H27         8.5630   -1.7950    7.2560 ha        1 T7Z      0.165000
     44 H171        8.8010   -0.9780   15.7610 hc        1 T7Z      0.046033
     45 H172        9.0250    0.5500   13.9580 h4        1 T7Z      0.038800
     46 H211        4.8160    0.3540   14.8550 h4        1 T7Z     -0.015300
     47 H212        5.3730   -0.2480   12.0680 h4        1 T7Z      0.020800
     48 H181        6.9910   -0.8210   15.6380 hc        1 T7Z      0.046033
     49 H182        7.8540   -2.0860   14.6720 hc        1 T7Z      0.046033
     50 H201        5.8040   -1.3390   13.5550 h4        1 T7Z      0.020800
     51 H202        3.7940    1.2920   16.1310 h4        1 T7Z     -0.015300
     52 H251       10.0220   -0.4280   12.2010 hc        1 T7Z      0.074033
     53 H252       10.5810    1.0350   11.2820 hc        1 T7Z      0.074033
     54 H253       11.2130   -0.6110   10.8470 hc        1 T7Z      0.074033
     55 H26        10.3710   -1.4450    8.9010 ha        1 T7Z      0.150000
     56 H29         8.3280    0.2430    3.7630 h4        1 T7Z      0.042100
@<TRIPOS>BOND
     1    1    2 1   
     2    1   34 1   
     3    1   35 1   
     4    1   36 1   
     5    2    3 2   
     6    3    4 1   
     7    3   33 1   
     8    4    5 1   
     9    4   37 1   
    10    5    6 1   
    11    5    7 2   
    12    6   38 1   
    13    6   39 1   
    14    6   40 1   
    15    7    8 1   
    16    7   33 1   
    17    8    9 ar  
    18    8   30 ar  
    19    9   10 ar  
    20   10   11 1   
    21   10   28 ar  
    22   11   12 1   
    23   11   41 1   
    24   12   13 ar  
    25   12   27 ar  
    26   13   14 ar  
    27   13   42 1   
    28   14   15 1   
    29   14   24 ar  
    30   15   16 1   
    31   15   22 2   
    32   15   23 2   
    33   16   17 2   
    34   16   21 2   
    35   17   18 1   
    36   17   45 1   
    37   18   44 1   
    38   18   48 1   
    39   18   49 1   
    40   19   20 2   
    41   20   46 1   
    42   20   51 1   
    43   21   47 1   
    44   21   50 1   
    45   24   25 1   
    46   24   26 ar  
    47   25   52 1   
    48   25   53 1   
    49   25   54 1   
    50   26   27 ar  
    51   26   55 1   
    52   27   43 1   
    53   28   29 ar  
    54   29   30 ar  
    55   29   56 1   
    56   30   31 1   
    57   31   32 3   
@<TRIPOS>SUBSTRUCTURE
     1 T7Z         1 TEMP              0 ****  ****    0 ROOT
