@<TRIPOS>MOLECULE
T7Z
   56    52     1     0     0
SMALL
bcc


@<TRIPOS>ATOM
      1 C01        -5.7860   -6.2150    2.9540 c3        1 T7Z     -0.134000
      2 N02        -4.3670   -5.9890    2.8300 n2        1 T7Z     -0.238000
      3 C03        -3.8700   -4.8090    3.0850 c1        1 T7Z     -0.054000
      4 N04        -4.6760   -3.4730    3.5520 n2        1 T7Z     -0.305000
      5 C05        -3.5560   -2.3820    3.7090 c2        1 T7Z      0.076000
      6 C06        -3.7540   -1.2190    4.6910 c3        1 T7Z     -0.185000
      7 C07        -2.2570   -2.8410    3.4130 c1        1 T7Z     -0.405000
      8 C08        -1.1990   -1.8640    2.8880 c1        1 T7Z      0.193000
      9 N09        -1.4070   -1.2060    1.7290 n2        1 T7Z     -0.220000
     10 C10        -0.4210   -0.4180    1.2020 c1        1 T7Z      0.179000
     11 N11        -0.6260    0.2470   -0.0650 n2        1 T7Z     -0.231000
     12 C12         0.3180    0.0610   -1.1370 c2        1 T7Z      0.019000
     13 C13         0.7540    1.1560   -1.8740 c2        1 T7Z     -0.060000
     14 C14         1.5780    0.9670   -2.9780 c1        1 T7Z     -0.804000
     15 S15         2.0100    2.3590   -4.0160 ss        1 T7Z      2.846000
     16 N16         2.4110    3.6600   -3.0890 n2        1 T7Z     -0.835000
     17 C17         3.7290    3.8070   -2.6120 c3        1 T7Z     -0.047500
     18 C18         4.0580    5.2400   -2.2600 c3        1 T7Z     -0.035000
     19 O19         3.0990    5.8150   -1.3940 os        1 T7Z     -0.266000
     20 C20         1.7810    5.6690   -1.8700 c3        1 T7Z     -0.035000
     21 C21         1.4510    4.2360   -2.2220 c3        1 T7Z     -0.047500
     22 O22         3.0720    2.0200   -4.9290 o         1 T7Z     -0.931500
     23 O23         0.9450    2.6770   -4.9320 o         1 T7Z     -0.931500
     24 C24         1.9660   -0.3140   -3.3430 c2        1 T7Z      0.057000
     25 C25         2.9330   -0.5140   -4.4980 c3        1 T7Z     -0.215000
     26 C26         1.5290   -1.4090   -2.6060 c1        1 T7Z     -0.154000
     27 C27         0.7060   -1.2210   -1.5040 c1        1 T7Z     -0.039000
     28 N28         0.7700   -0.2980    1.8470 n2        1 T7Z     -0.217000
     29 C29         0.9800   -0.9540    3.0040 c1        1 T7Z      0.038000
     30 C30        -0.0070   -1.7430    3.5330 c1        1 T7Z     -0.178000
     31 C31         0.2270   -2.4770    4.8320 c1        1 T7Z     -0.074000
     32 N32         0.4040   -3.0310    5.8130 n1        1 T7Z     -0.044000
     33 S33        -2.2080   -4.3180    3.0020 ss        1 T7Z      0.472000
     34 H011       -5.9440   -7.0440    3.4630 h1        1 T7Z      0.078000
     35 H012       -6.2010   -5.4530    3.4280 h1        1 T7Z      0.078000
     36 H013       -6.1820   -6.2990    2.0640 h1        1 T7Z      0.078000
     37 H04        -5.4850   -3.4520    3.9300 hn        1 T7Z      0.251000
     38 H061       -3.3740   -0.4040    4.3120 hc        1 T7Z      0.105667
     39 H062       -4.7230   -1.0860    4.8550 hc        1 T7Z      0.105667
     40 H063       -3.3020   -1.4270    5.5450 hc        1 T7Z      0.105667
     41 H11        -1.3130    0.8470   -0.1600 hn        1 T7Z      0.254000
     42 H13         0.4470    2.0460   -1.6460 ha        1 T7Z      0.160000
     43 H27         0.3980   -1.9960   -0.9830 ha        1 T7Z      0.159000
     44 H171        4.3520    3.5000   -3.3040 h1        1 T7Z      0.100000
     45 H172        3.8420    3.2500   -1.8130 h1        1 T7Z      0.100000
     46 H211        0.5690    4.2110   -2.6610 h1        1 T7Z      0.100000
     47 H212        1.4110    3.7060   -1.3930 h1        1 T7Z      0.100000
     48 H181        4.0980    5.7680   -3.0850 h1        1 T7Z      0.098500
     49 H182        4.9350    5.2660   -1.8230 h1        1 T7Z      0.098500
     50 H201        1.6690    6.2240   -2.6650 h1        1 T7Z      0.098500
     51 H202        1.1630    5.9750   -1.1840 h1        1 T7Z      0.098500
     52 H251        2.7120    0.1010   -5.2150 hc        1 T7Z      0.105000
     53 H252        3.8500   -0.3420   -4.1910 hc        1 T7Z      0.105000
     54 H253        2.8660   -1.4330   -4.8250 hc        1 T7Z      0.105000
     55 H26         1.8010   -2.3070   -2.8630 ha        1 T7Z      0.145000
     56 H29         1.8260   -0.8680    3.4610 ha        1 T7Z      0.177000
@<TRIPOS>BOND
     1    1    2 1   
     2    1   34 1   
     3    1   35 1   
     4    1   36 1   
     5    2    3 1   
     6    3   33 1   
     7    4    5 1   
     8    4   37 1   
     9    5    6 1   
    10    5    7 1   
    11    6   38 1   
    12    6   39 1   
    13    6   40 1   
    14    7   33 1   
    15    8    9 1   
    16    8   30 1   
    17    9   10 1   
    18   10   28 1   
    19   11   12 1   
    20   11   41 1   
    21   12   13 1   
    22   12   27 1   
    23   13   14 1   
    24   13   42 1   
    25   14   24 1   
    26   15   22 1   
    27   15   23 1   
    28   16   17 1   
    29   16   21 1   
    30   17   18 1   
    31   17   44 1   
    32   17   45 1   
    33   18   19 1   
    34   18   48 1   
    35   18   49 1   
    36   19   20 1   
    37   20   21 1   
    38   20   50 1   
    39   20   51 1   
    40   21   46 1   
    41   21   47 1   
    42   24   25 1   
    43   24   26 1   
    44   25   52 1   
    45   25   53 1   
    46   25   54 1   
    47   26   55 1   
    48   27   43 1   
    49   28   29 1   
    50   29   56 1   
    51   30   31 1   
    52   31   32 1   
@<TRIPOS>SUBSTRUCTURE
     1 T7Z         1 TEMP              0 ****  ****    0 ROOT
