@<TRIPOS>MOLECULE
T7Z
   57    58     1     0     0
SMALL
bcc


@<TRIPOS>ATOM
      1 C01         1.1620    2.6270    2.9890 c3        1 T7Z      0.096100
      2 N02         2.0760    1.5600    2.7560 n2        1 T7Z     -0.594900
      3 C03         2.7290    0.9520    3.6830 cc        1 T7Z      0.586100
      4 N04         2.7240    1.1640    5.1020 na        1 T7Z     -0.715000
      5 C05         3.5600    0.3350    5.8080 cc        1 T7Z      0.259800
      6 C06         3.6470    0.4490    7.2850 c3        1 T7Z     -0.074900
      7 C07         4.2570   -0.5680    4.9920 cd        1 T7Z     -0.340200
      8 C08         5.2170   -1.5470    5.3810 ca        1 T7Z      0.653100
      9 N09         5.5640   -1.6790    6.7030 nb        1 T7Z     -0.721000
     10 C10         6.5090   -2.6140    6.9950 ca        1 T7Z      0.743900
     11 N11         6.8950   -2.7330    8.4430 n4        1 T7Z     -0.615100
     12 C12         7.6210   -1.5430    8.8920 ca        1 T7Z     -0.072400
     13 C13         6.8960   -0.4340    9.3400 ca        1 T7Z      0.017000
     14 C14         7.5560    0.7150    9.7940 ca        1 T7Z     -0.357500
     15 S15         6.5510    2.0110   10.2740 sy        1 T7Z      1.333200
     16 N16         6.2770    1.6100   11.9090 nh        1 T7Z     -0.299100
     17 C17         6.9930    2.3890   12.8700 c2        1 T7Z     -0.045000
     18 C18         7.0750    2.1050   14.1750 c2        1 T7Z     -0.145000
     19 O19         4.8770   -2.2920   10.6050 oh        1 T7Z     -0.679800
     20 C20         3.4690   -2.2770   10.4380 c3        1 T7Z      0.110700
     21 C21         5.4500    0.6680   12.3100 c1        1 T7Z      0.009500
     22 O22         7.2230    3.2360   10.1290 o         1 T7Z     -0.620300
     23 O23         5.3270    1.8450    9.5770 o         1 T7Z     -0.620300
     24 C24         8.9600    0.7450    9.7920 ca        1 T7Z      0.113700
     25 C25         9.7080    1.9340   10.2580 c3        1 T7Z     -0.105800
     26 C26         9.6780   -0.3730    9.3260 ca        1 T7Z     -0.144000
     27 C27         9.0310   -1.5110    8.8720 ca        1 T7Z     -0.038000
     28 N28         7.1650   -3.4570    6.1360 nb        1 T7Z     -0.711000
     29 C29         6.8050   -3.3290    4.8430 ca        1 T7Z      0.500200
     30 C30         5.8430   -2.3960    4.4030 ca        1 T7Z     -0.223600
     31 C31         5.5430   -2.3480    3.0200 cg        1 T7Z      0.204800
     32 N32         5.3640   -2.3870    1.8690 n1        1 T7Z     -0.263800
     33 S33         3.8410   -0.3640    3.3360 ss        1 T7Z     -0.003800
     34 H011        0.8990    3.0490    1.9810 h1        1 T7Z      0.055033
     35 H012        1.5910    3.4520    3.6200 h1        1 T7Z      0.055033
     36 H013        0.2180    2.2610    3.4790 h1        1 T7Z      0.055033
     37 H04         2.1780    1.8710    5.5360 hn        1 T7Z      0.467800
     38 H061        2.9480    1.2180    7.7020 hc        1 T7Z      0.081033
     39 H062        3.4020   -0.5370    7.7530 hc        1 T7Z      0.081033
     40 H063        4.6860    0.7470    7.5870 hc        1 T7Z      0.081033
     41 H11         7.4890   -3.5650    8.5650 hn        1 T7Z      0.487800
     42 H13         5.7840   -0.4560    9.3340 ha        1 T7Z      0.190000
     43 H27         9.6190   -2.3690    8.5050 ha        1 T7Z      0.165000
     44 H171        6.5880    1.2330   14.6370 ha        1 T7Z      0.149000
     45 H172        7.4650    3.2940   12.4320 h4        1 T7Z      0.173000
     46 H211        3.0290   -3.2570   10.7460 h1        1 T7Z      0.049033
     47 H212        4.9340    0.1020   11.4980 ha        1 T7Z     -0.004500
     48 H181        5.0540   -2.4150   11.5470 ho        1 T7Z      0.432000
     49 H182        7.6400    2.7630   14.8510 ha        1 T7Z      0.149000
     50 H201        3.3060   -2.1020    9.3440 h1        1 T7Z      0.049033
     51 H202        3.0160   -1.4450   11.0340 h1        1 T7Z      0.049033
     52 H251       10.8060    1.7320   10.3190 hc        1 T7Z      0.086367
     53 H252        9.3490    2.2580   11.2700 hc        1 T7Z      0.086367
     54 H253        9.5420    2.7940    9.5530 hc        1 T7Z      0.086367
     55 H26        10.7820   -0.3400    9.3180 ha        1 T7Z      0.175000
     56 H29         7.3200   -4.0100    4.1340 h4        1 T7Z      0.072100
     57 H112        6.0310   -2.8390    9.0090 hn        1 T7Z      0.487800
@<TRIPOS>BOND
     1    1    2 1   
     2    1   34 1   
     3    1   35 1   
     4    1   36 1   
     5    2    3 2   
     6    3    4 1   
     7    3   33 1   
     8    4    5 1   
     9    4   37 1   
    10    5    6 1   
    11    5    7 2   
    12    6   38 1   
    13    6   39 1   
    14    6   40 1   
    15    7    8 1   
    16    7   33 1   
    17    8    9 ar  
    18    8   30 ar  
    19    9   10 ar  
    20   10   11 1   
    21   10   28 ar  
    22   11   12 1   
    23   11   41 1   
    24   11   57 1   
    25   12   13 ar  
    26   12   27 ar  
    27   13   14 ar  
    28   13   42 1   
    29   14   15 1   
    30   14   24 ar  
    31   15   16 1   
    32   15   22 2   
    33   15   23 2   
    34   16   17 1   
    35   16   21 3   
    36   17   18 2   
    37   17   45 1   
    38   18   44 1   
    39   18   49 1   
    40   19   20 1   
    41   19   48 1   
    42   20   46 1   
    43   20   50 1   
    44   20   51 1   
    45   21   47 1   
    46   24   25 1   
    47   24   26 ar  
    48   25   52 1   
    49   25   53 1   
    50   25   54 1   
    51   26   27 ar  
    52   26   55 1   
    53   27   43 1   
    54   28   29 ar  
    55   29   30 ar  
    56   29   56 1   
    57   30   31 1   
    58   31   32 3   
@<TRIPOS>SUBSTRUCTURE
     1 T7Z         1 TEMP              0 ****  ****    0 ROOT
