@<TRIPOS>MOLECULE
T80
   94    93     1     0     0
SMALL
bcc


@<TRIPOS>ATOM
      1 C1         -5.0670    1.1570  -16.1560 c3        1 T80      0.118700
      2 O2         -4.1520    0.1270  -15.8230 os        1 T80     -0.425600
      3 C3         -3.1130    0.5840  -14.9600 c3        1 T80      0.125400
      4 C4         -2.2360   -0.6340  -14.6850 c3        1 T80      0.128400
      5 O5         -1.1400   -0.1550  -13.9090 os        1 T80     -0.429600
      6 C6         -0.2250   -1.1970  -13.5750 c3        1 T80      0.128400
      7 C7          0.8000   -0.5810  -12.6280 c3        1 T80      0.128400
      8 O8          0.5600   -1.1590  -11.3460 os        1 T80     -0.429600
      9 C9          1.3640   -0.5620  -10.3310 c3        1 T80      0.128400
     10 C10         0.9920   -1.2760   -9.0350 c3        1 T80      0.128400
     11 O11         1.9430   -0.8410   -8.0660 os        1 T80     -0.430600
     12 C12         1.7160   -1.4330   -6.7890 c3        1 T80      0.128400
     13 C13         2.6920   -0.7660   -5.8250 c3        1 T80      0.126400
     14 O14         1.9090    0.0540   -4.9610 os        1 T80     -0.425600
     15 C15         2.7140    0.8830   -4.1260 c3        1 T80      0.125400
     16 C16         1.7660    1.5780   -3.1580 c3        1 T80      0.136400
     17 O17         1.8000    0.8110   -1.9440 os        1 T80     -0.445900
     18 C18         0.9040    1.1610   -0.9700 c         1 T80      0.633100
     19 O19         0.1650    2.1250   -1.1770 o         1 T80     -0.542000
     20 C20         0.9750    0.2630    0.2250 c3        1 T80     -0.127400
     21 C21         0.7360    1.0380    1.5030 c3        1 T80     -0.079400
     22 C22         0.6690    0.1040    2.6930 c3        1 T80     -0.078400
     23 C23         0.4490    0.8750    3.9770 c3        1 T80     -0.079400
     24 C24         0.3760   -0.0560    5.1690 c3        1 T80     -0.079400
     25 C25         0.1580    0.7140    6.4530 c3        1 T80     -0.079400
     26 C26         0.0840   -0.2160    7.6450 c3        1 T80     -0.079400
     27 C27        -0.1340    0.5540    8.9300 c3        1 T80     -0.079400
     28 C28        -0.2070   -0.3760   10.1220 c3        1 T80     -0.079400
     29 C29        -0.4260    0.3940   11.4070 c3        1 T80     -0.079400
     30 C30        -0.4990   -0.5360   12.5990 c3        1 T80     -0.079400
     31 C31        -0.7180    0.2340   13.8840 c3        1 T80     -0.079400
     32 C32        -0.7910   -0.6960   15.0760 c3        1 T80     -0.079400
     33 C33        -1.0100    0.0740   16.3610 c3        1 T80     -0.079400
     34 C34        -1.0830   -0.8560   17.5530 c3        1 T80     -0.079400
     35 C35        -1.3020   -0.0870   18.8390 c3        1 T80     -0.080400
     36 C36        -1.3750   -1.0080   20.0290 c3        1 T80     -0.092100
     37 H11        -4.5470    1.9880  -16.6940 h1        1 T80      0.034033
     38 H12        -5.8120    0.6610  -16.8270 h1        1 T80      0.034033
     39 H13        -5.5670    1.5520  -15.2380 h1        1 T80      0.034033
     40 H31        -3.5500    0.9820  -14.0070 h1        1 T80      0.040200
     41 H32        -2.5230    1.3930  -15.4630 h1        1 T80      0.040200
     42 H41        -1.8630   -1.0790  -15.6440 h1        1 T80      0.040700
     43 H42        -2.8040   -1.4120  -14.1110 h1        1 T80      0.040700
     44 H61         0.2750   -1.5610  -14.5120 h1        1 T80      0.044700
     45 H62        -0.7660   -2.0460  -13.0810 h1        1 T80      0.044700
     46 H71         0.6810    0.5340  -12.5800 h1        1 T80      0.044700
     47 H72         1.8420   -0.8360  -12.9570 h1        1 T80      0.044700
     48 H91         1.1430    0.5340  -10.2590 h1        1 T80      0.041200
     49 H92         2.4510   -0.7080  -10.5660 h1        1 T80      0.041200
     50 H101        1.0550   -2.3890   -9.1630 h1        1 T80      0.041700
     51 H102       -0.0440   -0.9980   -8.7110 h1        1 T80      0.041700
     52 H121        1.9170   -2.5350   -6.8530 h1        1 T80      0.045700
     53 H122        0.6550   -1.2610   -6.4640 h1        1 T80      0.045700
     54 H131        3.4390   -0.1410   -6.3840 h1        1 T80      0.043700
     55 H132        3.2290   -1.5380   -5.2130 h1        1 T80      0.043700
     56 H151        3.2410    1.6460   -4.7580 h1        1 T80      0.044200
     57 H152        3.4680    0.2610   -3.5740 h1        1 T80      0.044200
     58 H161        0.7170    1.6060   -3.5550 h1        1 T80      0.067700
     59 H162        2.1160    2.6180   -2.9300 h1        1 T80      0.067700
     60 H201        1.9730   -0.2490    0.2540 hc        1 T80      0.078200
     61 H202        0.1880   -0.5280    0.0950 hc        1 T80      0.078200
     62 H211       -0.2200    1.6190    1.4150 hc        1 T80      0.057700
     63 H212        1.5620    1.7820    1.6520 hc        1 T80      0.057700
     64 H221        1.6210   -0.4850    2.7650 hc        1 T80      0.040700
     65 H222       -0.1660   -0.6310    2.5480 hc        1 T80      0.040700
     66 H231       -0.5010    1.4670    3.9020 hc        1 T80      0.042700
     67 H232        1.2850    1.6090    4.1230 hc        1 T80      0.042700
     68 H241        1.3260   -0.6490    5.2420 hc        1 T80      0.039700
     69 H242       -0.4600   -0.7890    5.0230 hc        1 T80      0.039700
     70 H251       -0.7920    1.3070    6.3800 hc        1 T80      0.040200
     71 H252        0.9940    1.4470    6.5990 hc        1 T80      0.040200
     72 H261        1.0340   -0.8090    7.7190 hc        1 T80      0.039700
     73 H262       -0.7520   -0.9490    7.4990 hc        1 T80      0.039700
     74 H271       -1.0840    1.1470    8.8560 hc        1 T80      0.039700
     75 H272        0.7020    1.2870    9.0760 hc        1 T80      0.039700
     76 H281        0.7420   -0.9690   10.1960 hc        1 T80      0.039700
     77 H282       -1.0440   -1.1090    9.9760 hc        1 T80      0.039700
     78 H291       -1.3760    0.9870   11.3330 hc        1 T80      0.039700
     79 H292        0.4100    1.1270   11.5530 hc        1 T80      0.039700
     80 H301        0.4500   -1.1290   12.6730 hc        1 T80      0.039700
     81 H302       -1.3360   -1.2690   12.4530 hc        1 T80      0.039700
     82 H311       -1.6680    0.8270   13.8100 hc        1 T80      0.039700
     83 H312        0.1180    0.9670   14.0300 hc        1 T80      0.039700
     84 H321        0.1590   -1.2890   15.1500 hc        1 T80      0.039700
     85 H322       -1.6280   -1.4290   14.9300 hc        1 T80      0.039700
     86 H331       -1.9590    0.6670   16.2870 hc        1 T80      0.039700
     87 H332       -0.1730    0.8070   16.5070 hc        1 T80      0.039700
     88 H341       -0.1330   -1.4480   17.6270 hc        1 T80      0.039700
     89 H342       -1.9190   -1.5890   17.4070 hc        1 T80      0.039700
     90 H351       -2.2510    0.5070   18.7620 hc        1 T80      0.038700
     91 H352       -0.4650    0.6470   18.9820 hc        1 T80      0.038700
     92 H361       -1.5360   -0.4220   20.9650 hc        1 T80      0.032700
     93 H362       -2.2190   -1.7320   19.9160 hc        1 T80      0.032700
     94 H363       -0.4280   -1.5910   20.1360 hc        1 T80      0.032700
@<TRIPOS>BOND
     1    1    2 1   
     2    1   37 1   
     3    1   38 1   
     4    1   39 1   
     5    2    3 1   
     6    3    4 1   
     7    3   40 1   
     8    3   41 1   
     9    4    5 1   
    10    4   42 1   
    11    4   43 1   
    12    5    6 1   
    13    6    7 1   
    14    6   44 1   
    15    6   45 1   
    16    7    8 1   
    17    7   46 1   
    18    7   47 1   
    19    8    9 1   
    20    9   10 1   
    21    9   48 1   
    22    9   49 1   
    23   10   11 1   
    24   10   50 1   
    25   10   51 1   
    26   11   12 1   
    27   12   13 1   
    28   12   52 1   
    29   12   53 1   
    30   13   14 1   
    31   13   54 1   
    32   13   55 1   
    33   14   15 1   
    34   15   16 1   
    35   15   56 1   
    36   15   57 1   
    37   16   17 1   
    38   16   58 1   
    39   16   59 1   
    40   17   18 1   
    41   18   19 2   
    42   18   20 1   
    43   20   21 1   
    44   20   60 1   
    45   20   61 1   
    46   21   22 1   
    47   21   62 1   
    48   21   63 1   
    49   22   23 1   
    50   22   64 1   
    51   22   65 1   
    52   23   24 1   
    53   23   66 1   
    54   23   67 1   
    55   24   25 1   
    56   24   68 1   
    57   24   69 1   
    58   25   26 1   
    59   25   70 1   
    60   25   71 1   
    61   26   27 1   
    62   26   72 1   
    63   26   73 1   
    64   27   28 1   
    65   27   74 1   
    66   27   75 1   
    67   28   29 1   
    68   28   76 1   
    69   28   77 1   
    70   29   30 1   
    71   29   78 1   
    72   29   79 1   
    73   30   31 1   
    74   30   80 1   
    75   30   81 1   
    76   31   32 1   
    77   31   82 1   
    78   31   83 1   
    79   32   33 1   
    80   32   84 1   
    81   32   85 1   
    82   33   34 1   
    83   33   86 1   
    84   33   87 1   
    85   34   35 1   
    86   34   88 1   
    87   34   89 1   
    88   35   36 1   
    89   35   90 1   
    90   35   91 1   
    91   36   92 1   
    92   36   93 1   
    93   36   94 1   
@<TRIPOS>SUBSTRUCTURE
     1 T80         1 TEMP              0 ****  ****    0 ROOT
