@<TRIPOS>MOLECULE
T80
   94    93     1     0     0
SMALL
bcc


@<TRIPOS>ATOM
      1 C1         -1.7780   -1.6840   -1.4030 c3        1 T80      0.118700
      2 O2         -1.4790   -0.3740   -0.9520 os        1 T80     -0.425600
      3 C3         -0.4470   -0.3630    0.0330 c3        1 T80      0.125400
      4 C4         -0.2370    1.1020    0.3990 c3        1 T80      0.128400
      5 O5          0.7330    1.1060    1.4440 os        1 T80     -0.430600
      6 C6          1.0260    2.4270    1.8970 c3        1 T80      0.129400
      7 C7          2.1740    2.2960    2.8920 c3        1 T80      0.127400
      8 O8          3.3300    2.8310    2.2500 os        1 T80     -0.428600
      9 C9          4.5170    2.6200    3.0110 c3        1 T80      0.127400
     10 C10         5.6290    3.3830    2.2980 c3        1 T80      0.127400
     11 O11         5.9050    4.5340    3.0940 os        1 T80     -0.429600
     12 C12         6.8150    5.4260    2.4540 c3        1 T80      0.127400
     13 C13         7.1670    6.4960    3.4830 c3        1 T80      0.127400
     14 O14         8.5100    6.2380    3.8890 os        1 T80     -0.426600
     15 C15         8.9120    7.0610    4.9810 c3        1 T80      0.125400
     16 C16        10.3940    6.7930    5.2070 c3        1 T80      0.136400
     17 O17        11.0990    7.8390    4.5210 os        1 T80     -0.445900
     18 C18        12.4590    7.7120    4.4370 c         1 T80      0.633100
     19 O19        12.9890    6.7430    4.9850 o         1 T80     -0.542000
     20 C20        13.0910    8.8150    3.6480 c3        1 T80     -0.127400
     21 C21        14.4510    9.1750    4.2070 c3        1 T80     -0.079400
     22 C22        15.1440   10.1890    3.3220 c3        1 T80     -0.078400
     23 C23        16.4980   10.5660    3.8840 c3        1 T80     -0.079400
     24 C24        17.1970   11.5750    2.9980 c3        1 T80     -0.079400
     25 C25        18.5520   11.9510    3.5580 c3        1 T80     -0.079400
     26 C26        19.2520   12.9590    2.6720 c3        1 T80     -0.079400
     27 C27        20.6080   13.3340    3.2300 c3        1 T80     -0.079400
     28 C28        21.3080   14.3410    2.3430 c3        1 T80     -0.079400
     29 C29        22.6650   14.7140    2.9000 c3        1 T80     -0.079400
     30 C30        23.3660   15.7200    2.0130 c3        1 T80     -0.079400
     31 C31        24.7230   16.0930    2.5690 c3        1 T80     -0.079400
     32 C32        25.4240   17.0990    1.6810 c3        1 T80     -0.079400
     33 C33        26.7820   17.4710    2.2370 c3        1 T80     -0.079400
     34 C34        27.4830   18.4760    1.3490 c3        1 T80     -0.079400
     35 C35        28.8410   18.8490    1.9030 c3        1 T80     -0.080400
     36 C36        29.5430   19.8500    1.0220 c3        1 T80     -0.092100
     37 H11        -2.1370   -2.3210   -0.5570 h1        1 T80      0.033700
     38 H12        -2.5910   -1.5390   -2.1580 h1        1 T80      0.033700
     39 H13        -0.8800   -2.1520   -1.8780 h1        1 T80      0.033700
     40 H31        -0.7660   -0.9550    0.9300 h1        1 T80      0.039700
     41 H32         0.4930   -0.8060   -0.3880 h1        1 T80      0.039700
     42 H41         0.1430    1.6820   -0.4830 h1        1 T80      0.040700
     43 H42        -1.1940    1.5620    0.7600 h1        1 T80      0.040700
     44 H61         0.1180    2.8530    2.3990 h1        1 T80      0.044700
     45 H62         1.3210    3.0780    1.0310 h1        1 T80      0.044700
     46 H71         2.3440    1.2210    3.1660 h1        1 T80      0.043700
     47 H72         1.9600    2.8920    3.8180 h1        1 T80      0.043700
     48 H91         4.3800    3.0000    4.0580 h1        1 T80      0.043700
     49 H92         4.7490    1.5220    3.0350 h1        1 T80      0.043700
     50 H101        6.5550    2.7520    2.2310 h1        1 T80      0.044200
     51 H102        5.3050    3.6900    1.2690 h1        1 T80      0.044200
     52 H121        6.3120    5.8900    1.5650 h1        1 T80      0.044700
     53 H122        7.7340    4.8740    2.1230 h1        1 T80      0.044700
     54 H131        6.4760    6.4420    4.3660 h1        1 T80      0.043700
     55 H132        7.1120    7.5170    3.0220 h1        1 T80      0.043700
     56 H151        8.7310    8.1420    4.7390 h1        1 T80      0.044200
     57 H152        8.3280    6.7750    5.8960 h1        1 T80      0.044200
     58 H161       10.7010    5.7970    4.7920 h1        1 T80      0.067200
     59 H162       10.6500    6.8480    6.2960 h1        1 T80      0.067200
     60 H201       12.4160    9.7110    3.6440 hc        1 T80      0.078200
     61 H202       13.1870    8.4540    2.5880 hc        1 T80      0.078200
     62 H211       15.0780    8.2470    4.2930 hc        1 T80      0.057200
     63 H212       14.3350    9.5920    5.2420 hc        1 T80      0.057200
     64 H221       14.5060   11.1070    3.2290 hc        1 T80      0.040700
     65 H222       15.2700    9.7660    2.2910 hc        1 T80      0.040700
     66 H231       16.3730   10.9920    4.9140 hc        1 T80      0.042700
     67 H232       17.1340    9.6470    3.9820 hc        1 T80      0.042700
     68 H241       16.5620   12.4950    2.9010 hc        1 T80      0.039700
     69 H242       17.3210   11.1490    1.9680 hc        1 T80      0.039700
     70 H251       19.1870   11.0310    3.6560 hc        1 T80      0.040200
     71 H252       18.4280   12.3780    4.5880 hc        1 T80      0.040200
     72 H261       18.6180   13.8800    2.5750 hc        1 T80      0.039700
     73 H262       19.3740   12.5330    1.6410 hc        1 T80      0.039700
     74 H271       21.2420   12.4130    3.3270 hc        1 T80      0.039700
     75 H272       20.4860   13.7610    4.2600 hc        1 T80      0.039700
     76 H281       21.4290   13.9140    1.3120 hc        1 T80      0.039700
     77 H282       20.6750   15.2620    2.2470 hc        1 T80      0.039700
     78 H291       22.5440   15.1410    3.9300 hc        1 T80      0.039700
     79 H292       23.2990   13.7930    2.9970 hc        1 T80      0.039700
     80 H301       23.4860   15.2940    0.9820 hc        1 T80      0.039700
     81 H302       22.7330   16.6420    1.9170 hc        1 T80      0.039700
     82 H311       24.6030   16.5200    3.5990 hc        1 T80      0.039700
     83 H312       25.3560   15.1710    2.6650 hc        1 T80      0.039700
     84 H321       24.7910   18.0210    1.5850 hc        1 T80      0.039700
     85 H322       25.5430   16.6720    0.6500 hc        1 T80      0.039700
     86 H331       26.6620   17.8980    3.2670 hc        1 T80      0.039700
     87 H332       27.4140   16.5490    2.3320 hc        1 T80      0.039700
     88 H341       26.8510   19.3980    1.2530 hc        1 T80      0.039700
     89 H342       27.6020   18.0500    0.3180 hc        1 T80      0.039700
     90 H351       29.4710   17.9250    2.0000 hc        1 T80      0.038700
     91 H352       28.7200   19.2740    2.9350 hc        1 T80      0.038700
     92 H361       29.6950   19.4350   -0.0030 hc        1 T80      0.032700
     93 H362       28.9410   20.7870    0.9340 hc        1 T80      0.032700
     94 H363       30.5410   20.1110    1.4490 hc        1 T80      0.032700
@<TRIPOS>BOND
     1    1    2 1   
     2    1   37 1   
     3    1   38 1   
     4    1   39 1   
     5    2    3 1   
     6    3    4 1   
     7    3   40 1   
     8    3   41 1   
     9    4    5 1   
    10    4   42 1   
    11    4   43 1   
    12    5    6 1   
    13    6    7 1   
    14    6   44 1   
    15    6   45 1   
    16    7    8 1   
    17    7   46 1   
    18    7   47 1   
    19    8    9 1   
    20    9   10 1   
    21    9   48 1   
    22    9   49 1   
    23   10   11 1   
    24   10   50 1   
    25   10   51 1   
    26   11   12 1   
    27   12   13 1   
    28   12   52 1   
    29   12   53 1   
    30   13   14 1   
    31   13   54 1   
    32   13   55 1   
    33   14   15 1   
    34   15   16 1   
    35   15   56 1   
    36   15   57 1   
    37   16   17 1   
    38   16   58 1   
    39   16   59 1   
    40   17   18 1   
    41   18   19 2   
    42   18   20 1   
    43   20   21 1   
    44   20   60 1   
    45   20   61 1   
    46   21   22 1   
    47   21   62 1   
    48   21   63 1   
    49   22   23 1   
    50   22   64 1   
    51   22   65 1   
    52   23   24 1   
    53   23   66 1   
    54   23   67 1   
    55   24   25 1   
    56   24   68 1   
    57   24   69 1   
    58   25   26 1   
    59   25   70 1   
    60   25   71 1   
    61   26   27 1   
    62   26   72 1   
    63   26   73 1   
    64   27   28 1   
    65   27   74 1   
    66   27   75 1   
    67   28   29 1   
    68   28   76 1   
    69   28   77 1   
    70   29   30 1   
    71   29   78 1   
    72   29   79 1   
    73   30   31 1   
    74   30   80 1   
    75   30   81 1   
    76   31   32 1   
    77   31   82 1   
    78   31   83 1   
    79   32   33 1   
    80   32   84 1   
    81   32   85 1   
    82   33   34 1   
    83   33   86 1   
    84   33   87 1   
    85   34   35 1   
    86   34   88 1   
    87   34   89 1   
    88   35   36 1   
    89   35   90 1   
    90   35   91 1   
    91   36   92 1   
    92   36   93 1   
    93   36   94 1   
@<TRIPOS>SUBSTRUCTURE
     1 T80         1 TEMP              0 ****  ****    0 ROOT
