@<TRIPOS>MOLECULE
T80
   94    93     1     0     0
SMALL
bcc


@<TRIPOS>ATOM
      1 C1         -1.7110   -6.8950  -17.0660 c3        1 T80      0.117700
      2 O2         -0.7750   -5.8590  -16.8030 os        1 T80     -0.424600
      3 C3         -1.1960   -4.9470  -15.7950 c3        1 T80      0.123400
      4 C4         -0.2020   -3.7500  -15.7250 c3        1 T80      0.129400
      5 O5         -0.0760   -3.3220  -14.3760 os        1 T80     -0.429600
      6 C6          0.5750   -2.0690  -14.2240 c3        1 T80      0.128400
      7 C7          1.0110   -1.8900  -12.7530 c3        1 T80      0.130400
      8 O8          1.2000   -0.5190  -12.4840 os        1 T80     -0.430600
      9 C9          2.1090   -0.2590  -11.4190 c3        1 T80      0.130400
     10 C10         1.8240    1.1180  -10.8330 c3        1 T80      0.128400
     11 O11         1.9750    1.0680   -9.4080 os        1 T80     -0.429600
     12 C12         1.8620    2.3470   -8.7630 c3        1 T80      0.128400
     13 C13         1.6200    2.1360   -7.2220 c3        1 T80      0.122400
     14 O14         1.5870    3.4150   -6.5570 os        1 T80     -0.422600
     15 C15         0.5650    3.5180   -5.5620 c3        1 T80      0.126400
     16 C16         1.1350    4.2370   -4.2920 c3        1 T80      0.100400
     17 O17         0.4900    3.7270   -3.1300 os        1 T80     -0.452900
     18 C18         0.8540    4.3890   -1.9350 c         1 T80      0.631100
     19 O19         1.8460    5.0890   -1.9070 o         1 T80     -0.539000
     20 C20        -0.0560    4.3090   -0.7140 c3        1 T80     -0.127400
     21 C21         0.7770    3.8480    0.5330 c3        1 T80     -0.079400
     22 C22        -0.1730    3.2640    1.6020 c3        1 T80     -0.078400
     23 C23         0.6260    2.9730    2.9000 c3        1 T80     -0.079400
     24 C24        -0.2230    2.0830    3.8380 c3        1 T80     -0.079400
     25 C25         0.4620    1.9820    5.2260 c3        1 T80     -0.079400
     26 C26        -0.2240    0.8590    6.0590 c3        1 T80     -0.079400
     27 C27         0.0560    1.0890    7.5780 c3        1 T80     -0.079400
     28 C28        -0.3390   -0.1710    8.3690 c3        1 T80     -0.079400
     29 C29        -0.5950    0.2080    9.8480 c3        1 T80     -0.079400
     30 C30        -0.5780   -1.0640   10.7170 c3        1 T80     -0.079400
     31 C31        -1.2590   -0.7670   12.0770 c3        1 T80     -0.079400
     32 C32        -0.8180   -1.8260   13.1210 c3        1 T80     -0.079400
     33 C33        -1.7340   -1.7470   14.3480 c3        1 T80     -0.079400
     34 C34        -1.0750   -2.4640   15.5220 c3        1 T80     -0.079400
     35 C35        -2.0750   -2.6100   16.6500 c3        1 T80     -0.080400
     36 C36        -1.3500   -2.9410   17.9260 c3        1 T80     -0.092100
     37 H11        -2.1200   -7.1960  -16.2140 h1        1 T80      0.033367
     38 H12        -2.4180   -6.5560  -17.6680 h1        1 T80      0.033367
     39 H13        -1.2520   -7.6510  -17.4930 h1        1 T80      0.033367
     40 H31        -1.2150   -5.4050  -14.9300 h1        1 T80      0.042700
     41 H32        -2.0940   -4.6150  -16.0080 h1        1 T80      0.042700
     42 H41         0.6790   -4.0320  -16.0640 h1        1 T80      0.044700
     43 H42        -0.5400   -3.0140  -16.2710 h1        1 T80      0.044700
     44 H61         1.3670   -2.0370  -14.8070 h1        1 T80      0.041200
     45 H62        -0.0400   -1.3510  -14.4700 h1        1 T80      0.041200
     46 H71         0.3210   -2.2450  -12.1640 h1        1 T80      0.041700
     47 H72         1.8560   -2.3750  -12.5990 h1        1 T80      0.041700
     48 H91         3.0290   -0.2850  -11.7610 h1        1 T80      0.041700
     49 H92         2.0010   -0.9330  -10.7290 h1        1 T80      0.041700
     50 H101        0.9090    1.3840  -11.0550 h1        1 T80      0.040700
     51 H102        2.4560    1.7710  -11.2080 h1        1 T80      0.040700
     52 H121        1.1090    2.8410   -9.1470 h1        1 T80      0.043700
     53 H122        2.6950    2.8590   -8.8990 h1        1 T80      0.043700
     54 H131        2.3470    1.5910   -6.8480 h1        1 T80      0.050700
     55 H132        0.7590    1.6730   -7.0860 h1        1 T80      0.050700
     56 H151        0.2550    2.6160   -5.3170 h1        1 T80      0.063200
     57 H152       -0.1880    4.0350   -5.9200 h1        1 T80      0.063200
     58 H161        2.1040    4.0720   -4.2290 h1        1 T80      0.064200
     59 H162        0.9680    5.2180   -4.3610 h1        1 T80      0.064200
     60 H201       -0.4500    5.2030   -0.5370 hc        1 T80      0.077700
     61 H202       -0.7790    3.6600   -0.8860 hc        1 T80      0.077700
     62 H211        1.2600    4.6210    0.9100 hc        1 T80      0.058200
     63 H212        1.4230    3.1610    0.2590 hc        1 T80      0.058200
     64 H221       -0.5680    2.4320    1.2690 hc        1 T80      0.041200
     65 H222       -0.8830    3.9070    1.7940 hc        1 T80      0.041200
     66 H231        0.8370    3.8250    3.3550 hc        1 T80      0.042700
     67 H232        1.4570    2.5090    2.6750 hc        1 T80      0.042700
     68 H241       -1.1100    2.4760    3.9430 hc        1 T80      0.039700
     69 H242       -0.3060    1.1880    3.4500 hc        1 T80      0.039700
     70 H251        1.3990    1.7710    5.1090 hc        1 T80      0.040200
     71 H252        0.3760    2.8340    5.6950 hc        1 T80      0.040200
     72 H261        0.1370   -0.0180    5.7870 hc        1 T80      0.039700
     73 H262       -1.1960    0.8790    5.8980 hc        1 T80      0.039700
     74 H271       -0.4650    1.8440    7.8920 hc        1 T80      0.039700
     75 H272        1.0150    1.2730    7.7120 hc        1 T80      0.039700
     76 H281        0.3760   -0.8190    8.3200 hc        1 T80      0.039700
     77 H282       -1.1390   -0.5470    7.9910 hc        1 T80      0.039700
     78 H291       -1.4620    0.6410    9.9260 hc        1 T80      0.039700
     79 H292        0.0970    0.8140   10.1500 hc        1 T80      0.039700
     80 H301        0.3380   -1.3400   10.8680 hc        1 T80      0.039700
     81 H302       -1.0660   -1.7850   10.2560 hc        1 T80      0.039700
     82 H311       -2.2240   -0.8000   11.9690 hc        1 T80      0.039700
     83 H312       -0.9940    0.1300   12.3870 hc        1 T80      0.039700
     84 H321        0.1070   -1.6510   13.3920 hc        1 T80      0.039700
     85 H322       -0.8790   -2.7240   12.7240 hc        1 T80      0.039700
     86 H331       -2.5930   -2.1760   14.1440 hc        1 T80      0.039700
     87 H332       -1.8860   -0.8050   14.5830 hc        1 T80      0.039700
     88 H341       -0.3000   -1.9380   15.8350 hc        1 T80      0.039700
     89 H342       -0.7720   -3.3550   15.2330 hc        1 T80      0.039700
     90 H351       -2.7040   -3.3290   16.4370 hc        1 T80      0.038700
     91 H352       -2.5650   -1.7700   16.7620 hc        1 T80      0.038700
     92 H361       -0.7490   -2.2130   18.1550 hc        1 T80      0.032700
     93 H362       -1.9980   -3.0670   18.6440 hc        1 T80      0.032700
     94 H363       -0.8400   -3.7540   17.8050 hc        1 T80      0.032700
@<TRIPOS>BOND
     1    1    2 1   
     2    1   37 1   
     3    1   38 1   
     4    1   39 1   
     5    2    3 1   
     6    3    4 1   
     7    3   40 1   
     8    3   41 1   
     9    4    5 1   
    10    4   42 1   
    11    4   43 1   
    12    5    6 1   
    13    6    7 1   
    14    6   44 1   
    15    6   45 1   
    16    7    8 1   
    17    7   46 1   
    18    7   47 1   
    19    8    9 1   
    20    9   10 1   
    21    9   48 1   
    22    9   49 1   
    23   10   11 1   
    24   10   50 1   
    25   10   51 1   
    26   11   12 1   
    27   12   13 1   
    28   12   52 1   
    29   12   53 1   
    30   13   14 1   
    31   13   54 1   
    32   13   55 1   
    33   14   15 1   
    34   15   16 1   
    35   15   56 1   
    36   15   57 1   
    37   16   17 1   
    38   16   58 1   
    39   16   59 1   
    40   17   18 1   
    41   18   19 2   
    42   18   20 1   
    43   20   21 1   
    44   20   60 1   
    45   20   61 1   
    46   21   22 1   
    47   21   62 1   
    48   21   63 1   
    49   22   23 1   
    50   22   64 1   
    51   22   65 1   
    52   23   24 1   
    53   23   66 1   
    54   23   67 1   
    55   24   25 1   
    56   24   68 1   
    57   24   69 1   
    58   25   26 1   
    59   25   70 1   
    60   25   71 1   
    61   26   27 1   
    62   26   72 1   
    63   26   73 1   
    64   27   28 1   
    65   27   74 1   
    66   27   75 1   
    67   28   29 1   
    68   28   76 1   
    69   28   77 1   
    70   29   30 1   
    71   29   78 1   
    72   29   79 1   
    73   30   31 1   
    74   30   80 1   
    75   30   81 1   
    76   31   32 1   
    77   31   82 1   
    78   31   83 1   
    79   32   33 1   
    80   32   84 1   
    81   32   85 1   
    82   33   34 1   
    83   33   86 1   
    84   33   87 1   
    85   34   35 1   
    86   34   88 1   
    87   34   89 1   
    88   35   36 1   
    89   35   90 1   
    90   35   91 1   
    91   36   92 1   
    92   36   93 1   
    93   36   94 1   
@<TRIPOS>SUBSTRUCTURE
     1 T80         1 TEMP              0 ****  ****    0 ROOT
