@<TRIPOS>MOLECULE
T80
   94    93     1     0     0
SMALL
bcc


@<TRIPOS>ATOM
      1 C1         -2.3650   -1.8320    0.2910 c3        1 T80      0.117700
      2 O2         -1.9410   -0.4810    0.3280 os        1 T80     -0.425600
      3 C3         -0.5880   -0.3200   -0.0960 c3        1 T80      0.123400
      4 C4         -0.2280    1.1420    0.1480 c3        1 T80      0.127400
      5 O5          0.7190    1.1520    1.2150 os        1 T80     -0.429600
      6 C6          1.0150    2.4740    1.6610 c3        1 T80      0.127400
      7 C7          2.1560    2.3470    2.6650 c3        1 T80      0.127400
      8 O8          3.3240    2.8470    2.0170 os        1 T80     -0.429600
      9 C9          4.5030    2.6350    2.7900 c3        1 T80      0.127400
     10 C10         5.6310    3.3660    2.0700 c3        1 T80      0.127400
     11 O11         5.9210    4.5270    2.8450 os        1 T80     -0.429600
     12 C12         6.8520    5.3910    2.1960 c3        1 T80      0.127400
     13 C13         7.2130    6.4750    3.2060 c3        1 T80      0.127400
     14 O14         8.5500    6.2050    3.6270 os        1 T80     -0.426600
     15 C15         8.9530    7.0360    4.7130 c3        1 T80      0.125400
     16 C16        10.4290    6.7520    4.9540 c3        1 T80      0.136400
     17 O17        11.1520    7.7890    4.2710 os        1 T80     -0.445900
     18 C18        12.5130    7.6530    4.2110 c         1 T80      0.633100
     19 O19        13.0270    6.6840    4.7730 o         1 T80     -0.542000
     20 C20        13.1650    8.7470    3.4260 c3        1 T80     -0.127400
     21 C21        14.5010    9.1270    4.0290 c3        1 T80     -0.079400
     22 C22        15.2180   10.1330    3.1530 c3        1 T80     -0.078400
     23 C23        16.5470   10.5320    3.7600 c3        1 T80     -0.079400
     24 C24        17.2700   11.5330    2.8850 c3        1 T80     -0.079400
     25 C25        18.5970   11.9340    3.4920 c3        1 T80     -0.079400
     26 C26        19.3210   12.9350    2.6180 c3        1 T80     -0.079400
     27 C27        20.6490   13.3350    3.2250 c3        1 T80     -0.079400
     28 C28        21.3720   14.3370    2.3510 c3        1 T80     -0.079400
     29 C29        22.7000   14.7380    2.9570 c3        1 T80     -0.079400
     30 C30        23.4240   15.7390    2.0830 c3        1 T80     -0.079400
     31 C31        24.7520   16.1400    2.6900 c3        1 T80     -0.079400
     32 C32        25.4750   17.1420    1.8160 c3        1 T80     -0.079400
     33 C33        26.8030   17.5420    2.4230 c3        1 T80     -0.079400
     34 C34        27.5270   18.5440    1.5490 c3        1 T80     -0.079400
     35 C35        28.8550   18.9450    2.1550 c3        1 T80     -0.080400
     36 C36        29.5800   19.9420    1.2880 c3        1 T80     -0.092100
     37 H11        -1.7480   -2.4590    0.9810 h1        1 T80      0.032700
     38 H12        -3.4290   -1.8000    0.6350 h1        1 T80      0.032700
     39 H13        -2.3020   -2.2370   -0.7500 h1        1 T80      0.032700
     40 H31         0.0860   -1.0000    0.4900 h1        1 T80      0.042700
     41 H32        -0.5130   -0.5660   -1.1880 h1        1 T80      0.042700
     42 H41         0.2430    1.5900   -0.7660 h1        1 T80      0.043200
     43 H42        -1.1390    1.7340    0.4310 h1        1 T80      0.043200
     44 H61         0.1060    2.9090    2.1540 h1        1 T80      0.043700
     45 H62         1.3170    3.1180    0.7930 h1        1 T80      0.043700
     46 H71         2.3060    1.2760    2.9640 h1        1 T80      0.043700
     47 H72         1.9460    2.9670    3.5760 h1        1 T80      0.043700
     48 H91         4.3650    3.0390    3.8280 h1        1 T80      0.043700
     49 H92         4.7180    1.5350    2.8390 h1        1 T80      0.043700
     50 H101        6.5460    2.7190    2.0190 h1        1 T80      0.044200
     51 H102        5.3170    3.6590    1.0330 h1        1 T80      0.044200
     52 H121        6.3640    5.8450    1.2930 h1        1 T80      0.044700
     53 H122        7.7640    4.8170    1.8840 h1        1 T80      0.044700
     54 H131        6.5160    6.4490    4.0850 h1        1 T80      0.043700
     55 H132        7.1780    7.4870    2.7250 h1        1 T80      0.043700
     56 H151        8.7870    8.1160    4.4570 h1        1 T80      0.044200
     57 H152        8.3580    6.7670    5.6260 h1        1 T80      0.044200
     58 H161       10.7300    5.7520    4.5450 h1        1 T80      0.067700
     59 H162       10.6760    6.8080    6.0450 h1        1 T80      0.067700
     60 H201       12.4840    9.6380    3.3810 hc        1 T80      0.078200
     61 H202       13.3030    8.3680    2.3770 hc        1 T80      0.078200
     62 H211       15.1300    8.2060    4.1530 hc        1 T80      0.057200
     63 H212       14.3430    9.5600    5.0510 hc        1 T80      0.057200
     64 H221       14.5770   11.0430    3.0190 hc        1 T80      0.040700
     65 H222       15.3870    9.6930    2.1350 hc        1 T80      0.040700
     66 H231       16.3780   10.9730    4.7780 hc        1 T80      0.042700
     67 H232       17.1860    9.6200    3.8970 hc        1 T80      0.042700
     68 H241       16.6290   12.4440    2.7480 hc        1 T80      0.039700
     69 H242       17.4390   11.0910    1.8680 hc        1 T80      0.039700
     70 H251       19.2380   11.0230    3.6300 hc        1 T80      0.040200
     71 H252       18.4280   12.3750    4.5100 hc        1 T80      0.040200
     72 H261       18.6810   13.8460    2.4800 hc        1 T80      0.039700
     73 H262       19.4900   12.4930    1.6010 hc        1 T80      0.039700
     74 H271       21.2890   12.4250    3.3620 hc        1 T80      0.039700
     75 H272       20.4790   13.7770    4.2420 hc        1 T80      0.039700
     76 H281       21.5420   13.8960    1.3330 hc        1 T80      0.039700
     77 H282       20.7320   15.2480    2.2130 hc        1 T80      0.039700
     78 H291       22.5310   15.1790    3.9750 hc        1 T80      0.039700
     79 H292       23.3410   13.8270    3.0950 hc        1 T80      0.039700
     80 H301       23.5930   15.2980    1.0660 hc        1 T80      0.039700
     81 H302       22.7830   16.6500    1.9460 hc        1 T80      0.039700
     82 H311       24.5820   16.5810    3.7080 hc        1 T80      0.039700
     83 H312       25.3920   15.2290    2.8280 hc        1 T80      0.039700
     84 H321       24.8350   18.0520    1.6790 hc        1 T80      0.039700
     85 H322       25.6450   16.7000    0.7990 hc        1 T80      0.039700
     86 H331       26.6340   17.9830    3.4400 hc        1 T80      0.039700
     87 H332       27.4440   16.6310    2.5610 hc        1 T80      0.039700
     88 H341       26.8870   19.4550    1.4120 hc        1 T80      0.039700
     89 H342       27.6960   18.1020    0.5320 hc        1 T80      0.039700
     90 H351       29.4930   18.0320    2.2930 hc        1 T80      0.038700
     91 H352       28.6840   19.3840    3.1730 hc        1 T80      0.038700
     92 H361       29.7810   19.5130    0.2770 hc        1 T80      0.032700
     93 H362       28.9700   20.8690    1.1590 hc        1 T80      0.032700
     94 H363       30.5550   20.2240    1.7530 hc        1 T80      0.032700
@<TRIPOS>BOND
     1    1    2 1   
     2    1   37 1   
     3    1   38 1   
     4    1   39 1   
     5    2    3 1   
     6    3    4 1   
     7    3   40 1   
     8    3   41 1   
     9    4    5 1   
    10    4   42 1   
    11    4   43 1   
    12    5    6 1   
    13    6    7 1   
    14    6   44 1   
    15    6   45 1   
    16    7    8 1   
    17    7   46 1   
    18    7   47 1   
    19    8    9 1   
    20    9   10 1   
    21    9   48 1   
    22    9   49 1   
    23   10   11 1   
    24   10   50 1   
    25   10   51 1   
    26   11   12 1   
    27   12   13 1   
    28   12   52 1   
    29   12   53 1   
    30   13   14 1   
    31   13   54 1   
    32   13   55 1   
    33   14   15 1   
    34   15   16 1   
    35   15   56 1   
    36   15   57 1   
    37   16   17 1   
    38   16   58 1   
    39   16   59 1   
    40   17   18 1   
    41   18   19 2   
    42   18   20 1   
    43   20   21 1   
    44   20   60 1   
    45   20   61 1   
    46   21   22 1   
    47   21   62 1   
    48   21   63 1   
    49   22   23 1   
    50   22   64 1   
    51   22   65 1   
    52   23   24 1   
    53   23   66 1   
    54   23   67 1   
    55   24   25 1   
    56   24   68 1   
    57   24   69 1   
    58   25   26 1   
    59   25   70 1   
    60   25   71 1   
    61   26   27 1   
    62   26   72 1   
    63   26   73 1   
    64   27   28 1   
    65   27   74 1   
    66   27   75 1   
    67   28   29 1   
    68   28   76 1   
    69   28   77 1   
    70   29   30 1   
    71   29   78 1   
    72   29   79 1   
    73   30   31 1   
    74   30   80 1   
    75   30   81 1   
    76   31   32 1   
    77   31   82 1   
    78   31   83 1   
    79   32   33 1   
    80   32   84 1   
    81   32   85 1   
    82   33   34 1   
    83   33   86 1   
    84   33   87 1   
    85   34   35 1   
    86   34   88 1   
    87   34   89 1   
    88   35   36 1   
    89   35   90 1   
    90   35   91 1   
    91   36   92 1   
    92   36   93 1   
    93   36   94 1   
@<TRIPOS>SUBSTRUCTURE
     1 T80         1 TEMP              0 ****  ****    0 ROOT
