@<TRIPOS>MOLECULE
T87
   71    75     1     0     0
SMALL
bcc


@<TRIPOS>ATOM
      1 N1          1.0340   -1.3370   -0.9790 n2        1 T87     -0.685100
      2 N2          0.5510    1.1070   -0.9400 n4        1 T87     -0.899600
      3 C1          1.2760   -0.1880   -0.5100 ce        1 T87      0.656800
      4 C2          2.2580    0.1410    0.5340 ca        1 T87     -0.297900
      5 C3          2.1190   -0.4120    1.8150 ca        1 T87     -0.038000
      6 C4          3.0280   -0.1030    2.8120 ca        1 T87     -0.186500
      7 C5          4.1270    0.7600    2.5540 ca        1 T87      0.248600
      8 C6          4.2650    1.2880    1.2350 ca        1 T87     -0.186500
      9 C7          3.3490    0.9770    0.2490 ca        1 T87     -0.038000
     10 N           5.1050    1.0310    3.4980 nh        1 T87     -0.704600
     11 C           4.8700    0.8470    4.9050 c3        1 T87      0.183500
     12 N3          3.1100    2.6810    4.8510 nc        1 T87     -0.582100
     13 C8          3.8930    1.8150    5.5270 cd        1 T87      0.348800
     14 N9          3.7030    1.8760    6.9290 na        1 T87     -0.154300
     15 C3A         2.7410    2.8730    7.1470 ca        1 T87     -0.062200
     16 C7A         2.3710    3.3660    5.8330 ca        1 T87      0.057400
     17 C10         2.1500    3.3920    8.3060 ca        1 T87     -0.136000
     18 C11         1.1990    4.3860    8.1530 ca        1 T87     -0.090000
     19 C12         0.8170    4.8700    6.8780 ca        1 T87     -0.058300
     20 C13         1.4040    4.3760    5.7180 ca        1 T87     -0.064000
     21 C14         4.4350    1.1550    7.9140 c3        1 T87      0.026600
     22 C9         -1.6770    5.4810    6.9290 cx        1 T87     -0.102400
     23 C15        -1.1630    5.9820    5.6200 cx        1 T87     -0.102400
     24 C16        -0.2280    5.9150    6.8090 cx        1 T87     -0.140000
     25 C17         0.1940    7.1950    7.4500 ce        1 T87      0.354300
     26 N4         -0.1560    7.6550    8.6220 n2        1 T87     -0.425200
     27 N5          0.7740    8.4570    5.4290 nb        1 T87     -0.656000
     28 C18         1.1500    8.0330    6.6620 ca        1 T87      0.379000
     29 C19         2.4000    8.3520    7.2350 ca        1 T87     -0.209300
     30 C20         3.2940    9.1330    6.5000 ca        1 T87     -0.095000
     31 C21         2.9220    9.5750    5.2310 ca        1 T87     -0.236300
     32 C22         1.6530    9.2090    4.7440 ca        1 T87      0.391200
     33 OH         -0.9940    6.9120    9.3310 os        1 T87     -0.163300
     34 C23        -1.2660    7.4480   10.6400 c3        1 T87      0.098400
     35 C24        -0.1380    7.2200   11.6070 c         1 T87      0.607100
     36 O2          0.0370    7.7970   12.6810 o         1 T87     -0.528000
     37 O3          0.7390    6.2470   11.2290 os        1 T87     -0.435900
     38 C25         2.5690    4.7980   11.5810 c3        1 T87     -0.105100
     39 C26         1.8340    5.9940   12.1330 c3        1 T87      0.135400
     40 HN1         0.3370   -1.5300   -1.6630 hn        1 T87      0.457400
     41 HN21        1.2600    1.8110   -1.1690 hn        1 T87      0.452467
     42 HN22        0.0070    1.4480   -0.1420 hn        1 T87      0.452467
     43 HC3         1.2830   -1.0960    2.0340 ha        1 T87      0.139000
     44 HC4         2.8790   -0.5310    3.8160 ha        1 T87      0.158500
     45 HC6         5.1130    1.9490    0.9940 ha        1 T87      0.158500
     46 HC7         3.4990    1.3750   -0.7670 ha        1 T87      0.139000
     47 HN          5.6760    1.8250    3.2840 hn        1 T87      0.431800
     48 H1C         4.5010   -0.2040    5.0900 h1        1 T87      0.083200
     49 H2C         5.8680    0.9610    5.4250 h1        1 T87      0.083200
     50 H10C        2.4320    3.0300    9.3050 ha        1 T87      0.143000
     51 H11C        0.7260    4.8280    9.0500 ha        1 T87      0.168000
     52 H13C        1.1280    4.7680    4.7290 ha        1 T87      0.148000
     53 H141        5.4860    1.5480    7.9910 h1        1 T87      0.057700
     54 H142        3.9300    1.2620    8.9110 h1        1 T87      0.057700
     55 H143        4.4750    0.0670    7.6350 h1        1 T87      0.057700
     56 HC91       -1.8890    4.4040    7.0530 hc        1 T87      0.080950
     57 HC92       -2.3700    6.1090    7.5190 hc        1 T87      0.080950
     58 H151       -1.4850    6.9750    5.2560 hc        1 T87      0.080950
     59 H152       -1.0130    5.2680    4.7910 hc        1 T87      0.080950
     60 H19C        2.6560    7.9970    8.2430 ha        1 T87      0.156000
     61 H20C        4.2740    9.4010    6.9230 ha        1 T87      0.145000
     62 H21C        3.5920   10.1970    4.6240 ha        1 T87      0.148000
     63 H22         1.3120    9.5450    3.7480 h4        1 T87      0.022100
     64 H231       -1.5040    8.5440   10.6060 h1        1 T87      0.102700
     65 H232       -2.1620    6.8510   10.9670 h1        1 T87      0.102700
     66 H251        3.4800    4.6140   12.2000 hc        1 T87      0.047033
     67 H252        2.8730    4.9780   10.5210 hc        1 T87      0.047033
     68 H253        1.9190    3.8910   11.6080 hc        1 T87      0.047033
     69 H261        2.4820    6.9090   12.1640 h1        1 T87      0.058200
     70 H262        1.4240    5.7980   13.1580 h1        1 T87      0.058200
     71 H23        -0.0680    0.9790   -1.7400 hn        1 T87      0.452467
@<TRIPOS>BOND
     1    1    3 2   
     2    1   40 1   
     3    2    3 1   
     4    2   41 1   
     5    2   42 1   
     6    2   71 1   
     7    3    4 1   
     8    4    5 ar  
     9    4    9 ar  
    10    5    6 ar  
    11    5   43 1   
    12    6    7 ar  
    13    6   44 1   
    14    7    8 ar  
    15    7   10 1   
    16    8    9 ar  
    17    8   45 1   
    18    9   46 1   
    19   10   11 1   
    20   10   47 1   
    21   11   13 1   
    22   11   48 1   
    23   11   49 1   
    24   12   13 2   
    25   12   16 1   
    26   13   14 1   
    27   14   15 1   
    28   14   21 1   
    29   15   16 ar  
    30   15   17 ar  
    31   16   20 ar  
    32   17   18 ar  
    33   17   50 1   
    34   18   19 ar  
    35   18   51 1   
    36   19   20 ar  
    37   19   24 1   
    38   20   52 1   
    39   21   53 1   
    40   21   54 1   
    41   21   55 1   
    42   22   23 1   
    43   22   24 1   
    44   22   56 1   
    45   22   57 1   
    46   23   24 1   
    47   23   58 1   
    48   23   59 1   
    49   24   25 1   
    50   25   26 2   
    51   25   28 1   
    52   26   33 1   
    53   27   28 ar  
    54   27   32 ar  
    55   28   29 ar  
    56   29   30 ar  
    57   29   60 1   
    58   30   31 ar  
    59   30   61 1   
    60   31   32 ar  
    61   31   62 1   
    62   32   63 1   
    63   33   34 1   
    64   34   35 1   
    65   34   64 1   
    66   34   65 1   
    67   35   36 2   
    68   35   37 1   
    69   37   39 1   
    70   38   39 1   
    71   38   66 1   
    72   38   67 1   
    73   38   68 1   
    74   39   69 1   
    75   39   70 1   
@<TRIPOS>SUBSTRUCTURE
     1 T87         1 TEMP              0 ****  ****    0 ROOT
