@<TRIPOS>MOLECULE
T87
   70    63     1     0     0
SMALL
bcc


@<TRIPOS>ATOM
      1 N1         -0.5980   -9.2630   -1.5040 n1        1 T87     -0.294000
      2 N2          0.0190   -9.1850    0.8010 n3        1 T87     -0.395000
      3 C1         -0.2330   -8.5440   -0.4540 c2        1 T87      0.130000
      4 C2         -0.0780   -7.0090   -0.5840 c2        1 T87     -0.091000
      5 C3         -1.2100   -6.1990   -0.6910 c2        1 T87     -0.062000
      6 C4         -1.0740   -4.8120   -0.7330 c1        1 T87     -0.183000
      7 C5          0.1920   -4.2330   -0.6680 c1        1 T87      0.065000
      8 C6          1.3230   -5.0410   -0.5610 c1        1 T87     -0.176000
      9 C7          1.1870   -6.4300   -0.5190 c1        1 T87     -0.081000
     10 N           0.3360   -2.8170   -0.8150 n3        1 T87     -0.256000
     11 C           1.3780   -2.1210   -0.1050 c3        1 T87      0.014000
     12 N3          0.0130   -0.0290   -0.4540 n2        1 T87     -0.170500
     13 C8          1.2550   -0.6030   -0.3680 c2        1 T87     -0.031000
     14 N9          2.1900    0.3910   -0.4730 n2        1 T87     -0.170500
     15 C3A         1.5290    1.5790   -0.6250 c1        1 T87     -0.048500
     16 C7A         0.1800    1.3170   -0.6130 c1        1 T87     -0.048500
     17 C10         1.9900    2.9160   -0.7410 c1        1 T87     -0.098000
     18 C11         1.0680    3.9700   -0.8450 c1        1 T87     -0.098000
     19 C12        -0.3050    3.7010   -0.8320 c1        1 T87     -0.067000
     20 C13        -0.7560    2.3870   -0.7170 c1        1 T87     -0.098000
     21 C14         3.5890    0.2390   -0.0170 c2        1 T87     -0.065000
     22 C9         -1.7940    5.5350   -0.8990 cx        1 T87     -0.182500
     23 C15        -2.5860    4.3300   -0.7990 cx        1 T87     -0.182500
     24 C16        -1.2990    4.4180    0.0020 cx        1 T87     -0.072000
     25 C17        -0.7140    4.1490    1.4000 c2        1 T87      0.029000
     26 N4         -1.2050    3.1580    2.1490 n1        1 T87     -0.047000
     27 N5          0.5010    6.3490    1.5930 n1        1 T87     -0.126000
     28 C18         0.4340    5.0220    1.9350 c1        1 T87      0.025000
     29 C19         1.4540    4.4450    2.6810 c1        1 T87     -0.146000
     30 C20         2.5250    5.2020    3.0760 c1        1 T87     -0.136500
     31 C21         2.5900    6.5320    2.7320 c1        1 T87     -0.136500
     32 C22         1.5720    7.1060    1.9870 c1        1 T87     -0.073000
     33 OH         -2.2450    2.3680    1.6660 o         1 T87     -0.187000
     34 C23        -1.9110    0.9850    1.8120 c3        1 T87     -0.004000
     35 C24        -2.5940    0.1740    0.7020 c2        1 T87      0.278000
     36 O2         -3.6100   -0.4510    0.9440 o         1 T87     -0.352000
     37 O3         -2.0020    0.0970   -0.5900 os        1 T87     -0.265000
     38 C25        -1.8410   -0.9200   -2.7710 c3        1 T87     -0.245000
     39 C26        -2.5850   -0.8860   -1.4310 c3        1 T87     -0.018000
     40 HN1        -0.6900  -10.1780   -1.4270 DU        1 T87      0.137000
     41 HN21        0.3790   -8.7050    1.4980 hn        1 T87      0.191000
     42 HN22       -0.1800  -10.0700    0.9110 hn        1 T87      0.191000
     43 HC3        -2.0960   -6.6040   -0.7360 ha        1 T87      0.149000
     44 HC4        -1.8800   -4.2360   -0.8090 ha        1 T87      0.138000
     45 HC6         2.2100   -4.6360   -0.5150 ha        1 T87      0.131000
     46 HC7         1.9850   -7.0000   -0.4430 ha        1 T87      0.142000
     47 HN         -0.2070   -2.3600   -1.3920 hn        1 T87      0.201000
     48 H1C         1.2910   -2.2940    0.8550 h1        1 T87      0.111500
     49 H2C         2.2520   -2.4360   -0.4160 h1        1 T87      0.111500
     50 H10C        2.9530    3.1040   -0.7500 ha        1 T87      0.153000
     51 H11C        1.3860    4.8950   -0.9260 ha        1 T87      0.139000
     52 H13C       -1.7190    2.1990   -0.7090 ha        1 T87      0.153000
     53 H141        3.9680    1.1290    0.1880 ha        1 T87      0.091000
     54 H142        3.6120   -0.3250    0.7970 ha        1 T87      0.091000
     55 H143        4.1250   -0.1910   -0.7310 ha        1 T87      0.091000
     56 HC91       -1.3050    5.6500   -1.7390 hc        1 T87      0.120750
     57 HC92       -2.1610    6.3290   -0.4350 hc        1 T87      0.120750
     58 H151       -3.4240    4.4110   -0.2740 hc        1 T87      0.120750
     59 H152       -2.5600    3.7370   -1.5850 hc        1 T87      0.120750
     60 H19C        1.4070    3.5030    2.9240 ha        1 T87      0.156000
     61 H20C        3.2460    4.7950    3.6030 ha        1 T87      0.142000
     62 H21C        3.3620    7.0780    3.0160 ha        1 T87      0.142000
     63 H22         1.6180    8.0480    1.7440 ha        1 T87      0.160000
     64 H231       -0.9370    0.8740    1.7470 h1        1 T87      0.137000
     65 H232       -2.2210    0.6630    2.6940 h1        1 T87      0.137000
     66 H251       -1.8300   -1.8430   -3.1170 hc        1 T87      0.088667
     67 H252       -2.2970   -0.3360   -3.4140 hc        1 T87      0.088667
     68 H253       -0.9200   -0.6070   -2.6420 hc        1 T87      0.088667
     69 H261       -2.5210   -1.7620   -1.0000 h1        1 T87      0.109500
     70 H262       -3.5300   -0.6650   -1.5860 h1        1 T87      0.109500
@<TRIPOS>BOND
     1    1    3 1   
     2    2    3 1   
     3    2   41 1   
     4    2   42 1   
     5    3    4 1   
     6    4    5 1   
     7    4    9 1   
     8    5    6 1   
     9    5   43 1   
    10    6   44 1   
    11    7    8 1   
    12    7   10 1   
    13    8   45 1   
    14    9   46 1   
    15   10   11 1   
    16   10   47 1   
    17   11   13 1   
    18   11   48 1   
    19   11   49 1   
    20   12   13 1   
    21   12   16 1   
    22   13   14 1   
    23   14   15 1   
    24   15   17 1   
    25   16   20 1   
    26   17   50 1   
    27   18   19 1   
    28   18   51 1   
    29   19   24 1   
    30   20   52 1   
    31   21   53 1   
    32   21   54 1   
    33   21   55 1   
    34   22   23 1   
    35   22   24 1   
    36   22   56 1   
    37   22   57 1   
    38   23   24 1   
    39   23   58 1   
    40   23   59 1   
    41   24   25 1   
    42   25   26 1   
    43   25   28 1   
    44   27   32 1   
    45   28   29 1   
    46   29   60 1   
    47   30   31 1   
    48   30   61 1   
    49   31   62 1   
    50   32   63 1   
    51   33   34 1   
    52   34   35 1   
    53   34   64 1   
    54   34   65 1   
    55   35   36 1   
    56   35   37 1   
    57   37   39 1   
    58   38   39 1   
    59   38   66 1   
    60   38   67 1   
    61   38   68 1   
    62   39   69 1   
    63   39   70 1   
@<TRIPOS>SUBSTRUCTURE
     1 T87         1 TEMP              0 ****  ****    0 ROOT
