@<TRIPOS>MOLECULE
T87
   70    74     1     0     0
SMALL
bcc


@<TRIPOS>ATOM
      1 N1          0.4300   11.1930   19.6600 n2        1 T87     -0.827100
      2 N2          1.3580   10.1710   21.6610 nh        1 T87     -0.956800
      3 C1          0.4680   10.2610   20.5650 ce        1 T87      0.654800
      4 C2         -0.4640    9.0980   20.4350 ca        1 T87     -0.175900
      5 C3         -1.8260    9.3160   20.2150 ca        1 T87     -0.068500
      6 C4         -2.7040    8.2440   20.0970 ca        1 T87     -0.179000
      7 C5         -2.2330    6.9160   20.1910 ca        1 T87      0.144600
      8 C6         -0.8480    6.7110   20.4060 ca        1 T87     -0.179000
      9 C7          0.0200    7.7890   20.5200 ca        1 T87     -0.068500
     10 N          -3.0750    5.8060   19.9700 nh        1 T87     -0.718600
     11 C          -4.4200    5.8130   20.4790 c3        1 T87      0.171500
     12 N3         -5.0610    6.2510   22.8970 nc        1 T87     -0.550100
     13 C8         -4.5720    5.4420   21.9380 cd        1 T87      0.366800
     14 N9         -4.2160    4.1580   22.4320 na        1 T87     -0.171300
     15 C3A        -4.5110    4.1700   23.8010 ca        1 T87     -0.066200
     16 C7A        -5.0440    5.4900   24.0820 ca        1 T87      0.057400
     17 C10        -4.3810    3.2130   24.8150 ca        1 T87     -0.136000
     18 C11        -4.7860    3.5680   26.0900 ca        1 T87     -0.094000
     19 C12        -5.3190    4.8470   26.3790 ca        1 T87     -0.078300
     20 C13        -5.4420    5.8140   25.3870 ca        1 T87     -0.057000
     21 C14        -3.6840    3.0650   21.6940 c3        1 T87      0.030600
     22 C9         -7.1170    4.6630   28.2120 cx        1 T87     -0.105400
     23 C15        -6.8550    6.1240   28.0440 cx        1 T87     -0.105400
     24 C16        -5.7450    5.1330   27.7670 cx        1 T87     -0.140000
     25 C17        -4.6200    5.0580   28.7460 ce        1 T87      0.368300
     26 N4         -4.3130    4.0800   29.5530 n2        1 T87     -0.434200
     27 N5         -4.1290    7.3250   29.5330 nb        1 T87     -0.651000
     28 C18        -3.7350    6.2640   28.7870 ca        1 T87      0.381000
     29 C19        -2.5350    6.2430   28.0460 ca        1 T87     -0.210300
     30 C20        -1.7180    7.3750   28.0690 ca        1 T87     -0.095000
     31 C21        -2.1110    8.4780   28.8260 ca        1 T87     -0.241300
     32 C22        -3.3220    8.4020   29.5380 ca        1 T87      0.393200
     33 OH         -5.1120    3.0180   29.5380 os        1 T87     -0.164300
     34 C23        -4.5740    1.8870   30.2460 c3        1 T87      0.099400
     35 C24        -3.5650    1.1690   29.3920 c         1 T87      0.609100
     36 O2         -3.2660    1.3670   28.2140 o         1 T87     -0.534000
     37 O3         -2.9420    0.1600   30.0690 os        1 T87     -0.444900
     38 C25        -1.4170   -1.6250   30.2990 c3        1 T87     -0.101100
     39 C26        -1.9580   -0.5950   29.3380 c3        1 T87      0.140400
     40 HN1         1.0620   11.9560   19.7800 hn        1 T87      0.380400
     41 HN21        1.0700    9.5590   22.3880 hn        1 T87      0.395800
     42 HN22        1.7530   11.0250   21.9820 hn        1 T87      0.395800
     43 HC3        -2.2120   10.3440   20.1230 ha        1 T87      0.145500
     44 HC4        -3.7700    8.4530   19.9200 ha        1 T87      0.135500
     45 HC6        -0.4420    5.6910   20.4750 ha        1 T87      0.135500
     46 HC7         1.0950    7.6040   20.6690 ha        1 T87      0.145500
     47 HN         -2.6070    4.9380   20.1440 hn        1 T87      0.388800
     48 H1C        -4.8890    6.8260   20.3200 h1        1 T87      0.083700
     49 H2C        -5.0060    5.0610   19.8700 h1        1 T87      0.083700
     50 H10C       -3.9680    2.2160   24.6110 ha        1 T87      0.139000
     51 H11C       -4.6810    2.8370   26.9130 ha        1 T87      0.163000
     52 H13C       -5.8380    6.8170   25.6080 ha        1 T87      0.151000
     53 H141       -3.9460    2.1000   22.2050 h1        1 T87      0.051033
     54 H142       -4.1100    3.0600   20.6540 h1        1 T87      0.051033
     55 H143       -2.5630    3.1420   21.6280 h1        1 T87      0.051033
     56 HC91       -7.2270    4.2430   29.2280 hc        1 T87      0.081700
     57 HC92       -7.7520    4.1390   27.4750 hc        1 T87      0.081700
     58 H151       -7.3130    6.6580   27.1920 hc        1 T87      0.081700
     59 H152       -6.7760    6.7660   28.9400 hc        1 T87      0.081700
     60 H19C       -2.2600    5.3520   27.4640 ha        1 T87      0.158000
     61 H20C       -0.7780    7.3910   27.4980 ha        1 T87      0.140000
     62 H21C       -1.4970    9.3860   28.8710 ha        1 T87      0.143000
     63 H22        -3.6710    9.2510   30.1540 h4        1 T87      0.023100
     64 H231       -4.1160    2.1740   31.2270 h1        1 T87      0.099200
     65 H232       -5.4750    1.2340   30.4000 h1        1 T87      0.099200
     66 H251       -0.6450   -2.2380   29.7760 hc        1 T87      0.049367
     67 H252       -0.9540   -1.1300   31.1850 hc        1 T87      0.049367
     68 H253       -2.2350   -2.2940   30.6580 hc        1 T87      0.049367
     69 H261       -2.4560   -1.0670   28.4510 h1        1 T87      0.052200
     70 H262       -1.1610    0.1080   28.9810 h1        1 T87      0.052200
@<TRIPOS>BOND
     1    1    3 2   
     2    1   40 1   
     3    2    3 1   
     4    2   41 1   
     5    2   42 1   
     6    3    4 1   
     7    4    5 ar  
     8    4    9 ar  
     9    5    6 ar  
    10    5   43 1   
    11    6    7 ar  
    12    6   44 1   
    13    7    8 ar  
    14    7   10 1   
    15    8    9 ar  
    16    8   45 1   
    17    9   46 1   
    18   10   11 1   
    19   10   47 1   
    20   11   13 1   
    21   11   48 1   
    22   11   49 1   
    23   12   13 2   
    24   12   16 1   
    25   13   14 1   
    26   14   15 1   
    27   14   21 1   
    28   15   16 ar  
    29   15   17 ar  
    30   16   20 ar  
    31   17   18 ar  
    32   17   50 1   
    33   18   19 ar  
    34   18   51 1   
    35   19   20 ar  
    36   19   24 1   
    37   20   52 1   
    38   21   53 1   
    39   21   54 1   
    40   21   55 1   
    41   22   23 1   
    42   22   24 1   
    43   22   56 1   
    44   22   57 1   
    45   23   24 1   
    46   23   58 1   
    47   23   59 1   
    48   24   25 1   
    49   25   26 2   
    50   25   28 1   
    51   26   33 1   
    52   27   28 ar  
    53   27   32 ar  
    54   28   29 ar  
    55   29   30 ar  
    56   29   60 1   
    57   30   31 ar  
    58   30   61 1   
    59   31   32 ar  
    60   31   62 1   
    61   32   63 1   
    62   33   34 1   
    63   34   35 1   
    64   34   64 1   
    65   34   65 1   
    66   35   36 2   
    67   35   37 1   
    68   37   39 1   
    69   38   39 1   
    70   38   66 1   
    71   38   67 1   
    72   38   68 1   
    73   39   69 1   
    74   39   70 1   
@<TRIPOS>SUBSTRUCTURE
     1 T87         1 TEMP              0 ****  ****    0 ROOT
