@<TRIPOS>MOLECULE
T87
   72    76     1     0     0
SMALL
bcc


@<TRIPOS>ATOM
      1 N1          0.0800   -0.2240   -0.4040 n2        1 T87     -0.641100
      2 N2          1.9940   -0.6660   -1.9320 n4        1 T87     -0.882600
      3 C1          1.3240   -0.2580   -0.6240 ce        1 T87      0.601800
      4 C2          2.3330    0.1190    0.4060 ca        1 T87     -0.161900
      5 C3          3.1800   -0.8540    0.9530 ca        1 T87     -0.071500
      6 C4          4.0460   -0.5180    1.9900 ca        1 T87     -0.079000
      7 C5          4.0630    0.8030    2.4800 ca        1 T87      0.005600
      8 C6          3.2240    1.7820    1.9240 ca        1 T87     -0.079000
      9 C7          2.3540    1.4300    0.8870 ca        1 T87     -0.071500
     10 N           4.9600    1.1480    3.5910 n4        1 T87     -0.636400
     11 C           4.4410    0.6850    4.9310 c3        1 T87      0.133500
     12 N3          2.8270    2.6190    4.8920 nc        1 T87     -0.593100
     13 C8          3.5880    1.7280    5.5780 cd        1 T87      0.278800
     14 N9          3.4880    1.8790    6.9780 na        1 T87     -0.113300
     15 C3A         2.5770    2.9230    7.1840 ca        1 T87     -0.048200
     16 C7A         2.1810    3.3870    5.8640 ca        1 T87      0.060400
     17 C10         2.0650    3.5240    8.3460 ca        1 T87     -0.135000
     18 C11         1.1700    4.5630    8.1860 ca        1 T87     -0.062000
     19 C12         0.7660    5.0250    6.9020 ca        1 T87     -0.025300
     20 C13         1.2720    4.4570    5.7450 ca        1 T87     -0.066000
     21 C14         4.0900    1.0500    7.9700 c3        1 T87      0.012600
     22 C9         -1.6830    5.7860    7.0150 cx        1 T87     -0.093400
     23 C15        -1.1850    6.2310    5.6810 cx        1 T87     -0.093400
     24 C16        -0.2140    6.1320    6.8400 cx        1 T87     -0.156000
     25 C17         0.3090    7.3930    7.4440 ce        1 T87      0.343300
     26 N4          0.0130    7.8790    8.6230 n2        1 T87     -0.414200
     27 N5          1.0320    8.3090    5.2890 nb        1 T87     -0.661000
     28 C18         1.2810    8.1740    6.6180 ca        1 T87      0.372000
     29 C19         2.4090    8.7480    7.2420 ca        1 T87     -0.207300
     30 C20         3.2990    9.4980    6.4680 ca        1 T87     -0.095000
     31 C21         3.0480    9.6520    5.1060 ca        1 T87     -0.233300
     32 C22         1.9020    9.0360    4.5680 ca        1 T87      0.388200
     33 OH         -0.8450    7.1900    9.3560 os        1 T87     -0.165300
     34 C23        -1.0110    7.7120   10.6910 c3        1 T87      0.096400
     35 C24         0.1150    7.3110   11.6020 c         1 T87      0.607100
     36 O2          0.3750    7.7910   12.7050 o         1 T87     -0.513000
     37 O3          0.8900    6.2950   11.1180 os        1 T87     -0.449900
     38 C25         1.4940    4.9110   13.0210 c3        1 T87     -0.130100
     39 C26         1.9790    5.8450   11.9420 c3        1 T87      0.138400
     40 HN1        -0.6310   -0.4640   -1.0630 hn        1 T87      0.486400
     41 HN21        2.7480   -1.3320   -1.7330 hn        1 T87      0.467133
     42 HN22        1.3360   -1.1000   -2.5880 hn        1 T87      0.467133
     43 HC3         3.1500   -1.8990    0.6020 ha        1 T87      0.177000
     44 HC4         4.6970   -1.3000    2.4180 ha        1 T87      0.192000
     45 HC6         3.2080    2.8230    2.3020 ha        1 T87      0.192000
     46 HC7         1.6700    2.1970    0.4800 ha        1 T87      0.177000
     47 HN          5.0850    2.1740    3.6140 hn        1 T87      0.472800
     48 H1C         5.3380    0.4530    5.5790 hx        1 T87      0.117700
     49 H2C         3.8400   -0.2570    4.7670 hx        1 T87      0.117700
     50 H10C        2.3650    3.1820    9.3470 ha        1 T87      0.154000
     51 H11C        0.7520    5.0680    9.0810 ha        1 T87      0.189000
     52 H13C        0.9790    4.8290    4.7520 ha        1 T87      0.158000
     53 H141        3.7930    1.4170    8.9900 h1        1 T87      0.069367
     54 H142        3.7500   -0.0150    7.8530 h1        1 T87      0.069367
     55 H143        5.2100    1.0940    7.8800 h1        1 T87      0.069367
     56 HC91       -1.9560    4.7260    7.1680 hc        1 T87      0.084950
     57 HC92       -2.3180    6.4650    7.6150 hc        1 T87      0.084950
     58 H151       -1.1070    5.4960    4.8610 hc        1 T87      0.084950
     59 H152       -1.4580    7.2360    5.3080 hc        1 T87      0.084950
     60 H19C        2.5800    8.6230    8.3210 ha        1 T87      0.160000
     61 H20C        4.1780    9.9680    6.9350 ha        1 T87      0.150000
     62 H21C        3.7130   10.2470    4.4660 ha        1 T87      0.152000
     63 H22         1.6560    9.1410    3.4960 h4        1 T87      0.023100
     64 H231       -1.9620    7.2160   11.0310 h1        1 T87      0.109700
     65 H232       -1.1160    8.8290   10.7000 h1        1 T87      0.109700
     66 H251        0.9150    4.0640   12.5830 hc        1 T87      0.053700
     67 H252        0.8330    5.4610   13.7360 hc        1 T87      0.053700
     68 H253        2.3680    4.5030   13.5830 hc        1 T87      0.053700
     69 H261        2.5110    6.7290   12.3820 h1        1 T87      0.059200
     70 H262        2.6430    5.3190   11.2030 h1        1 T87      0.059200
     71 H23         2.4000    0.1660   -2.3760 hn        1 T87      0.467133
     72 HN3         5.8730    0.7080    3.4220 hn        1 T87      0.472800
@<TRIPOS>BOND
     1    1    3 2   
     2    1   40 1   
     3    2    3 1   
     4    2   41 1   
     5    2   42 1   
     6    2   71 1   
     7    3    4 1   
     8    4    5 ar  
     9    4    9 ar  
    10    5    6 ar  
    11    5   43 1   
    12    6    7 ar  
    13    6   44 1   
    14    7    8 ar  
    15    7   10 1   
    16    8    9 ar  
    17    8   45 1   
    18    9   46 1   
    19   10   11 1   
    20   10   47 1   
    21   10   72 1   
    22   11   13 1   
    23   11   48 1   
    24   11   49 1   
    25   12   13 2   
    26   12   16 1   
    27   13   14 1   
    28   14   15 1   
    29   14   21 1   
    30   15   16 ar  
    31   15   17 ar  
    32   16   20 ar  
    33   17   18 ar  
    34   17   50 1   
    35   18   19 ar  
    36   18   51 1   
    37   19   20 ar  
    38   19   24 1   
    39   20   52 1   
    40   21   53 1   
    41   21   54 1   
    42   21   55 1   
    43   22   23 1   
    44   22   24 1   
    45   22   56 1   
    46   22   57 1   
    47   23   24 1   
    48   23   58 1   
    49   23   59 1   
    50   24   25 1   
    51   25   26 2   
    52   25   28 1   
    53   26   33 1   
    54   27   28 ar  
    55   27   32 ar  
    56   28   29 ar  
    57   29   30 ar  
    58   29   60 1   
    59   30   31 ar  
    60   30   61 1   
    61   31   32 ar  
    62   31   62 1   
    63   32   63 1   
    64   33   34 1   
    65   34   35 1   
    66   34   64 1   
    67   34   65 1   
    68   35   36 2   
    69   35   37 1   
    70   37   39 1   
    71   38   39 1   
    72   38   66 1   
    73   38   67 1   
    74   38   68 1   
    75   39   69 1   
    76   39   70 1   
@<TRIPOS>SUBSTRUCTURE
     1 T87         1 TEMP              0 ****  ****    0 ROOT
