@<TRIPOS>MOLECULE
T87
   71    75     1     0     0
SMALL
bcc


@<TRIPOS>ATOM
      1 N1          1.2840   -1.3070   -1.2080 n2        1 T87     -0.686100
      2 N2          0.6970    1.1120   -1.1010 nz        1 T87     -0.899600
      3 C1          1.4900   -0.1590   -0.7210 ce        1 T87      0.657800
      4 C2          2.4870    0.1940    0.3000 ca        1 T87     -0.298900
      5 C3          2.4020   -0.3790    1.5770 ca        1 T87     -0.038500
      6 C4          3.3230   -0.0440    2.5550 ca        1 T87     -0.186500
      7 C5          4.3770    0.8680    2.2810 ca        1 T87      0.248600
      8 C6          4.4620    1.4140    0.9650 ca        1 T87     -0.186500
      9 C7          3.5360    1.0760   -0.0020 ca        1 T87     -0.038500
     10 N           5.3630    1.1740    3.2070 nu        1 T87     -0.704600
     11 C           5.1600    0.9760    4.6170 c3        1 T87      0.183500
     12 N3          3.3010    2.7110    4.5910 nc        1 T87     -0.584100
     13 C8          4.1420    1.8910    5.2550 cd        1 T87      0.346800
     14 N9          3.9720    1.9440    6.6600 na        1 T87     -0.153300
     15 C3A         2.9620    2.8880    6.8920 ca        1 T87     -0.063200
     16 C7A         2.5430    3.3580    5.5850 ca        1 T87      0.055400
     17 C10         2.3640    3.3770    8.0620 ca        1 T87     -0.128000
     18 C11         1.3580    4.3170    7.9230 ca        1 T87     -0.087000
     19 C12         0.9320    4.7810    6.6540 ca        1 T87     -0.062300
     20 C13         1.5230    4.3160    5.4860 ca        1 T87     -0.067000
     21 C14         4.7640    1.2730    7.6330 c3        1 T87      0.026600
     22 C9         -1.5890    5.2810    6.7130 cx        1 T87     -0.103400
     23 C15        -1.0960    5.8330    5.4160 cx        1 T87     -0.103400
     24 C16        -0.1600    5.7790    6.6050 cx        1 T87     -0.139000
     25 C17         0.2070    7.0610    7.2730 ce        1 T87      0.361300
     26 N4         -0.1620    7.4880    8.4520 n2        1 T87     -0.427200
     27 N5          0.7150    8.4400    5.3100 nb        1 T87     -0.655000
     28 C18         1.1330    7.9490    6.5030 ca        1 T87      0.378000
     29 C19         2.4000    8.2400    7.0530 ca        1 T87     -0.208300
     30 C20         3.2670    9.0650    6.3350 ca        1 T87     -0.095000
     31 C21         2.8520    9.5770    5.1060 ca        1 T87     -0.237300
     32 C22         1.5690    9.2350    4.6410 ca        1 T87      0.390200
     33 OH         -0.9960    6.7160    9.1360 os        1 T87     -0.166300
     34 C23        -1.1190    7.0920   10.5220 c3        1 T87      0.096400
     35 C24         0.0510    6.5590   11.3060 c         1 T87      0.612100
     36 O2          0.9680    5.8340   10.9160 o         1 T87     -0.544000
     37 O3          0.0250    6.9700   12.6060 os        1 T87     -0.437900
     38 C25         0.8030    5.1340   13.9880 c3        1 T87     -0.127100
     39 C26         1.0790    6.5250   13.4750 c3        1 T87      0.139400
     40 HN1         0.5750   -1.5160   -1.8750 hn        1 T87      0.456400
     41 HN21        0.0590    0.9740   -1.8850 hn        1 T87      0.452467
     42 HN22        0.1640    1.4130   -0.2800 hn        1 T87      0.452467
     43 HC3         1.6020   -1.1000    1.8090 ha        1 T87      0.139000
     44 HC4         3.2160   -0.4880    3.5580 ha        1 T87      0.159000
     45 HC6         5.2770    2.1110    0.7110 ha        1 T87      0.159000
     46 HC7         3.6440    1.4900   -1.0160 ha        1 T87      0.139000
     47 HN          5.8960    1.9920    2.9870 hn        1 T87      0.430800
     48 H1C         4.8490   -0.0930    4.8060 h1        1 T87      0.082700
     49 H2C         6.1580    1.1420    5.1220 h1        1 T87      0.082700
     50 H10C        2.6830    3.0330    9.0560 ha        1 T87      0.147000
     51 H11C        0.8800    4.7350    8.8300 ha        1 T87      0.174000
     52 H13C        1.2130    4.6920    4.5000 ha        1 T87      0.145000
     53 H141        5.7990    1.7120    7.6720 h1        1 T87      0.057367
     54 H142        4.2860    1.3770    8.6440 h1        1 T87      0.057367
     55 H143        4.8430    0.1830    7.3710 h1        1 T87      0.057367
     56 HC91       -1.7550    4.1930    6.8120 hc        1 T87      0.080700
     57 HC92       -2.3090    5.8650    7.3150 hc        1 T87      0.080700
     58 H151       -1.4580    6.8210    5.0750 hc        1 T87      0.080700
     59 H152       -0.9180    5.1450    4.5710 hc        1 T87      0.080700
     60 H19C        2.6890    7.8260    8.0290 ha        1 T87      0.159000
     61 H20C        4.2600    9.3120    6.7390 ha        1 T87      0.144000
     62 H21C        3.5010   10.2360    4.5140 ha        1 T87      0.147000
     63 H22         1.1940    9.6250    3.6770 h4        1 T87      0.022100
     64 H231       -1.2080    8.2000   10.6600 h1        1 T87      0.103700
     65 H232       -2.0620    6.5710   10.8410 h1        1 T87      0.103700
     66 H251       -0.1990    5.0880   14.4800 hc        1 T87      0.051033
     67 H252        0.8210    4.4020   13.1450 hc        1 T87      0.051033
     68 H253        1.5840    4.8500   14.7330 hc        1 T87      0.051033
     69 H261        1.0520    7.2860   14.3010 h1        1 T87      0.066700
     70 H262        2.0600    6.5720   12.9340 h1        1 T87      0.066700
     71 H23         1.3670    1.8510   -1.3350 hn        1 T87      0.452467
@<TRIPOS>BOND
     1    1    3 2   
     2    1   40 1   
     3    2    3 1   
     4    2   41 1   
     5    2   42 1   
     6    2   71 1   
     7    3    4 1   
     8    4    5 ar  
     9    4    9 ar  
    10    5    6 ar  
    11    5   43 1   
    12    6    7 ar  
    13    6   44 1   
    14    7    8 ar  
    15    7   10 1   
    16    8    9 ar  
    17    8   45 1   
    18    9   46 1   
    19   10   11 1   
    20   10   47 1   
    21   11   13 1   
    22   11   48 1   
    23   11   49 1   
    24   12   13 2   
    25   12   16 1   
    26   13   14 1   
    27   14   15 1   
    28   14   21 1   
    29   15   16 ar  
    30   15   17 ar  
    31   16   20 ar  
    32   17   18 ar  
    33   17   50 1   
    34   18   19 ar  
    35   18   51 1   
    36   19   20 ar  
    37   19   24 1   
    38   20   52 1   
    39   21   53 1   
    40   21   54 1   
    41   21   55 1   
    42   22   23 1   
    43   22   24 1   
    44   22   56 1   
    45   22   57 1   
    46   23   24 1   
    47   23   58 1   
    48   23   59 1   
    49   24   25 1   
    50   25   26 2   
    51   25   28 1   
    52   26   33 1   
    53   27   28 ar  
    54   27   32 ar  
    55   28   29 ar  
    56   29   30 ar  
    57   29   60 1   
    58   30   31 ar  
    59   30   61 1   
    60   31   32 ar  
    61   31   62 1   
    62   32   63 1   
    63   33   34 1   
    64   34   35 1   
    65   34   64 1   
    66   34   65 1   
    67   35   36 2   
    68   35   37 1   
    69   37   39 1   
    70   38   39 1   
    71   38   66 1   
    72   38   67 1   
    73   38   68 1   
    74   39   69 1   
    75   39   70 1   
@<TRIPOS>SUBSTRUCTURE
     1 T87         1 TEMP              0 ****  ****    0 ROOT
