@<TRIPOS>MOLECULE
T8B
   67    71     1     0     0
SMALL
bcc


@<TRIPOS>ATOM
      1 O1         -4.7010    2.2650   -2.1960 o         1 T8B     -0.827800
      2 C1         -3.6740    2.9370   -1.8920 c         1 T8B      0.926600
      3 O2         -2.9230    3.5230   -2.7120 o         1 T8B     -0.827800
      4 C2         -3.3200    3.0540   -0.3820 c3        1 T8B     -0.199100
      5 C3         -2.2530    2.0930   -0.0220 ca        1 T8B      0.034700
      6 C4         -0.9900    2.2870   -0.5390 ca        1 T8B     -0.158000
      7 C5          0.1000    1.4470   -0.1900 ca        1 T8B      0.022000
      8 C6          1.3820    1.6720   -0.7180 ca        1 T8B     -0.127000
      9 C7          2.4670    0.8750   -0.3630 ca        1 T8B      0.003000
     10 C8          3.7650    1.1510   -0.8990 ca        1 T8B     -0.126000
     11 C9          4.8510    0.3990   -0.5460 ca        1 T8B     -0.017800
     12 C10         6.1750    0.6710   -1.0600 cc        1 T8B     -0.113200
     13 C11         7.2190   -0.1090   -0.7020 cd        1 T8B      0.042900
     14 C12         8.5890    0.1280   -1.1940 c         1 T8B      0.648300
     15 O3          8.9560    1.0310   -1.9530 o         1 T8B     -0.546000
     16 O4          9.5160   -0.7660   -0.7420 os        1 T8B     -0.398900
     17 C13        10.8560   -0.5710   -1.1980 c3        1 T8B      0.123700
     18 O5          7.1280   -1.1930    0.1440 os        1 T8B     -0.322200
     19 C14         5.8740   -1.5180    0.6800 c         1 T8B      0.749200
     20 O6          5.9790   -2.5100    1.3990 o         1 T8B     -0.556500
     21 C15         4.7060   -0.7140    0.3490 ca        1 T8B     -0.239600
     22 C16         3.4520   -1.0110    0.8750 ca        1 T8B      0.256100
     23 O7          3.4040   -2.0760    1.7260 oh        1 T8B     -0.484100
     24 C17         2.2940   -0.2080    0.5580 ca        1 T8B     -0.136000
     25 C18         1.0110   -0.4120    1.1030 ca        1 T8B      0.153100
     26 O8          0.8220   -1.4730    1.9820 os        1 T8B     -0.371900
     27 C19         0.8520   -1.0850    3.3620 c3        1 T8B      0.121700
     28 C20        -0.1020    0.3730    0.7300 ca        1 T8B     -0.079000
     29 C21        -1.4390    0.1610    1.2150 ca        1 T8B      0.128100
     30 O9         -1.6400   -0.8450    2.1530 os        1 T8B     -0.345900
     31 C22        -2.0190   -2.0960    1.5770 c3        1 T8B      0.118700
     32 C23        -2.4920    0.9720    0.8370 ca        1 T8B     -0.146600
     33 C24        -3.8780    0.6760    1.3070 c         1 T8B      0.608900
     34 O10        -4.2060    0.7970    2.4900 o         1 T8B     -0.517100
     35 C25        -4.8140    0.2950    0.2370 ce        1 T8B     -0.269200
     36 C26        -5.4410   -0.8870    0.0980 cf        1 T8B      0.127900
     37 O11        -5.2470   -1.8850    1.0450 oh        1 T8B     -0.531100
     38 C27        -6.3590   -1.1920   -1.0020 ca        1 T8B     -0.161800
     39 C28        -6.2060   -0.5670   -2.2490 ca        1 T8B     -0.057000
     40 C29        -7.0640   -0.8800   -3.3030 ca        1 T8B     -0.160000
     41 C30        -8.0880   -1.8100   -3.1290 ca        1 T8B     -0.104000
     42 C31        -8.2810   -2.4210   -1.8930 ca        1 T8B     -0.174000
     43 C32        -7.4220   -2.1030   -0.8300 ca        1 T8B      0.120100
     44 O12        -7.6570   -2.7630    0.3590 oh        1 T8B     -0.530100
     45 H2         -2.9500    4.0990   -0.2080 hc        1 T8B      0.053700
     46 H3         -4.2410    2.9060    0.2340 hc        1 T8B      0.053700
     47 H4         -0.8360    3.1020   -1.2700 ha        1 T8B      0.179000
     48 H5          1.5240    2.5040   -1.4270 ha        1 T8B      0.149000
     49 H6          3.8670    1.9930   -1.6020 ha        1 T8B      0.143000
     50 H7          6.3170    1.5220   -1.7440 ha        1 T8B      0.168000
     51 H8         11.4200   -1.4030   -0.7080 h1        1 T8B      0.050033
     52 H9         10.8960   -0.6470   -2.3110 h1        1 T8B      0.050033
     53 H10        11.2300    0.4280   -0.8690 h1        1 T8B      0.050033
     54 H11         2.5050   -2.4420    1.7540 ho        1 T8B      0.455000
     55 H12         1.9010   -0.8270    3.6460 h1        1 T8B      0.051367
     56 H13         0.1580   -0.2310    3.5470 h1        1 T8B      0.051367
     57 H14         0.4990   -2.0020    3.8960 h1        1 T8B      0.051367
     58 H15        -2.1600   -2.7610    2.4640 h1        1 T8B      0.042700
     59 H16        -2.9750   -1.9840    1.0070 h1        1 T8B      0.042700
     60 H17        -1.2010   -2.4780    0.9190 h1        1 T8B      0.042700
     61 H18        -4.9940    1.0980   -0.5220 ha        1 T8B      0.237000
     62 H19        -5.2880   -2.7350    0.5800 ho        1 T8B      0.419000
     63 H20        -5.4130    0.1970   -2.3950 ha        1 T8B      0.212000
     64 H21        -6.9290   -0.3790   -4.2720 ha        1 T8B      0.143000
     65 H22        -8.7570   -2.0570   -3.9660 ha        1 T8B      0.123000
     66 H23        -9.0920   -3.1430   -1.7320 ha        1 T8B      0.138000
     67 H24        -7.3930   -2.1740    1.0860 ho        1 T8B      0.438000
@<TRIPOS>BOND
     1    1    2 1   
     2    2    3 1   
     3    2    4 1   
     4    4    5 1   
     5    4   45 1   
     6    4   46 1   
     7    5    6 ar  
     8    5   32 ar  
     9    6    7 ar  
    10    6   47 1   
    11    7    8 ar  
    12    7   28 ar  
    13    8    9 ar  
    14    8   48 1   
    15    9   10 ar  
    16    9   24 ar  
    17   10   11 ar  
    18   10   49 1   
    19   11   12 1   
    20   11   21 ar  
    21   12   13 2   
    22   12   50 1   
    23   13   14 1   
    24   13   18 1   
    25   14   15 2   
    26   14   16 1   
    27   16   17 1   
    28   17   51 1   
    29   17   52 1   
    30   17   53 1   
    31   18   19 1   
    32   19   20 2   
    33   19   21 1   
    34   21   22 ar  
    35   22   23 1   
    36   22   24 ar  
    37   23   54 1   
    38   24   25 ar  
    39   25   26 1   
    40   25   28 ar  
    41   26   27 1   
    42   27   55 1   
    43   27   56 1   
    44   27   57 1   
    45   28   29 ar  
    46   29   30 1   
    47   29   32 ar  
    48   30   31 1   
    49   31   58 1   
    50   31   59 1   
    51   31   60 1   
    52   32   33 1   
    53   33   34 2   
    54   33   35 1   
    55   35   36 2   
    56   35   61 1   
    57   36   37 1   
    58   36   38 1   
    59   37   62 1   
    60   38   39 ar  
    61   38   43 ar  
    62   39   40 ar  
    63   39   63 1   
    64   40   41 ar  
    65   40   64 1   
    66   41   42 ar  
    67   41   65 1   
    68   42   43 ar  
    69   42   66 1   
    70   43   44 1   
    71   44   67 1   
@<TRIPOS>SUBSTRUCTURE
     1 T8B         1 TEMP              0 ****  ****    0 ROOT
