@<TRIPOS>MOLECULE
T8B
   67    71     1     0     0
SMALL
bcc


@<TRIPOS>ATOM
      1 O1          0.3610    1.1320   -0.2850 o         1 T8B     -0.834300
      2 C1          1.3590    0.9930   -1.0420 c         1 T8B      0.915600
      3 O2          1.7660    1.8740   -1.8540 o         1 T8B     -0.834300
      4 C2          2.0920   -0.3670   -0.9900 c3        1 T8B     -0.192100
      5 C3          3.5570   -0.3040   -0.7670 ca        1 T8B      0.032700
      6 C4          4.2550    0.8810   -0.7690 ca        1 T8B     -0.137000
      7 C5          5.6590    0.9210   -0.5460 ca        1 T8B      0.017000
      8 C6          6.3440    2.1510   -0.5580 ca        1 T8B     -0.123000
      9 C7          7.7160    2.2200   -0.3430 ca        1 T8B     -0.006000
     10 C8          8.4000    3.4790   -0.3810 ca        1 T8B     -0.113000
     11 C9          9.7480    3.5570   -0.1730 ca        1 T8B     -0.025800
     12 C10        10.4560    4.8160   -0.2140 cc        1 T8B     -0.089200
     13 C11        11.7900    4.8620   -0.0020 cd        1 T8B      0.021900
     14 C12        12.5630    6.1140   -0.0330 c         1 T8B      0.651300
     15 O3         12.1240    7.2480   -0.2510 o         1 T8B     -0.543000
     16 O4         13.8980    5.9630    0.2080 os        1 T8B     -0.401900
     17 C13        14.6830    7.1560    0.1870 c3        1 T8B      0.123700
     18 O5         12.5730    3.7520    0.2670 os        1 T8B     -0.301200
     19 C14        11.9480    2.5120    0.3220 c         1 T8B      0.754200
     20 O6         12.7800    1.6290    0.5740 o         1 T8B     -0.625500
     21 C15        10.5210    2.3730    0.1020 ca        1 T8B     -0.312600
     22 C16         9.8790    1.1390    0.1480 ca        1 T8B      0.286100
     23 O7         10.5060   -0.0340    0.4230 oh        1 T8B     -0.476100
     24 C17         8.4560    1.0230   -0.0840 ca        1 T8B     -0.117000
     25 C18         7.7760   -0.2080   -0.0790 ca        1 T8B      0.186100
     26 O8          8.5130   -1.3760    0.0580 os        1 T8B     -0.339900
     27 C19         8.5750   -1.8600    1.4040 c3        1 T8B      0.131700
     28 C20         6.3830   -0.2870   -0.3150 ca        1 T8B     -0.087000
     29 C21         5.6380   -1.5130   -0.3420 ca        1 T8B      0.121100
     30 O9          6.3010   -2.7060   -0.0710 os        1 T8B     -0.345900
     31 C22         6.7580   -3.3730   -1.2500 c3        1 T8B      0.118700
     32 C23         4.2750   -1.5260   -0.5580 ca        1 T8B     -0.155600
     33 C24         3.5260   -2.8110   -0.5930 c         1 T8B      0.616900
     34 O10         3.1940   -3.4120    0.4420 o         1 T8B     -0.566100
     35 C25         3.2290   -3.3090   -1.9330 ce        1 T8B     -0.385200
     36 C26         2.5790   -4.4690   -2.2080 cf        1 T8B      0.251900
     37 O11         2.1230   -5.3640   -1.2850 oh        1 T8B     -0.493100
     38 C27         2.3250   -4.9060   -3.5880 ca        1 T8B     -0.101800
     39 C28         3.3340   -4.7860   -4.5510 ca        1 T8B     -0.067000
     40 C29         3.1140   -5.1760   -5.8700 ca        1 T8B     -0.175000
     41 C30         1.8740   -5.6910   -6.2490 ca        1 T8B     -0.078000
     42 C31         0.8530   -5.8200   -5.3140 ca        1 T8B     -0.227000
     43 C32         1.0760   -5.4290   -3.9830 ca        1 T8B      0.170100
     44 O12         0.1000   -5.5300   -3.0230 oh        1 T8B     -0.468100
     45 H2          1.6250   -0.9870   -0.1790 hc        1 T8B      0.055700
     46 H3          1.9040   -0.8820   -1.9710 hc        1 T8B      0.055700
     47 H4          3.7100    1.8280   -0.9700 ha        1 T8B      0.211000
     48 H5          5.7690    3.0730   -0.7460 ha        1 T8B      0.154000
     49 H6          7.8060    4.3830   -0.5860 ha        1 T8B      0.144000
     50 H7          9.8910    5.7390   -0.4230 ha        1 T8B      0.170000
     51 H8         15.7160    6.7910    0.4060 h1        1 T8B      0.050700
     52 H9         14.6210    7.6360   -0.8190 h1        1 T8B      0.050700
     53 H10        14.3230    7.8640    0.9710 h1        1 T8B      0.050700
     54 H11        11.4660    0.1030    0.5160 ho        1 T8B      0.457000
     55 H12         9.1380   -2.8200    1.3060 h1        1 T8B      0.043700
     56 H13         9.1340   -1.1340    2.0420 h1        1 T8B      0.043700
     57 H14         7.5460   -2.0390    1.8010 h1        1 T8B      0.043700
     58 H15         7.5370   -2.7560   -1.7600 h1        1 T8B      0.039033
     59 H16         5.8980   -3.5770   -1.9360 h1        1 T8B      0.039033
     60 H17         7.1960   -4.3260   -0.8640 h1        1 T8B      0.039033
     61 H18         3.5340   -2.6550   -2.7660 ha        1 T8B      0.158000
     62 H19         2.1770   -4.9690   -0.3950 ho        1 T8B      0.461000
     63 H20         4.3110   -4.3730   -4.2530 ha        1 T8B      0.144000
     64 H21         3.9180   -5.0720   -6.6130 ha        1 T8B      0.134000
     65 H22         1.7000   -5.9960   -7.2920 ha        1 T8B      0.129000
     66 H23        -0.1280   -6.2180   -5.6090 ha        1 T8B      0.132000
     67 H24        -0.7170   -5.8190   -3.4570 ho        1 T8B      0.416000
@<TRIPOS>BOND
     1    1    2 1   
     2    2    3 1   
     3    2    4 1   
     4    4    5 1   
     5    4   45 1   
     6    4   46 1   
     7    5    6 ar  
     8    5   32 ar  
     9    6    7 ar  
    10    6   47 1   
    11    7    8 ar  
    12    7   28 ar  
    13    8    9 ar  
    14    8   48 1   
    15    9   10 ar  
    16    9   24 ar  
    17   10   11 ar  
    18   10   49 1   
    19   11   12 1   
    20   11   21 ar  
    21   12   13 2   
    22   12   50 1   
    23   13   14 1   
    24   13   18 1   
    25   14   15 2   
    26   14   16 1   
    27   16   17 1   
    28   17   51 1   
    29   17   52 1   
    30   17   53 1   
    31   18   19 1   
    32   19   20 2   
    33   19   21 1   
    34   21   22 ar  
    35   22   23 1   
    36   22   24 ar  
    37   23   54 1   
    38   24   25 ar  
    39   25   26 1   
    40   25   28 ar  
    41   26   27 1   
    42   27   55 1   
    43   27   56 1   
    44   27   57 1   
    45   28   29 ar  
    46   29   30 1   
    47   29   32 ar  
    48   30   31 1   
    49   31   58 1   
    50   31   59 1   
    51   31   60 1   
    52   32   33 1   
    53   33   34 2   
    54   33   35 1   
    55   35   36 2   
    56   35   61 1   
    57   36   37 1   
    58   36   38 1   
    59   37   62 1   
    60   38   39 ar  
    61   38   43 ar  
    62   39   40 ar  
    63   39   63 1   
    64   40   41 ar  
    65   40   64 1   
    66   41   42 ar  
    67   41   65 1   
    68   42   43 ar  
    69   42   66 1   
    70   43   44 1   
    71   44   67 1   
@<TRIPOS>SUBSTRUCTURE
     1 T8B         1 TEMP              0 ****  ****    0 ROOT
