@<TRIPOS>MOLECULE
T8B
   67    57     1     0     0
SMALL
bcc


@<TRIPOS>ATOM
      1 O1         -5.9340    1.8000    1.3050 o         1 T8B     -0.564500
      2 C1         -5.3700    0.6710    1.2680 c1        1 T8B      0.339000
      3 O2         -5.4350   -0.1000    2.2660 o         1 T8B     -0.564500
      4 C2         -4.6890    0.2000   -0.0170 c2        1 T8B     -0.233000
      5 C3         -3.1670    0.1390    0.2010 c1        1 T8B      0.054000
      6 C4         -2.4250    1.3220    0.2610 c1        1 T8B     -0.169000
      7 C5         -1.0600    1.2850    0.6370 c1        1 T8B      0.016000
      8 C6         -0.2920    2.4750    0.6300 c1        1 T8B     -0.124500
      9 C7          1.0900    2.4290    0.9380 c1        1 T8B      0.016000
     10 C8          1.8540    3.6170    0.9360 c1        1 T8B     -0.124500
     11 C9          3.2340    3.5720    1.2480 c1        1 T8B     -0.012000
     12 C10         4.0440    4.8390    1.2760 c1        1 T8B     -0.101000
     13 C11         5.5020    4.7870    1.6330 c1        1 T8B     -0.004000
     14 C12         6.2840    6.0790    1.8270 c1        1 T8B      0.353000
     15 O3          6.1280    6.7400    2.8390 o         1 T8B     -0.356000
     16 O4          7.2400    6.4780    0.8630 o         1 T8B     -0.240000
     17 C13         7.8860    7.7070    1.1650 c3        1 T8B     -0.066000
     18 O5          6.1270    3.5300    1.8850 os        1 T8B     -0.169000
     19 C14         5.3320    2.3280    1.9500 c2        1 T8B      0.368000
     20 O6          5.8280    1.2920    2.3570 o         1 T8B     -0.352000
     21 C15         3.8340    2.3670    1.5550 c2        1 T8B     -0.297000
     22 C16         3.0690    1.1770    1.5570 c2        1 T8B      0.246000
     23 O7          4.0590    0.5780    0.7320 oh        1 T8B     -0.230000
     24 C17         1.6910    1.2210    1.2460 c1        1 T8B     -0.129000
     25 C18         0.9230    0.0290    1.2530 c2        1 T8B      0.156000
     26 O8          1.8730   -0.9990    1.0200 os        1 T8B     -0.206000
     27 C19         2.2890   -1.6770    2.1980 c3        1 T8B     -0.055000
     28 C20        -0.4590    0.0750    0.9450 c1        1 T8B     -0.092000
     29 C21        -1.2110   -1.1230    0.8840 c2        1 T8B      0.117000
     30 O9         -0.3230   -2.2160    1.0580 os        1 T8B     -0.214000
     31 C22        -0.5900   -2.9980    2.2200 c3        1 T8B     -0.094000
     32 C23        -2.5600   -1.0850    0.5120 c1        1 T8B     -0.198000
     33 C24        -2.2730   -2.4780   -0.0560 c2        1 T8B      0.337000
     34 O10        -1.6690   -3.2910    0.6110 o         1 T8B     -0.281000
     35 C25        -2.6190   -2.7920   -1.5070 c2        1 T8B     -0.258000
     36 C26        -3.2610   -3.9580   -1.8190 c1        1 T8B      0.120000
     37 O11        -3.6060   -4.8770   -0.7900 o         1 T8B     -0.260000
     38 C27        -3.6080   -4.2740   -3.2750 c2        1 T8B     -0.101000
     39 C28        -2.6150   -4.7100   -4.1470 c2        1 T8B     -0.068000
     40 C29        -2.9450   -5.0800   -5.4460 c1        1 T8B     -0.162000
     41 C30        -4.2670   -5.0160   -5.8740 c1        1 T8B     -0.150500
     42 C31        -5.2590   -4.5810   -5.0030 c1        1 T8B     -0.150500
     43 C32        -4.9300   -4.2100   -3.7030 c1        1 T8B      0.088000
     44 O12        -5.9430   -3.8190   -2.8060 o         1 T8B     -0.260000
     45 H2         -4.8910    0.8310   -0.7450 ha        1 T8B      0.091000
     46 H3         -5.0220   -0.6930   -0.2560 ha        1 T8B      0.091000
     47 H4         -2.8470    2.1790    0.0260 ha        1 T8B      0.210000
     48 H5         -0.7630    3.2860    0.9260 ha        1 T8B      0.148000
     49 H6          1.4310    4.4720    0.7060 ha        1 T8B      0.148000
     50 H7          3.6370    5.6860    0.9950 ha        1 T8B      0.169000
     51 H8          7.2130    8.4070    1.2920 h1        1 T8B      0.089667
     52 H9          8.4130    7.6060    1.9900 h1        1 T8B      0.089667
     53 H10         8.4810    7.9550    0.4250 h1        1 T8B      0.089667
     54 H11         4.5050   -0.0390    1.2020 ho        1 T8B      0.256000
     55 H12         1.7580   -1.3610    2.9630 h1        1 T8B      0.077333
     56 H13         3.2400   -1.4960    2.3620 h1        1 T8B      0.077333
     57 H14         2.1540   -2.6450    2.0840 h1        1 T8B      0.077333
     58 H15        -1.4360   -2.7090    2.6210 h1        1 T8B      0.092333
     59 H16         0.1380   -2.8800    2.8690 h1        1 T8B      0.092333
     60 H17        -0.6540   -3.9490    1.9680 h1        1 T8B      0.092333
     61 H18        -2.3810   -2.1590   -2.2160 ha        1 T8B      0.166000
     62 H19        -3.4590   -5.7110   -1.0740 ho        1 T8B      0.227500
     63 H20        -1.6830   -4.7550   -3.8450 ha        1 T8B      0.156000
     64 H21        -2.2430   -5.3880   -6.0620 ha        1 T8B      0.139000
     65 H22        -4.4990   -5.2780   -6.7910 ha        1 T8B      0.132000
     66 H23        -6.1870   -4.5160   -5.3110 ha        1 T8B      0.132000
     67 H24        -6.6800   -4.2970   -2.9610 ho        1 T8B      0.227500
@<TRIPOS>BOND
     1    1    2 1   
     2    2    3 1   
     3    4    5 1   
     4    4   45 1   
     5    4   46 1   
     6    5    6 1   
     7    6   47 1   
     8    7    8 1   
     9    8   48 1   
    10    9   10 1   
    11   10   49 1   
    12   11   21 1   
    13   12   13 1   
    14   12   50 1   
    15   13   18 1   
    16   14   15 1   
    17   16   17 1   
    18   17   51 1   
    19   17   52 1   
    20   17   53 1   
    21   18   19 1   
    22   19   20 1   
    23   19   21 1   
    24   21   22 1   
    25   22   23 1   
    26   22   24 1   
    27   23   54 1   
    28   24   25 1   
    29   25   26 1   
    30   25   28 1   
    31   26   27 1   
    32   27   55 1   
    33   27   56 1   
    34   27   57 1   
    35   28   29 1   
    36   29   30 1   
    37   29   32 1   
    38   30   31 1   
    39   31   58 1   
    40   31   59 1   
    41   31   60 1   
    42   32   33 1   
    43   33   34 1   
    44   33   35 1   
    45   35   36 1   
    46   35   61 1   
    47   36   38 1   
    48   37   62 1   
    49   38   39 1   
    50   38   43 1   
    51   39   40 1   
    52   39   63 1   
    53   40   64 1   
    54   41   42 1   
    55   41   65 1   
    56   42   66 1   
    57   44   67 1   
@<TRIPOS>SUBSTRUCTURE
     1 T8B         1 TEMP              0 ****  ****    0 ROOT
