@<TRIPOS>MOLECULE
T8B
   67    71     1     0     0
SMALL
bcc


@<TRIPOS>ATOM
      1 O1          0.3620    1.1320   -0.2860 o         1 T8B     -0.834300
      2 C1          1.3590    0.9930   -1.0430 c         1 T8B      0.915600
      3 O2          1.7670    1.8730   -1.8550 o         1 T8B     -0.834300
      4 C2          2.0930   -0.3670   -0.9910 c3        1 T8B     -0.192100
      5 C3          3.5570   -0.3040   -0.7670 ca        1 T8B      0.032700
      6 C4          4.2560    0.8810   -0.7700 ca        1 T8B     -0.137000
      7 C5          5.6600    0.9210   -0.5470 ca        1 T8B      0.017000
      8 C6          6.3450    2.1510   -0.5600 ca        1 T8B     -0.123000
      9 C7          7.7160    2.2200   -0.3450 ca        1 T8B     -0.006000
     10 C8          8.4000    3.4790   -0.3820 ca        1 T8B     -0.113000
     11 C9          9.7480    3.5570   -0.1740 ca        1 T8B     -0.025800
     12 C10        10.4570    4.8160   -0.2160 cc        1 T8B     -0.089200
     13 C11        11.7900    4.8620   -0.0030 cd        1 T8B      0.021900
     14 C12        12.5630    6.1150   -0.0340 c         1 T8B      0.651300
     15 O3         12.1240    7.2490   -0.2520 o         1 T8B     -0.543000
     16 O4         13.8980    5.9640    0.2070 os        1 T8B     -0.401900
     17 C13        14.6830    7.1570    0.1850 c3        1 T8B      0.123700
     18 O5         12.5730    3.7530    0.2660 os        1 T8B     -0.301200
     19 C14        11.9490    2.5120    0.3210 c         1 T8B      0.754200
     20 O6         12.7810    1.6300    0.5730 o         1 T8B     -0.625500
     21 C15        10.5220    2.3730    0.1010 ca        1 T8B     -0.312600
     22 C16         9.8790    1.1400    0.1470 ca        1 T8B      0.286100
     23 O7         10.5070   -0.0340    0.4230 oh        1 T8B     -0.476100
     24 C17         8.4570    1.0230   -0.0850 ca        1 T8B     -0.117000
     25 C18         7.7770   -0.2080   -0.0790 ca        1 T8B      0.186100
     26 O8          8.5140   -1.3750    0.0580 os        1 T8B     -0.339900
     27 C19         8.5760   -1.8590    1.4040 c3        1 T8B      0.131700
     28 C20         6.3840   -0.2870   -0.3160 ca        1 T8B     -0.087000
     29 C21         5.6390   -1.5130   -0.3420 ca        1 T8B      0.121100
     30 O9          6.3020   -2.7060   -0.0710 os        1 T8B     -0.345900
     31 C22         6.7590   -3.3730   -1.2490 c3        1 T8B      0.118700
     32 C23         4.2750   -1.5270   -0.5580 ca        1 T8B     -0.155600
     33 C24         3.5270   -2.8110   -0.5920 c         1 T8B      0.616900
     34 O10         3.1950   -3.4120    0.4430 o         1 T8B     -0.566100
     35 C25         3.2290   -3.3100   -1.9330 ce        1 T8B     -0.385200
     36 C26         2.5790   -4.4700   -2.2070 cf        1 T8B      0.251900
     37 O11         2.1230   -5.3640   -1.2830 oh        1 T8B     -0.493100
     38 C27         2.3240   -4.9070   -3.5870 ca        1 T8B     -0.101800
     39 C28         3.3320   -4.7870   -4.5500 ca        1 T8B     -0.067000
     40 C29         3.1110   -5.1770   -5.8690 ca        1 T8B     -0.175000
     41 C30         1.8710   -5.6920   -6.2470 ca        1 T8B     -0.078000
     42 C31         0.8500   -5.8200   -5.3110 ca        1 T8B     -0.227000
     43 C32         1.0740   -5.4300   -3.9800 ca        1 T8B      0.170100
     44 O12         0.0990   -5.5300   -3.0200 oh        1 T8B     -0.468100
     45 H2          1.6260   -0.9870   -0.1790 hc        1 T8B      0.055700
     46 H3          1.9050   -0.8830   -1.9710 hc        1 T8B      0.055700
     47 H4          3.7110    1.8270   -0.9710 ha        1 T8B      0.211000
     48 H5          5.7700    3.0730   -0.7480 ha        1 T8B      0.154000
     49 H6          7.8060    4.3830   -0.5870 ha        1 T8B      0.144000
     50 H7          9.8910    5.7390   -0.4250 ha        1 T8B      0.170000
     51 H8         15.7160    6.7920    0.4040 h1        1 T8B      0.050700
     52 H9         14.6210    7.6370   -0.8210 h1        1 T8B      0.050700
     53 H10        14.3230    7.8650    0.9700 h1        1 T8B      0.050700
     54 H11        11.4670    0.1030    0.5150 ho        1 T8B      0.457000
     55 H12         9.1390   -2.8190    1.3060 h1        1 T8B      0.043700
     56 H13         9.1340   -1.1330    2.0420 h1        1 T8B      0.043700
     57 H14         7.5470   -2.0380    1.8010 h1        1 T8B      0.043700
     58 H15         7.5370   -2.7560   -1.7600 h1        1 T8B      0.039033
     59 H16         5.8990   -3.5780   -1.9350 h1        1 T8B      0.039033
     60 H17         7.1970   -4.3260   -0.8630 h1        1 T8B      0.039033
     61 H18         3.5330   -2.6560   -2.7650 ha        1 T8B      0.158000
     62 H19         2.1780   -4.9690   -0.3940 ho        1 T8B      0.461000
     63 H20         4.3100   -4.3740   -4.2530 ha        1 T8B      0.144000
     64 H21         3.9140   -5.0740   -6.6120 ha        1 T8B      0.134000
     65 H22         1.6960   -5.9970   -7.2890 ha        1 T8B      0.129000
     66 H23        -0.1310   -6.2180   -5.6060 ha        1 T8B      0.132000
     67 H24        -0.7180   -5.8190   -3.4530 ho        1 T8B      0.416000
@<TRIPOS>BOND
     1    1    2 1   
     2    2    3 1   
     3    2    4 1   
     4    4    5 1   
     5    4   45 1   
     6    4   46 1   
     7    5    6 ar  
     8    5   32 ar  
     9    6    7 ar  
    10    6   47 1   
    11    7    8 ar  
    12    7   28 ar  
    13    8    9 ar  
    14    8   48 1   
    15    9   10 ar  
    16    9   24 ar  
    17   10   11 ar  
    18   10   49 1   
    19   11   12 1   
    20   11   21 ar  
    21   12   13 2   
    22   12   50 1   
    23   13   14 1   
    24   13   18 1   
    25   14   15 2   
    26   14   16 1   
    27   16   17 1   
    28   17   51 1   
    29   17   52 1   
    30   17   53 1   
    31   18   19 1   
    32   19   20 2   
    33   19   21 1   
    34   21   22 ar  
    35   22   23 1   
    36   22   24 ar  
    37   23   54 1   
    38   24   25 ar  
    39   25   26 1   
    40   25   28 ar  
    41   26   27 1   
    42   27   55 1   
    43   27   56 1   
    44   27   57 1   
    45   28   29 ar  
    46   29   30 1   
    47   29   32 ar  
    48   30   31 1   
    49   31   58 1   
    50   31   59 1   
    51   31   60 1   
    52   32   33 1   
    53   33   34 2   
    54   33   35 1   
    55   35   36 2   
    56   35   61 1   
    57   36   37 1   
    58   36   38 1   
    59   37   62 1   
    60   38   39 ar  
    61   38   43 ar  
    62   39   40 ar  
    63   39   63 1   
    64   40   41 ar  
    65   40   64 1   
    66   41   42 ar  
    67   41   65 1   
    68   42   43 ar  
    69   42   66 1   
    70   43   44 1   
    71   44   67 1   
@<TRIPOS>SUBSTRUCTURE
     1 T8B         1 TEMP              0 ****  ****    0 ROOT
