@<TRIPOS>MOLECULE
T8N
   19    18     1     0     0
SMALL
bcc


@<TRIPOS>ATOM
      1 OG1        -0.2630    0.2880    0.4210 o         1 T8N     -0.570000
      2 CGC         0.9220    0.1030    0.1420 c         1 T8N      0.678100
      3 OG2         1.7190   -0.2860    1.2200 os        1 T8N     -0.479900
      4 C16         1.0680   -0.4760    2.4620 c3        1 T8N      0.140700
      5 CG          1.7410    0.2520   -1.0980 c3        1 T8N     -0.081200
      6 CB          0.9630    0.1540   -2.3620 ce        1 T8N     -0.187400
      7 C2C         0.6150   -1.2560   -2.7990 c         1 T8N      0.897800
      8 OB2         1.1860   -2.2320   -2.2160 o         1 T8N     -0.871300
      9 OB1        -0.2090   -1.4400   -3.7450 o         1 T8N     -0.871300
     10 CA          0.6800    1.2170   -3.1280 cf        1 T8N     -0.179200
     11 C1C         1.0320    2.6620   -2.9080 c         1 T8N      0.888800
     12 OA1         2.0080    3.0020   -2.1650 o         1 T8N     -0.874800
     13 OA2         0.3470    3.5390   -3.5240 o         1 T8N     -0.874800
     14 H16         1.8740   -0.8240    3.1540 h1        1 T8N      0.018700
     15 H16A        0.6230    0.4850    2.8190 h1        1 T8N      0.018700
     16 H16B        0.2630   -1.2460    2.3680 h1        1 T8N      0.018700
     17 HG          2.2520    1.2590   -1.0320 hc        1 T8N      0.102200
     18 HGA         2.5180   -0.5620   -1.0940 hc        1 T8N      0.102200
     19 HA          0.1150    1.0440   -4.0620 ha        1 T8N      0.123000
@<TRIPOS>BOND
     1    1    2 2   
     2    2    3 1   
     3    2    5 1   
     4    3    4 1   
     5    4   14 1   
     6    4   15 1   
     7    4   16 1   
     8    5    6 1   
     9    5   17 1   
    10    5   18 1   
    11    6    7 1   
    12    6   10 2   
    13    7    8 1   
    14    7    9 1   
    15   10   11 1   
    16   10   19 1   
    17   11   12 1   
    18   11   13 1   
@<TRIPOS>SUBSTRUCTURE
     1 T8N         1 TEMP              0 ****  ****    0 ROOT
