@<TRIPOS>MOLECULE
T8N
   19    18     1     0     0
SMALL
bcc


@<TRIPOS>ATOM
      1 OG1        -0.2340    0.3050    0.4480 o         1 T8N     -0.570000
      2 CGC         0.9440    0.1120    0.1450 c         1 T8N      0.678100
      3 OG2         1.7610   -0.2740    1.2100 os        1 T8N     -0.479900
      4 C16         1.1350   -0.4520    2.4660 c3        1 T8N      0.140700
      5 CG          1.7370    0.2490   -1.1120 c3        1 T8N     -0.081200
      6 CB          0.9320    0.1430   -2.3590 ce        1 T8N     -0.187400
      7 C2C         0.5690   -1.2680   -2.7770 c         1 T8N      0.897800
      8 OB2         1.1470   -2.2430   -2.1980 o         1 T8N     -0.871300
      9 OB1        -0.2750   -1.4560   -3.7050 o         1 T8N     -0.871300
     10 CA          0.6380    1.2020   -3.1270 cf        1 T8N     -0.179200
     11 C1C         1.0010    2.6470   -2.9270 c         1 T8N      0.888800
     12 OA1         1.9930    2.9890   -2.2070 o         1 T8N     -0.874800
     13 OA2         0.3070    3.5220   -3.5350 o         1 T8N     -0.874800
     14 H16         1.9540   -0.7990    3.1430 h1        1 T8N      0.018700
     15 H16A        0.7040    0.5140    2.8260 h1        1 T8N      0.018700
     16 H16B        0.3250   -1.2180    2.3940 h1        1 T8N      0.018700
     17 HG          2.2530    1.2540   -1.0650 hc        1 T8N      0.102200
     18 HGA         2.5110   -0.5690   -1.1180 hc        1 T8N      0.102200
     19 HA          0.0520    1.0240   -4.0480 ha        1 T8N      0.123000
@<TRIPOS>BOND
     1    1    2 2   
     2    2    3 1   
     3    2    5 1   
     4    3    4 1   
     5    4   14 1   
     6    4   15 1   
     7    4   16 1   
     8    5    6 1   
     9    5   17 1   
    10    5   18 1   
    11    6    7 1   
    12    6   10 2   
    13    7    8 1   
    14    7    9 1   
    15   10   11 1   
    16   10   19 1   
    17   11   12 1   
    18   11   13 1   
@<TRIPOS>SUBSTRUCTURE
     1 T8N         1 TEMP              0 ****  ****    0 ROOT
