@<TRIPOS>MOLECULE
T8N
   19    16     1     0     0
SMALL
bcc


@<TRIPOS>ATOM
      1 OG1        -0.9910   -0.3120    1.3630 o         1 T8N     -0.381000
      2 CGC        -0.1480    0.4820    0.9940 c1        1 T8N      0.349000
      3 OG2        -0.0220    1.7230    1.6400 os        1 T8N     -0.318000
      4 C16        -0.6290    1.7680    2.9130 c3        1 T8N     -0.049000
      5 CG          0.7340    0.1530   -0.1900 c2        1 T8N     -0.114000
      6 CB         -0.1080   -0.4410   -1.2960 c2        1 T8N     -0.164000
      7 C2C        -1.4640    0.1460   -1.6110 c2        1 T8N      0.348000
      8 OB2        -1.5490    1.2420   -2.2240 o         1 T8N     -0.606000
      9 OB1        -2.5100   -0.4610   -1.2590 o         1 T8N     -0.606000
     10 CA          0.3510   -1.4930   -2.0000 c1        1 T8N     -0.160000
     11 C1C         1.7080   -2.0800   -1.6850 c1        1 T8N      0.339000
     12 OA1         2.7430   -1.5880   -2.2050 o         1 T8N     -0.609500
     13 OA2         1.8010   -3.0770   -0.9210 o         1 T8N     -0.609500
     14 H16        -0.2380    1.0740    3.4870 h1        1 T8N      0.058000
     15 H16A       -1.5940    1.6120    2.8220 h1        1 T8N      0.058000
     16 H16B       -0.4770    2.6500    3.3170 h1        1 T8N      0.058000
     17 HG          1.1660    0.9700   -0.5120 ha        1 T8N      0.141500
     18 HGA         1.4170   -0.4920    0.0820 ha        1 T8N      0.141500
     19 HA         -0.1920   -1.8760   -2.7140 ha        1 T8N      0.123000
@<TRIPOS>BOND
     1    1    2 1   
     2    2    3 1   
     3    3    4 1   
     4    4   14 1   
     5    4   15 1   
     6    4   16 1   
     7    5    6 1   
     8    5   17 1   
     9    5   18 1   
    10    6    7 1   
    11    6   10 1   
    12    7    8 1   
    13    7    9 1   
    14   10   19 1   
    15   11   12 1   
    16   11   13 1   
@<TRIPOS>SUBSTRUCTURE
     1 T8N         1 TEMP              0 ****  ****    0 ROOT
