@<TRIPOS>MOLECULE
T8N
   19    18     1     0     0
SMALL
bcc


@<TRIPOS>ATOM
      1 OG1        -1.6300    0.0070    1.4580 o         1 T8N     -0.570000
      2 CGC        -1.5730    0.1240    0.2340 c         1 T8N      0.678100
      3 OG2        -2.8010    0.3670   -0.3840 os        1 T8N     -0.479900
      4 C16        -3.9270    0.5080    0.4620 c3        1 T8N      0.140700
      5 CG         -0.4820    0.0110   -0.7790 c3        1 T8N     -0.081200
      6 CB          0.8810    0.2680   -0.2420 ce        1 T8N     -0.187400
      7 C2C         1.2420    1.7300   -0.0620 c         1 T8N      0.897800
      8 OB2         0.4840    2.6110   -0.5800 o         1 T8N     -0.871300
      9 OB1         2.2930    2.0500    0.5700 o         1 T8N     -0.871300
     10 CA          1.7780   -0.7070   -0.0340 cf        1 T8N     -0.179200
     11 C1C         1.6340   -2.1870   -0.2530 c         1 T8N      0.888800
     12 OA1         0.7700   -2.6580   -1.0600 o         1 T8N     -0.874800
     13 OA2         2.4340   -2.9580    0.3650 o         1 T8N     -0.874800
     14 H16        -4.7740    0.7390   -0.2300 h1        1 T8N      0.018700
     15 H16A       -4.1160   -0.4420    1.0200 h1        1 T8N      0.018700
     16 H16B       -3.7670    1.3410    1.1900 h1        1 T8N      0.018700
     17 HG         -0.5420   -1.0340   -1.2070 hc        1 T8N      0.102200
     18 HGA        -0.6910    0.7610   -1.5920 hc        1 T8N      0.102200
     19 HA          2.7750   -0.4190    0.3480 ha        1 T8N      0.123000
@<TRIPOS>BOND
     1    1    2 2   
     2    2    3 1   
     3    2    5 1   
     4    3    4 1   
     5    4   14 1   
     6    4   15 1   
     7    4   16 1   
     8    5    6 1   
     9    5   17 1   
    10    5   18 1   
    11    6    7 1   
    12    6   10 2   
    13    7    8 1   
    14    7    9 1   
    15   10   11 1   
    16   10   19 1   
    17   11   12 1   
    18   11   13 1   
@<TRIPOS>SUBSTRUCTURE
     1 T8N         1 TEMP              0 ****  ****    0 ROOT
