@<TRIPOS>MOLECULE
T94
   41    38     1     0     0
SMALL
bcc


@<TRIPOS>ATOM
      1 C1         -0.9610   -3.5300   -4.4410 c1        1 T94      0.098000
      2 C2          0.2850   -4.1330   -4.5180 c2        1 T94     -0.117000
      3 C3          1.3620   -3.5880   -3.8370 c1        1 T94      0.099000
      4 C4          1.1940   -2.4400   -3.0790 c1        1 T94     -0.156000
      5 C5         -0.0510   -1.8360   -3.0030 c1        1 T94     -0.089000
      6 C6         -1.1290   -2.3810   -3.6830 c1        1 T94     -0.135000
      7 O7          2.6340   -4.1800   -3.9450 oh        1 T94     -0.244000
      8 O8          0.4620   -5.2830   -5.3100 oh        1 T94     -0.272000
      9 O9         -2.0500   -4.0710   -5.1480 o         1 T94     -0.239000
     10 C10        -0.2310   -0.5740   -2.1870 c2        1 T94      0.266000
     11 C11         0.9420    0.0130   -1.4310 c3        1 T94     -0.204000
     12 C12         0.4860    1.2340   -0.6610 c3        1 T94     -0.153000
     13 C13         0.8470    1.0720    0.8000 c3        1 T94     -0.159000
     14 C14         0.2750    2.2290    1.5920 c3        1 T94     -0.156000
     15 C15        -0.0870    1.7580    2.9840 c3        1 T94     -0.158000
     16 C16        -0.3340    2.9560    3.8750 c3        1 T94     -0.158000
     17 C17        -1.1430    2.5310    5.0810 c3        1 T94     -0.159000
     18 C18        -1.2170    3.6750    6.0680 c3        1 T94     -0.210000
     19 O19        -1.3230   -0.0450   -2.1200 o         1 T94     -0.280000
     20 H1          1.9530   -2.0560   -2.6000 ha        1 T94      0.158000
     21 H2         -2.0060   -1.9560   -3.6290 ha        1 T94      0.175000
     22 H3          2.7580   -4.7430   -3.2670 ho        1 T94      0.234000
     23 H4          0.7750   -5.0470   -6.1080 ho        1 T94      0.216000
     24 H5         -2.5240   -4.5940   -4.6080 ho        1 T94      0.232000
     25 H6          1.6420    0.2690   -2.0640 hc        1 T94      0.108500
     26 H7          1.2940   -0.6530   -0.8080 hc        1 T94      0.108500
     27 H8         -0.4830    1.3320   -0.7480 hc        1 T94      0.092500
     28 H9          0.9280    2.0300   -1.0200 hc        1 T94      0.092500
     29 H10         0.4760    0.2320    1.1370 hc        1 T94      0.082000
     30 H11         1.8200    1.0610    0.8960 hc        1 T94      0.082000
     31 H12         0.9410    2.9430    1.6530 hc        1 T94      0.080500
     32 H13        -0.5250    2.5670    1.1440 hc        1 T94      0.080500
     33 H14         0.6480    1.2250    3.3500 hc        1 T94      0.079000
     34 H15        -0.8970    1.2100    2.9420 hc        1 T94      0.079000
     35 H16        -0.8270    3.6380    3.3750 hc        1 T94      0.079000
     36 H17         0.5230    3.3250    4.1700 hc        1 T94      0.079000
     37 H18        -0.7150    1.7600    5.5050 hc        1 T94      0.077500
     38 H19        -2.0470    2.2860    4.7970 hc        1 T94      0.077500
     39 H20        -0.3130    3.9000    6.3750 hc        1 T94      0.071333
     40 H21        -1.7650    3.4090    6.8360 hc        1 T94      0.071333
     41 H22        -1.6190    4.4560    5.6340 hc        1 T94      0.071333
@<TRIPOS>BOND
     1    1    2 1   
     2    1    6 1   
     3    2    3 1   
     4    2    8 1   
     5    3    7 1   
     6    4    5 1   
     7    4   20 1   
     8    5   10 1   
     9    6   21 1   
    10    7   22 1   
    11    8   23 1   
    12    9   24 1   
    13   10   11 1   
    14   10   19 1   
    15   11   12 1   
    16   11   25 1   
    17   11   26 1   
    18   12   13 1   
    19   12   27 1   
    20   12   28 1   
    21   13   14 1   
    22   13   29 1   
    23   13   30 1   
    24   14   15 1   
    25   14   31 1   
    26   14   32 1   
    27   15   16 1   
    28   15   33 1   
    29   15   34 1   
    30   16   17 1   
    31   16   35 1   
    32   16   36 1   
    33   17   18 1   
    34   17   37 1   
    35   17   38 1   
    36   18   39 1   
    37   18   40 1   
    38   18   41 1   
@<TRIPOS>SUBSTRUCTURE
     1 T94         1 TEMP              0 ****  ****    0 ROOT
