@<TRIPOS>MOLECULE
T94
   41    41     1     0     0
SMALL
bcc


@<TRIPOS>ATOM
      1 C1         -3.6780   -1.4030   -0.1080 ca        1 T94      0.141600
      2 C2         -4.7180   -0.5310    0.2610 ca        1 T94     -0.069900
      3 C3         -4.4650    0.8480    0.3630 ca        1 T94      0.141600
      4 C4         -3.1740    1.3460    0.1390 ca        1 T94     -0.143500
      5 C5         -2.1420    0.4620   -0.1920 ca        1 T94     -0.111600
      6 C6         -2.3840   -0.9090   -0.3270 ca        1 T94     -0.143500
      7 O7         -5.4470    1.7440    0.7010 oh        1 T94     -0.488100
      8 O8         -6.0040   -1.0170    0.4170 oh        1 T94     -0.518100
      9 O9         -3.8760   -2.7540   -0.2450 oh        1 T94     -0.488100
     10 C10        -0.7820    1.0200   -0.4110 c         1 T94      0.574700
     11 C11         0.3620    0.0510   -0.3060 c3        1 T94     -0.175400
     12 C12         1.7010    0.7510   -0.2160 c3        1 T94     -0.076400
     13 C13         2.8340   -0.2500   -0.1600 c3        1 T94     -0.078400
     14 C14         4.1740    0.4480   -0.0600 c3        1 T94     -0.078400
     15 C15         5.3100   -0.5500   -0.0060 c3        1 T94     -0.079400
     16 C16         6.6500    0.1470    0.0930 c3        1 T94     -0.079400
     17 C17         7.7880   -0.8500    0.1470 c3        1 T94     -0.080400
     18 C18         9.1230   -0.1590    0.2470 c3        1 T94     -0.093100
     19 O19        -0.6150    2.2190   -0.6580 o         1 T94     -0.521100
     20 H1         -2.9790    2.4270    0.2170 ha        1 T94      0.167500
     21 H2         -1.5880   -1.6130   -0.6070 ha        1 T94      0.167500
     22 H3         -6.3000    1.2810    0.6420 ho        1 T94      0.434000
     23 H4         -6.1010   -1.2210    1.3610 ho        1 T94      0.417000
     24 H5         -4.8340   -2.9140   -0.2230 ho        1 T94      0.434000
     25 H6          0.2090   -0.6010    0.5950 hc        1 T94      0.069200
     26 H7          0.3410   -0.6120   -1.2130 hc        1 T94      0.069200
     27 H8          1.8290    1.4280   -1.1020 hc        1 T94      0.055700
     28 H9          1.7210    1.4030    0.6970 hc        1 T94      0.055700
     29 H10         2.6970   -0.9270    0.7250 hc        1 T94      0.038200
     30 H11         2.8140   -0.8960   -1.0770 hc        1 T94      0.038200
     31 H12         4.3100    1.1260   -0.9440 hc        1 T94      0.042200
     32 H13         4.1950    1.0930    0.8580 hc        1 T94      0.042200
     33 H14         5.1730   -1.2290    0.8760 hc        1 T94      0.038700
     34 H15         5.2900   -1.1950   -0.9250 hc        1 T94      0.038700
     35 H16         6.7870    0.8260   -0.7890 hc        1 T94      0.040200
     36 H17         6.6710    0.7910    1.0120 hc        1 T94      0.040200
     37 H18         7.6480   -1.5290    1.0300 hc        1 T94      0.038200
     38 H19         7.7640   -1.4940   -0.7710 hc        1 T94      0.038200
     39 H20         9.2920    0.5040   -0.6360 hc        1 T94      0.032700
     40 H21         9.1750    0.4690    1.1690 hc        1 T94      0.032700
     41 H22         9.9480   -0.9110    0.2850 hc        1 T94      0.032700
@<TRIPOS>BOND
     1    1    2 ar  
     2    1    6 ar  
     3    1    9 1   
     4    2    3 ar  
     5    2    8 1   
     6    3    4 ar  
     7    3    7 1   
     8    4    5 ar  
     9    4   20 1   
    10    5    6 ar  
    11    5   10 1   
    12    6   21 1   
    13    7   22 1   
    14    8   23 1   
    15    9   24 1   
    16   10   11 1   
    17   10   19 2   
    18   11   12 1   
    19   11   25 1   
    20   11   26 1   
    21   12   13 1   
    22   12   27 1   
    23   12   28 1   
    24   13   14 1   
    25   13   29 1   
    26   13   30 1   
    27   14   15 1   
    28   14   31 1   
    29   14   32 1   
    30   15   16 1   
    31   15   33 1   
    32   15   34 1   
    33   16   17 1   
    34   16   35 1   
    35   16   36 1   
    36   17   18 1   
    37   17   37 1   
    38   17   38 1   
    39   18   39 1   
    40   18   40 1   
    41   18   41 1   
@<TRIPOS>SUBSTRUCTURE
     1 T94         1 TEMP              0 ****  ****    0 ROOT
