@<TRIPOS>MOLECULE
T94
   41    41     1     0     0
SMALL
bcc


@<TRIPOS>ATOM
      1 C1         -0.1550   -0.0520   -0.0290 ca        1 T94      0.094600
      2 C2          1.2510   -0.0560   -0.1060 ca        1 T94      0.048100
      3 C3          2.0010   -0.0500    1.0850 ca        1 T94      0.094600
      4 C4          1.3610   -0.0410    2.3260 ca        1 T94     -0.140000
      5 C5         -0.0380   -0.0370    2.3900 ca        1 T94     -0.139600
      6 C6         -0.7970   -0.0430    1.2180 ca        1 T94     -0.140000
      7 O7          3.3720   -0.0540    0.9350 oh        1 T94     -0.503100
      8 O8          1.8120   -0.0640   -1.3630 oh        1 T94     -0.509100
      9 O9         -0.9560   -0.0570   -1.1450 oh        1 T94     -0.503100
     10 C10        -0.6760   -0.0280    3.7300 c         1 T94      0.579700
     11 C11        -2.1770   -0.0240    3.7680 c3        1 T94     -0.175400
     12 C12        -2.7180   -0.0150    5.1820 c3        1 T94     -0.075400
     13 C13        -4.2310   -0.0110    5.1840 c3        1 T94     -0.079400
     14 C14        -4.7740   -0.0020    6.5980 c3        1 T94     -0.078400
     15 C15        -6.2870    0.0020    6.6040 c3        1 T94     -0.079400
     16 C16        -6.8300    0.0100    8.0170 c3        1 T94     -0.079400
     17 C17        -8.3440    0.0150    8.0260 c3        1 T94     -0.080400
     18 C18        -8.8890    0.0230    9.4310 c3        1 T94     -0.093100
     19 O19         0.0100   -0.0230    4.7610 o         1 T94     -0.535100
     20 H1          1.9470   -0.0370    3.2590 ha        1 T94      0.160500
     21 H2         -1.8970   -0.0400    1.2370 ha        1 T94      0.160500
     22 H3          3.7660   -0.0490    1.8190 ho        1 T94      0.439000
     23 H4          2.7760   -0.0660   -1.2580 ho        1 T94      0.451000
     24 H5         -0.3810   -0.0630   -1.9270 ho        1 T94      0.439000
     25 H6         -2.5460    0.8800    3.2140 hc        1 T94      0.069700
     26 H7         -2.5500   -0.9330    3.2240 hc        1 T94      0.069700
     27 H8         -2.3350   -0.9140    5.7330 hc        1 T94      0.055700
     28 H9         -2.3300    0.8880    5.7230 hc        1 T94      0.055700
     29 H10        -4.6080    0.8900    4.6320 hc        1 T94      0.038700
     30 H11        -4.6130   -0.9150    4.6410 hc        1 T94      0.038700
     31 H12        -4.3920    0.9010    7.1410 hc        1 T94      0.042700
     32 H13        -4.3970   -0.9040    7.1500 hc        1 T94      0.042700
     33 H14        -6.6690   -0.9010    6.0600 hc        1 T94      0.038700
     34 H15        -6.6630    0.9040    6.0520 hc        1 T94      0.038700
     35 H16        -6.4540   -0.8910    8.5700 hc        1 T94      0.039700
     36 H17        -6.4480    0.9130    8.5620 hc        1 T94      0.039700
     37 H18        -8.7170    0.9170    7.4730 hc        1 T94      0.038700
     38 H19        -8.7240   -0.8880    7.4790 hc        1 T94      0.038700
     39 H20        -8.5410    0.9280    9.9840 hc        1 T94      0.032700
     40 H21       -10.0050    0.0270    9.4150 hc        1 T94      0.032700
     41 H22        -8.5470   -0.8810    9.9910 hc        1 T94      0.032700
@<TRIPOS>BOND
     1    1    2 ar  
     2    1    6 ar  
     3    1    9 1   
     4    2    3 ar  
     5    2    8 1   
     6    3    4 ar  
     7    3    7 1   
     8    4    5 ar  
     9    4   20 1   
    10    5    6 ar  
    11    5   10 1   
    12    6   21 1   
    13    7   22 1   
    14    8   23 1   
    15    9   24 1   
    16   10   11 1   
    17   10   19 2   
    18   11   12 1   
    19   11   25 1   
    20   11   26 1   
    21   12   13 1   
    22   12   27 1   
    23   12   28 1   
    24   13   14 1   
    25   13   29 1   
    26   13   30 1   
    27   14   15 1   
    28   14   31 1   
    29   14   32 1   
    30   15   16 1   
    31   15   33 1   
    32   15   34 1   
    33   16   17 1   
    34   16   35 1   
    35   16   36 1   
    36   17   18 1   
    37   17   37 1   
    38   17   38 1   
    39   18   39 1   
    40   18   40 1   
    41   18   41 1   
@<TRIPOS>SUBSTRUCTURE
     1 T94         1 TEMP              0 ****  ****    0 ROOT
