@<TRIPOS>MOLECULE
T94
   41    41     1     0     0
SMALL
bcc


@<TRIPOS>ATOM
      1 C1         -0.1590   -0.0550   -0.0310 ca        1 T94      0.094600
      2 C2          1.2480   -0.0580   -0.1100 ca        1 T94      0.048100
      3 C3          1.9980   -0.0490    1.0810 ca        1 T94      0.094600
      4 C4          1.3600   -0.0370    2.3230 ca        1 T94     -0.140000
      5 C5         -0.0400   -0.0340    2.3880 ca        1 T94     -0.139600
      6 C6         -0.8000   -0.0430    1.2160 ca        1 T94     -0.140000
      7 O7          3.3700   -0.0520    0.9300 oh        1 T94     -0.503100
      8 O8          1.8080   -0.0690   -1.3660 oh        1 T94     -0.509100
      9 O9         -0.9600   -0.0630   -1.1470 oh        1 T94     -0.503100
     10 C10        -0.6760   -0.0220    3.7280 c         1 T94      0.579700
     11 C11        -2.1780   -0.0220    3.7670 c3        1 T94     -0.175400
     12 C12        -2.7180   -0.0110    5.1810 c3        1 T94     -0.075400
     13 C13        -4.2310   -0.0110    5.1850 c3        1 T94     -0.079400
     14 C14        -4.7720   -0.0000    6.5990 c3        1 T94     -0.078400
     15 C15        -6.2860   -0.0010    6.6070 c3        1 T94     -0.079400
     16 C16        -6.8270    0.0100    8.0200 c3        1 T94     -0.079400
     17 C17        -8.3410    0.0100    8.0300 c3        1 T94     -0.080400
     18 C18        -8.8850    0.0210    9.4350 c3        1 T94     -0.093100
     19 O19         0.0100   -0.0120    4.7580 o         1 T94     -0.535100
     20 H1          1.9460   -0.0300    3.2560 ha        1 T94      0.160500
     21 H2         -1.9000   -0.0410    1.2360 ha        1 T94      0.160500
     22 H3          3.7640   -0.0450    1.8150 ho        1 T94      0.439000
     23 H4          2.7720   -0.0700   -1.2620 ho        1 T94      0.451000
     24 H5         -0.3860   -0.0700   -1.9290 ho        1 T94      0.439000
     25 H6         -2.5500    0.8800    3.2110 hc        1 T94      0.069700
     26 H7         -2.5490   -0.9330    3.2260 hc        1 T94      0.069700
     27 H8         -2.3320   -0.9070    5.7350 hc        1 T94      0.055700
     28 H9         -2.3320    0.8940    5.7210 hc        1 T94      0.055700
     29 H10        -4.6100    0.8870    4.6300 hc        1 T94      0.038700
     30 H11        -4.6100   -0.9180    4.6450 hc        1 T94      0.038700
     31 H12        -4.3930    0.9060    7.1400 hc        1 T94      0.042700
     32 H13        -4.3920   -0.8990    7.1540 hc        1 T94      0.042700
     33 H14        -6.6650   -0.9070    6.0660 hc        1 T94      0.038700
     34 H15        -6.6650    0.8980    6.0520 hc        1 T94      0.038700
     35 H16        -6.4480   -0.8880    8.5750 hc        1 T94      0.039700
     36 H17        -6.4480    0.9170    8.5610 hc        1 T94      0.039700
     37 H18        -8.7190    0.9080    7.4730 hc        1 T94      0.038700
     38 H19        -8.7180   -0.8970    7.4870 hc        1 T94      0.038700
     39 H20        -8.5400    0.9300    9.9850 hc        1 T94      0.032700
     40 H21       -10.0010    0.0210    9.4200 hc        1 T94      0.032700
     41 H22        -8.5400   -0.8800    9.9990 hc        1 T94      0.032700
@<TRIPOS>BOND
     1    1    2 ar  
     2    1    6 ar  
     3    1    9 1   
     4    2    3 ar  
     5    2    8 1   
     6    3    4 ar  
     7    3    7 1   
     8    4    5 ar  
     9    4   20 1   
    10    5    6 ar  
    11    5   10 1   
    12    6   21 1   
    13    7   22 1   
    14    8   23 1   
    15    9   24 1   
    16   10   11 1   
    17   10   19 2   
    18   11   12 1   
    19   11   25 1   
    20   11   26 1   
    21   12   13 1   
    22   12   27 1   
    23   12   28 1   
    24   13   14 1   
    25   13   29 1   
    26   13   30 1   
    27   14   15 1   
    28   14   31 1   
    29   14   32 1   
    30   15   16 1   
    31   15   33 1   
    32   15   34 1   
    33   16   17 1   
    34   16   35 1   
    35   16   36 1   
    36   17   18 1   
    37   17   37 1   
    38   17   38 1   
    39   18   39 1   
    40   18   40 1   
    41   18   41 1   
@<TRIPOS>SUBSTRUCTURE
     1 T94         1 TEMP              0 ****  ****    0 ROOT
