@<TRIPOS>MOLECULE
T95
   83    87     1     0     0
SMALL
bcc


@<TRIPOS>ATOM
      1 O12         2.4780   -2.3610    0.8800 o         1 T95     -0.387100
      2 C7          2.0390   -1.5970    0.0300 c         1 T95      0.568700
      3 N8          0.8630   -0.7240    0.3890 n4        1 T95     -0.513200
      4 C9          0.2150   -1.0610    1.6580 ca        1 T95     -0.069400
      5 C33         0.7400   -0.5390    2.8620 ca        1 T95     -0.030800
      6 C35         1.9430    0.3260    2.8800 c3        1 T95     -0.087800
      7 C32         0.0940   -0.8530    4.0620 ca        1 T95     -0.109000
      8 C31        -1.0380   -1.6660    4.0710 ca        1 T95     -0.055000
      9 C30        -1.5470   -2.1740    2.8770 ca        1 T95     -0.109000
     10 C29        -0.9350   -1.8840    1.6550 ca        1 T95     -0.030800
     11 C34        -1.5150   -2.4180    0.4000 c3        1 T95     -0.087800
     12 C5          2.5720   -1.4800   -1.3320 ca        1 T95     -0.442200
     13 C6          3.4390   -2.5170   -1.7760 ca        1 T95      0.557200
     14 N1          3.9930   -2.5390   -2.9960 nb        1 T95     -0.684000
     15 C4          2.3290   -0.4260   -2.2620 ca        1 T95      0.754600
     16 O10         1.5540    0.6140   -1.8270 os        1 T95     -0.375400
     17 C11         0.9490    1.4600   -2.7710 ca        1 T95     -0.003900
     18 C25        -0.2920    1.0690   -3.3180 ca        1 T95      0.138100
     19 O26        -0.7170   -0.1980   -2.9870 os        1 T95     -0.375900
     20 C27        -1.8930   -0.6630   -3.6850 c3        1 T95      0.126400
     21 C28        -2.0180   -2.1340   -3.3680 c3        1 T95     -0.107100
     22 C24        -0.9910    1.9830   -4.1180 ca        1 T95     -0.181000
     23 C23        -0.4410    3.2400   -4.3650 ca        1 T95     -0.052000
     24 C22         0.7970    3.6050   -3.8290 ca        1 T95     -0.141000
     25 C21         1.5080    2.7140   -3.0290 ca        1 T95     -0.071000
     26 N3          2.8740   -0.4160   -3.5150 nb        1 T95     -0.715000
     27 C2          3.6830   -1.4730   -3.8150 ca        1 T95      0.807900
     28 N13         4.3280   -1.4650   -5.1720 n4        1 T95     -0.579100
     29 C14         5.6930   -0.9590   -5.1100 ca        1 T95     -0.211400
     30 C19         6.7600   -1.8350   -4.8130 ca        1 T95     -0.025500
     31 C18         8.0550   -1.3720   -4.8140 ca        1 T95     -0.213000
     32 C17         8.3650    0.0030   -5.0870 ca        1 T95      0.268600
     33 C16         7.2540    0.8630   -5.3880 ca        1 T95     -0.213000
     34 C15         5.9600    0.3990   -5.3860 ca        1 T95     -0.025500
     35 N20         9.6450    0.4770   -5.0320 nh        1 T95     -0.608000
     36 C40         9.9230    1.8350   -5.4720 c3        1 T95      0.196800
     37 C39        11.3500    2.3450   -5.1960 c3        1 T95      0.154800
     38 N38        12.3650    1.3420   -5.4700 n3        1 T95     -0.725600
     39 C37        12.1330    0.1660   -4.6490 c3        1 T95      0.154800
     40 C36        10.7460   -0.4610   -4.8880 c3        1 T95      0.196800
     41 C41        13.7270    1.8450   -5.3460 c3        1 T95      0.166800
     42 C42        14.1110    2.8720   -6.4180 c3        1 T95      0.127400
     43 O43        13.5380    4.1160   -6.0460 oh        1 T95     -0.619800
     44 HN8         1.2040    0.2510    0.4420 hn        1 T95      0.476800
     45 H35         1.7450    1.2970    2.3580 hc        1 T95      0.065033
     46 H35A        2.8090   -0.1870    2.3890 hc        1 T95      0.065033
     47 H35B        2.2460    0.5670    3.9320 hc        1 T95      0.065033
     48 H32         0.4900   -0.4530    5.0110 ha        1 T95      0.172000
     49 H31        -1.5330   -1.9090    5.0270 ha        1 T95      0.176000
     50 H30        -2.4460   -2.8140    2.8930 ha        1 T95      0.172000
     51 H34        -1.9170   -1.5840   -0.2320 hc        1 T95      0.065033
     52 H34A       -2.3660   -3.1130    0.6200 hc        1 T95      0.065033
     53 H34B       -0.7570   -2.9930   -0.1890 hc        1 T95      0.065033
     54 H6          3.6940   -3.3730   -1.1080 h4        1 T95      0.096100
     55 H27        -2.7770   -0.0820   -3.3110 h1        1 T95      0.062700
     56 H27A       -1.7640   -0.4970   -4.7870 h1        1 T95      0.062700
     57 H28        -2.9560   -2.5230   -3.8360 hc        1 T95      0.055367
     58 H28A       -1.1490   -2.7030   -3.7730 hc        1 T95      0.055367
     59 H28B       -2.0700   -2.3010   -2.2650 hc        1 T95      0.055367
     60 H24        -1.9710    1.7210   -4.5450 ha        1 T95      0.168000
     61 H23        -0.9970    3.9580   -4.9930 ha        1 T95      0.170000
     62 H22         1.2120    4.6050   -4.0350 ha        1 T95      0.169000
     63 H21         2.4790    2.9890   -2.5930 ha        1 T95      0.160000
     64 HN13        4.3430   -2.4320   -5.5300 hn        1 T95      0.481800
     65 H19         6.5700   -2.8990   -4.5880 ha        1 T95      0.150500
     66 H18         8.8610   -2.0950   -4.6090 ha        1 T95      0.167500
     67 H16         7.4230    1.9220   -5.6430 ha        1 T95      0.167500
     68 H15         5.1390    1.0990   -5.6200 ha        1 T95      0.150500
     69 H40         9.2230    2.5370   -4.9340 h1        1 T95      0.060700
     70 H40A        9.7210    1.8990   -6.5810 h1        1 T95      0.060700
     71 H39        11.5280    3.2290   -5.8750 h1        1 T95      0.063450
     72 H39A       11.4020    2.7140   -4.1300 h1        1 T95      0.063450
     73 H37        12.2390    0.3920   -3.5470 h1        1 T95      0.063450
     74 H37A       12.8970   -0.6180   -4.9160 h1        1 T95      0.063450
     75 H36        10.5390   -1.1260   -4.0000 h1        1 T95      0.060700
     76 H36A       10.7930   -1.1020   -5.8160 h1        1 T95      0.060700
     77 H41        13.9080    2.3090   -4.3330 h1        1 T95      0.054200
     78 H41A       14.4240    0.9670   -5.4640 h1        1 T95      0.054200
     79 H42        15.2320    2.9510   -6.4410 h1        1 T95      0.044200
     80 H42A       13.7390    2.5730   -7.4330 h1        1 T95      0.044200
     81 HO43       13.9520    4.7920   -6.5960 ho        1 T95      0.415000
     82 H82         0.1740   -0.7720   -0.3800 hn        1 T95      0.476800
     83 H132        3.7730   -0.8690   -5.8060 hn        1 T95      0.481800
@<TRIPOS>BOND
     1    1    2 2   
     2    2    3 1   
     3    2   12 1   
     4    3    4 1   
     5    3   44 1   
     6    3   82 1   
     7    4    5 ar  
     8    4   10 ar  
     9    5    6 1   
    10    5    7 ar  
    11    6   45 1   
    12    6   46 1   
    13    6   47 1   
    14    7    8 ar  
    15    7   48 1   
    16    8    9 ar  
    17    8   49 1   
    18    9   10 ar  
    19    9   50 1   
    20   10   11 1   
    21   11   51 1   
    22   11   52 1   
    23   11   53 1   
    24   12   13 ar  
    25   12   15 ar  
    26   13   14 ar  
    27   13   54 1   
    28   14   27 ar  
    29   15   16 1   
    30   15   26 ar  
    31   16   17 1   
    32   17   18 ar  
    33   17   25 ar  
    34   18   19 1   
    35   18   22 ar  
    36   19   20 1   
    37   20   21 1   
    38   20   55 1   
    39   20   56 1   
    40   21   57 1   
    41   21   58 1   
    42   21   59 1   
    43   22   23 ar  
    44   22   60 1   
    45   23   24 ar  
    46   23   61 1   
    47   24   25 ar  
    48   24   62 1   
    49   25   63 1   
    50   26   27 ar  
    51   27   28 1   
    52   28   29 1   
    53   28   64 1   
    54   28   83 1   
    55   29   30 ar  
    56   29   34 ar  
    57   30   31 ar  
    58   30   65 1   
    59   31   32 ar  
    60   31   66 1   
    61   32   33 ar  
    62   32   35 1   
    63   33   34 ar  
    64   33   67 1   
    65   34   68 1   
    66   35   36 1   
    67   35   40 1   
    68   36   37 1   
    69   36   69 1   
    70   36   70 1   
    71   37   38 1   
    72   37   71 1   
    73   37   72 1   
    74   38   39 1   
    75   38   41 1   
    76   39   40 1   
    77   39   73 1   
    78   39   74 1   
    79   40   75 1   
    80   40   76 1   
    81   41   42 1   
    82   41   77 1   
    83   41   78 1   
    84   42   43 1   
    85   42   79 1   
    86   42   80 1   
    87   43   81 1   
@<TRIPOS>SUBSTRUCTURE
     1 T95         1 TEMP              0 ****  ****    0 ROOT
