@<TRIPOS>MOLECULE
T95
   81    85     1     0     0
SMALL
bcc


@<TRIPOS>ATOM
      1 O12         1.9350    1.5580    1.0480 o         1 T95     -0.601100
      2 C7          1.6360    0.7110    0.1820 c         1 T95      0.699700
      3 N8          0.7700   -0.3470    0.4290 n         1 T95     -0.459100
      4 C9         -0.0480   -0.4330    1.5810 ca        1 T95      0.040600
      5 C33        -1.4610   -0.3980    1.4390 ca        1 T95     -0.073800
      6 C35        -2.0870   -0.2280    0.1060 c3        1 T95     -0.061300
      7 C32        -2.2730   -0.5310    2.5670 ca        1 T95     -0.130500
      8 C31        -1.7140   -0.6930    3.8320 ca        1 T95     -0.131000
      9 C30        -0.3320   -0.7360    3.9750 ca        1 T95     -0.130500
     10 C29         0.5150   -0.6180    2.8670 ca        1 T95     -0.073800
     11 C34         1.9800   -0.6860    3.0710 c3        1 T95     -0.061300
     12 C5          2.2990    0.7410   -1.1440 ca        1 T95     -0.442200
     13 C6          3.6540    1.1400   -1.2120 ca        1 T95      0.525200
     14 N1          4.3690    1.1850   -2.3400 nb        1 T95     -0.752000
     15 C4          1.7000    0.4230   -2.3910 ca        1 T95      0.718600
     16 O10         0.3420    0.1470   -2.3620 os        1 T95     -0.361400
     17 C11        -0.2080   -0.5570   -3.4350 ca        1 T95      0.057100
     18 C25        -0.6310   -1.8850   -3.1840 ca        1 T95      0.130100
     19 O26        -0.3140   -2.3780   -1.9390 os        1 T95     -0.333900
     20 C27        -0.9040   -3.6420   -1.5920 c3        1 T95      0.128400
     21 C28        -0.5080   -3.8960   -0.1560 c3        1 T95     -0.108100
     22 C24        -1.3190   -2.5840   -4.1820 ca        1 T95     -0.199000
     23 C23        -1.5630   -1.9670   -5.4090 ca        1 T95     -0.090000
     24 C22        -1.1340   -0.6640   -5.6530 ca        1 T95     -0.159000
     25 C21        -0.4520    0.0500   -4.6660 ca        1 T95     -0.077000
     26 N3          2.3680    0.4350   -3.5670 nb        1 T95     -0.812000
     27 C2          3.7030    0.8250   -3.5100 ca        1 T95      0.916900
     28 N13         4.3660    0.9110   -4.7420 nh        1 T95     -0.702300
     29 C14         5.7780    0.9640   -4.8390 ca        1 T95      0.093600
     30 C19         6.4660   -0.0090   -5.5940 ca        1 T95     -0.105000
     31 C18         7.8390    0.0640   -5.7670 ca        1 T95     -0.159500
     32 C17         8.5940    1.1110   -5.1860 ca        1 T95      0.134600
     33 C16         7.8960    2.0830   -4.4370 ca        1 T95     -0.159500
     34 C15         6.5180    2.0130   -4.2640 ca        1 T95     -0.105000
     35 N20        10.0060    1.1020   -5.3030 nh        1 T95     -0.635000
     36 C40        10.7280    2.0590   -4.4820 c3        1 T95      0.184800
     37 C39        12.2540    1.8370   -4.5260 c3        1 T95      0.165300
     38 N38        12.7780    1.7700   -5.8840 n3        1 T95     -0.740600
     39 C37        12.0460    0.8130   -6.7020 c3        1 T95      0.165300
     40 C36        10.5200    1.0310   -6.6630 c3        1 T95      0.184800
     41 C41        14.2170    1.5500   -5.9120 c3        1 T95      0.125800
     42 C42        14.8840    2.0850   -7.1860 c3        1 T95      0.135400
     43 O43        14.8980    3.4950   -7.2320 oh        1 T95     -0.600800
     44 HN8         0.4230   -0.8480   -0.3660 hn        1 T95      0.335500
     45 H35        -3.1980   -0.1460    0.1890 hc        1 T95      0.050033
     46 H35A       -1.7040    0.6970   -0.3970 hc        1 T95      0.050033
     47 H35B       -1.8460   -1.1030   -0.5540 hc        1 T95      0.050033
     48 H32        -3.3670   -0.4980    2.4530 ha        1 T95      0.131000
     49 H31        -2.3640   -0.7860    4.7130 ha        1 T95      0.130000
     50 H30         0.1100   -0.8680    4.9750 ha        1 T95      0.131000
     51 H34         2.4430    0.3130    2.8600 hc        1 T95      0.050033
     52 H34A        2.4410   -1.4380    2.3820 hc        1 T95      0.050033
     53 H34B        2.2280   -0.9760    4.1220 hc        1 T95      0.050033
     54 H6          4.1830    1.4380   -0.2840 h4        1 T95      0.054100
     55 H27        -2.0190   -3.5730   -1.7030 h1        1 T95      0.041200
     56 H27A       -0.5040   -4.4350   -2.2760 h1        1 T95      0.041200
     57 H28        -0.7860   -3.0220    0.4850 hc        1 T95      0.056033
     58 H28A       -1.0350   -4.8070    0.2130 hc        1 T95      0.056033
     59 H28B        0.5950   -4.0510   -0.0760 hc        1 T95      0.056033
     60 H24        -1.6630   -3.6130   -4.0090 ha        1 T95      0.143000
     61 H23        -2.1000   -2.5230   -6.1930 ha        1 T95      0.137000
     62 H22        -1.3330   -0.1910   -6.6260 ha        1 T95      0.141000
     63 H21        -0.1030    1.0770   -4.8480 ha        1 T95      0.158000
     64 HN13        3.9130    0.4520   -5.5060 hn        1 T95      0.444800
     65 H19         5.9180   -0.8450   -6.0580 ha        1 T95      0.144000
     66 H18         8.3390   -0.7240   -6.3510 ha        1 T95      0.138000
     67 H16         8.4300    2.9240   -3.9690 ha        1 T95      0.138000
     68 H15         6.0160    2.7950   -3.6720 ha        1 T95      0.144000
     69 H40        10.5110    3.1220   -4.7940 h1        1 T95      0.045450
     70 H40A       10.3970    1.9280   -3.4130 h1        1 T95      0.045450
     71 H39        12.7370    2.7140   -4.0120 h1        1 T95      0.041200
     72 H39A       12.5020    0.9070   -3.9370 h1        1 T95      0.041200
     73 H37        12.2670   -0.2520   -6.3960 h1        1 T95      0.041200
     74 H37A       12.3800    0.9420   -7.7690 h1        1 T95      0.041200
     75 H36        10.0400    0.1620   -7.1900 h1        1 T95      0.045450
     76 H36A       10.2730    1.9690   -7.2400 h1        1 T95      0.045450
     77 H41        14.6780    2.0910   -5.0370 h1        1 T95      0.045200
     78 H41A       14.4770    0.4560   -5.8160 h1        1 T95      0.045200
     79 H42        15.9690    1.7910   -7.1800 h1        1 T95      0.044200
     80 H42A       14.3940    1.6730   -8.1080 h1        1 T95      0.044200
     81 HO43       13.9830    3.7970   -7.1730 ho        1 T95      0.412000
@<TRIPOS>BOND
     1    1    2 2   
     2    2    3 1   
     3    2   12 1   
     4    3    4 1   
     5    3   44 1   
     6    4    5 ar  
     7    4   10 ar  
     8    5    6 1   
     9    5    7 ar  
    10    6   45 1   
    11    6   46 1   
    12    6   47 1   
    13    7    8 ar  
    14    7   48 1   
    15    8    9 ar  
    16    8   49 1   
    17    9   10 ar  
    18    9   50 1   
    19   10   11 1   
    20   11   51 1   
    21   11   52 1   
    22   11   53 1   
    23   12   13 ar  
    24   12   15 ar  
    25   13   14 ar  
    26   13   54 1   
    27   14   27 ar  
    28   15   16 1   
    29   15   26 ar  
    30   16   17 1   
    31   17   18 ar  
    32   17   25 ar  
    33   18   19 1   
    34   18   22 ar  
    35   19   20 1   
    36   20   21 1   
    37   20   55 1   
    38   20   56 1   
    39   21   57 1   
    40   21   58 1   
    41   21   59 1   
    42   22   23 ar  
    43   22   60 1   
    44   23   24 ar  
    45   23   61 1   
    46   24   25 ar  
    47   24   62 1   
    48   25   63 1   
    49   26   27 ar  
    50   27   28 1   
    51   28   29 1   
    52   28   64 1   
    53   29   30 ar  
    54   29   34 ar  
    55   30   31 ar  
    56   30   65 1   
    57   31   32 ar  
    58   31   66 1   
    59   32   33 ar  
    60   32   35 1   
    61   33   34 ar  
    62   33   67 1   
    63   34   68 1   
    64   35   36 1   
    65   35   40 1   
    66   36   37 1   
    67   36   69 1   
    68   36   70 1   
    69   37   38 1   
    70   37   71 1   
    71   37   72 1   
    72   38   39 1   
    73   38   41 1   
    74   39   40 1   
    75   39   73 1   
    76   39   74 1   
    77   40   75 1   
    78   40   76 1   
    79   41   42 1   
    80   41   77 1   
    81   41   78 1   
    82   42   43 1   
    83   42   79 1   
    84   42   80 1   
    85   43   81 1   
@<TRIPOS>SUBSTRUCTURE
     1 T95         1 TEMP              0 ****  ****    0 ROOT
