@<TRIPOS>MOLECULE
T95
   81    85     1     0     0
SMALL
bcc


@<TRIPOS>ATOM
      1 O12         1.9310    1.5540    1.0480 o         1 T95     -0.601100
      2 C7          1.6320    0.7100    0.1780 c         1 T95      0.699700
      3 N8          0.7620   -0.3460    0.4200 ns        1 T95     -0.459100
      4 C9         -0.0590   -0.4330    1.5700 ca        1 T95      0.040600
      5 C33        -1.4710   -0.3940    1.4250 ca        1 T95     -0.073800
      6 C35        -2.0940   -0.2170    0.0920 c3        1 T95     -0.061300
      7 C32        -2.2850   -0.5290    2.5510 ca        1 T95     -0.130500
      8 C31        -1.7290   -0.6970    3.8160 ca        1 T95     -0.131000
      9 C30        -0.3480   -0.7450    3.9620 ca        1 T95     -0.130500
     10 C29         0.5010   -0.6250    2.8560 ca        1 T95     -0.073800
     11 C34         1.9660   -0.6980    3.0630 c3        1 T95     -0.061300
     12 C5          2.2980    0.7430   -1.1470 ca        1 T95     -0.442200
     13 C6          3.6540    1.1370   -1.2100 ca        1 T95      0.525200
     14 N1          4.3720    1.1840   -2.3360 nb        1 T95     -0.752000
     15 C4          1.7010    0.4310   -2.3960 ca        1 T95      0.718600
     16 O10         0.3410    0.1590   -2.3710 os        1 T95     -0.361400
     17 C11        -0.2090   -0.5400   -3.4470 ca        1 T95      0.057100
     18 C25        -0.6370   -1.8670   -3.2020 ca        1 T95      0.130100
     19 O26        -0.3240   -2.3650   -1.9580 os        1 T95     -0.333900
     20 C27        -0.9190   -3.6280   -1.6160 c3        1 T95      0.128400
     21 C28        -0.5270   -3.8890   -0.1800 c3        1 T95     -0.108100
     22 C24        -1.3250   -2.5600   -4.2030 ca        1 T95     -0.199000
     23 C23        -1.5640   -1.9380   -5.4290 ca        1 T95     -0.090000
     24 C22        -1.1310   -0.6350   -5.6680 ca        1 T95     -0.159000
     25 C21        -0.4490    0.0720   -4.6770 ca        1 T95     -0.077000
     26 N3          2.3710    0.4450   -3.5700 nb        1 T95     -0.812000
     27 C2          3.7070    0.8290   -3.5090 ca        1 T95      0.916900
     28 N13         4.3730    0.9170   -4.7390 nu        1 T95     -0.702300
     29 C14         5.7850    0.9660   -4.8320 ca        1 T95      0.093600
     30 C19         6.4730   -0.0080   -5.5890 ca        1 T95     -0.105000
     31 C18         7.8460    0.0620   -5.7590 ca        1 T95     -0.159500
     32 C17         8.6020    1.1050   -5.1730 ca        1 T95      0.134600
     33 C16         7.9060    2.0760   -4.4220 ca        1 T95     -0.159500
     34 C15         6.5280    2.0110   -4.2530 ca        1 T95     -0.105000
     35 N20        10.0150    1.0920   -5.2870 nh        1 T95     -0.635000
     36 C40        10.7380    2.0440   -4.4610 c3        1 T95      0.184800
     37 C39        12.2640    1.8180   -4.5040 c3        1 T95      0.165300
     38 N38        12.7900    1.7540   -5.8600 n3        1 T95     -0.741600
     39 C37        12.0570    0.8010   -6.6830 c3        1 T95      0.165300
     40 C36        10.5320    1.0240   -6.6460 c3        1 T95      0.184800
     41 C41        14.2290    1.5310   -5.8860 c3        1 T95      0.125800
     42 C42        14.8990    2.0690   -7.1580 c3        1 T95      0.135400
     43 O43        14.9160    3.4790   -7.1980 oh        1 T95     -0.600800
     44 HN8         0.4150   -0.8430   -0.3780 hn        1 T95      0.335500
     45 H35        -1.7080    0.7080   -0.4070 hc        1 T95      0.050033
     46 H35A       -3.2050   -0.1330    0.1730 hc        1 T95      0.050033
     47 H35B       -1.8540   -1.0900   -0.5710 hc        1 T95      0.050033
     48 H32        -3.3790   -0.4930    2.4350 ha        1 T95      0.131000
     49 H31        -2.3810   -0.7920    4.6960 ha        1 T95      0.130000
     50 H30         0.0910   -0.8810    4.9630 ha        1 T95      0.131000
     51 H34         2.4320    0.3010    2.8560 hc        1 T95      0.050033
     52 H34A        2.4260   -1.4480    2.3720 hc        1 T95      0.050033
     53 H34B        2.2110   -0.9920    4.1130 hc        1 T95      0.050033
     54 H6          4.1820    1.4300   -0.2800 h4        1 T95      0.054100
     55 H27        -0.5200   -4.4200   -2.3020 h1        1 T95      0.041200
     56 H27A       -2.0330   -3.5550   -1.7300 h1        1 T95      0.041200
     57 H28        -0.8030   -3.0160    0.4630 hc        1 T95      0.056033
     58 H28A       -1.0580   -4.7990    0.1840 hc        1 T95      0.056033
     59 H28B        0.5750   -4.0480   -0.0980 hc        1 T95      0.056033
     60 H24        -1.6720   -3.5890   -4.0350 ha        1 T95      0.143000
     61 H23        -2.1020   -2.4890   -6.2160 ha        1 T95      0.137000
     62 H22        -1.3260   -0.1580   -6.6390 ha        1 T95      0.141000
     63 H21        -0.0960    1.0990   -4.8540 ha        1 T95      0.158000
     64 HN13        3.9200    0.4620   -5.5060 hn        1 T95      0.444800
     65 H19         5.9230   -0.8400   -6.0570 ha        1 T95      0.144000
     66 H18         8.3450   -0.7260   -6.3430 ha        1 T95      0.138000
     67 H16         8.4420    2.9150   -3.9510 ha        1 T95      0.138000
     68 H15         6.0270    2.7920   -3.6600 ha        1 T95      0.144000
     69 H40        10.4040    1.9110   -3.3940 h1        1 T95      0.045450
     70 H40A       10.5250    3.1090   -4.7710 h1        1 T95      0.045450
     71 H39        12.5080    0.8850   -3.9170 h1        1 T95      0.041200
     72 H39A       12.7480    2.6930   -3.9850 h1        1 T95      0.041200
     73 H37        12.3930    0.9330   -7.7490 h1        1 T95      0.041200
     74 H37A       12.2740   -0.2650   -6.3790 h1        1 T95      0.041200
     75 H36        10.0500    0.1570   -7.1760 h1        1 T95      0.045450
     76 H36A       10.2880    1.9640   -7.2210 h1        1 T95      0.045450
     77 H41        14.4860    0.4360   -5.7940 h1        1 T95      0.045200
     78 H41A       14.6900    2.0680   -5.0090 h1        1 T95      0.045200
     79 H42        14.4090    1.6620   -8.0820 h1        1 T95      0.044200
     80 H42A       15.9830    1.7720   -7.1500 h1        1 T95      0.044200
     81 HO43       14.0020    3.7830   -7.1390 ho        1 T95      0.412000
@<TRIPOS>BOND
     1    1    2 2   
     2    2    3 1   
     3    2   12 1   
     4    3    4 1   
     5    3   44 1   
     6    4    5 ar  
     7    4   10 ar  
     8    5    6 1   
     9    5    7 ar  
    10    6   45 1   
    11    6   46 1   
    12    6   47 1   
    13    7    8 ar  
    14    7   48 1   
    15    8    9 ar  
    16    8   49 1   
    17    9   10 ar  
    18    9   50 1   
    19   10   11 1   
    20   11   51 1   
    21   11   52 1   
    22   11   53 1   
    23   12   13 ar  
    24   12   15 ar  
    25   13   14 ar  
    26   13   54 1   
    27   14   27 ar  
    28   15   16 1   
    29   15   26 ar  
    30   16   17 1   
    31   17   18 ar  
    32   17   25 ar  
    33   18   19 1   
    34   18   22 ar  
    35   19   20 1   
    36   20   21 1   
    37   20   55 1   
    38   20   56 1   
    39   21   57 1   
    40   21   58 1   
    41   21   59 1   
    42   22   23 ar  
    43   22   60 1   
    44   23   24 ar  
    45   23   61 1   
    46   24   25 ar  
    47   24   62 1   
    48   25   63 1   
    49   26   27 ar  
    50   27   28 1   
    51   28   29 1   
    52   28   64 1   
    53   29   30 ar  
    54   29   34 ar  
    55   30   31 ar  
    56   30   65 1   
    57   31   32 ar  
    58   31   66 1   
    59   32   33 ar  
    60   32   35 1   
    61   33   34 ar  
    62   33   67 1   
    63   34   68 1   
    64   35   36 1   
    65   35   40 1   
    66   36   37 1   
    67   36   69 1   
    68   36   70 1   
    69   37   38 1   
    70   37   71 1   
    71   37   72 1   
    72   38   39 1   
    73   38   41 1   
    74   39   40 1   
    75   39   73 1   
    76   39   74 1   
    77   40   75 1   
    78   40   76 1   
    79   41   42 1   
    80   41   77 1   
    81   41   78 1   
    82   42   43 1   
    83   42   79 1   
    84   42   80 1   
    85   43   81 1   
@<TRIPOS>SUBSTRUCTURE
     1 T95         1 TEMP              0 ****  ****    0 ROOT
