@<TRIPOS>MOLECULE
T95
   81    85     1     0     0
SMALL
bcc


@<TRIPOS>ATOM
      1 O12        -3.0910    2.9140   -1.4100 o         1 T95     -0.601100
      2 C7         -3.1390    1.8760   -0.7190 c         1 T95      0.699700
      3 N8         -4.1620    1.6200    0.1860 n         1 T95     -0.459100
      4 C9         -5.3630    2.3660    0.2390 ca        1 T95      0.040600
      5 C33        -6.5960    1.7280   -0.0610 ca        1 T95     -0.073800
      6 C35        -6.6340    0.3040   -0.4720 c3        1 T95     -0.061300
      7 C32        -7.7890    2.4470    0.0360 ca        1 T95     -0.130500
      8 C31        -7.7840    3.7850    0.4210 ca        1 T95     -0.131000
      9 C30        -6.5810    4.4120    0.7240 ca        1 T95     -0.130500
     10 C29        -5.3660    3.7220    0.6480 ca        1 T95     -0.073800
     11 C34        -4.1130    4.4310    0.9970 c3        1 T95     -0.061300
     12 C5         -2.0200    0.9040   -0.7620 ca        1 T95     -0.442200
     13 C6         -0.7040    1.3980   -0.9170 ca        1 T95      0.525200
     14 N1          0.3890    0.6300   -0.9450 nb        1 T95     -0.752000
     15 C4         -2.1290   -0.5080   -0.6810 ca        1 T95      0.718600
     16 O10        -3.4170   -1.0200   -0.6500 os        1 T95     -0.361400
     17 C11        -3.5990   -2.3170   -0.1650 ca        1 T95      0.057100
     18 C25        -4.2520   -2.4510    1.0840 ca        1 T95      0.130100
     19 O26        -4.5030   -1.2710    1.7470 os        1 T95     -0.333900
     20 C27        -5.3380   -1.3680    2.9130 c3        1 T95      0.128400
     21 C28        -5.5600    0.0530    3.3740 c3        1 T95     -0.108100
     22 C24        -4.5870   -3.7280    1.5470 ca        1 T95     -0.199000
     23 C23        -4.2590   -4.8450    0.7780 ca        1 T95     -0.090000
     24 C22        -3.6070   -4.7060   -0.4460 ca        1 T95     -0.159000
     25 C21        -3.2710   -3.4390   -0.9240 ca        1 T95     -0.077000
     26 N3         -1.0660   -1.3430   -0.6900 nb        1 T95     -0.812000
     27 C2          0.1830   -0.7440   -0.8270 ca        1 T95      0.916900
     28 N13         1.2740   -1.6200   -0.9150 nh        1 T95     -0.702300
     29 C14         2.6080   -1.1870   -0.7260 ca        1 T95      0.093600
     30 C19         3.4040   -1.7850    0.2760 ca        1 T95     -0.105500
     31 C18         4.7360   -1.4330    0.4310 ca        1 T95     -0.159500
     32 C17         5.3360   -0.4590   -0.4030 ca        1 T95      0.134600
     33 C16         4.5340    0.1290   -1.4040 ca        1 T95     -0.159500
     34 C15         3.1990   -0.2250   -1.5640 ca        1 T95     -0.105500
     35 N20         6.6710   -0.0550   -0.1550 nh        1 T95     -0.635000
     36 C40         7.1380    1.1130   -0.8820 c3        1 T95      0.184800
     37 C39         8.5230    1.5910   -0.3990 c3        1 T95      0.165300
     38 N38         9.5140    0.5240   -0.3750 n3        1 T95     -0.741600
     39 C37         9.0380   -0.6440    0.3520 c3        1 T95      0.165300
     40 C36         7.6550   -1.1280   -0.1290 c3        1 T95      0.184800
     41 C41        10.8140    0.9860    0.0920 c3        1 T95      0.125800
     42 C42        11.9800    0.1430   -0.4410 c3        1 T95      0.135400
     43 O43        12.1880    0.3310   -1.8240 oh        1 T95     -0.600800
     44 HN8        -4.2370    0.6840    0.5360 hn        1 T95      0.335500
     45 H35        -6.2730   -0.3530    0.3620 hc        1 T95      0.050033
     46 H35A       -7.6720   -0.0100   -0.7420 hc        1 T95      0.050033
     47 H35B       -5.9740    0.1290   -1.3590 hc        1 T95      0.050033
     48 H32        -8.7410    1.9500   -0.2020 ha        1 T95      0.131000
     49 H31        -8.7290    4.3440    0.4830 ha        1 T95      0.130000
     50 H30        -6.5780    5.4700    1.0300 ha        1 T95      0.131000
     51 H34        -3.4810    4.5640    0.0800 hc        1 T95      0.050033
     52 H34A       -4.3270    5.4390    1.4290 hc        1 T95      0.050033
     53 H34B       -3.5230    3.8460    1.7460 hc        1 T95      0.050033
     54 H6         -0.5390    2.4900   -1.0230 h4        1 T95      0.054100
     55 H27        -6.3050   -1.8650    2.6350 h1        1 T95      0.041200
     56 H27A       -4.8110   -1.9770    3.6930 h1        1 T95      0.041200
     57 H28        -6.3000    0.0560    4.2090 hc        1 T95      0.056033
     58 H28A       -4.6030    0.5030    3.7310 hc        1 T95      0.056033
     59 H28B       -5.9490    0.6790    2.5330 hc        1 T95      0.056033
     60 H24        -5.0990   -3.8580    2.5100 ha        1 T95      0.143000
     61 H23        -4.5210   -5.8480    1.1480 ha        1 T95      0.137000
     62 H22        -3.3550   -5.5960   -1.0400 ha        1 T95      0.141000
     63 H21        -2.7510   -3.3150   -1.8860 ha        1 T95      0.158000
     64 HN13        1.0940   -2.5590   -0.6220 hn        1 T95      0.444800
     65 H19         2.9740   -2.5420    0.9500 ha        1 T95      0.144000
     66 H18         5.3170   -1.9120    1.2340 ha        1 T95      0.138000
     67 H16         4.9500    0.8860   -2.0870 ha        1 T95      0.138000
     68 H15         2.6120    0.2610   -2.3600 ha        1 T95      0.144000
     69 H40         7.1940    0.9160   -1.9930 h1        1 T95      0.045450
     70 H40A        6.4080    1.9530   -0.7070 h1        1 T95      0.045450
     71 H39         8.8780    2.3780   -1.1210 h1        1 T95      0.041200
     72 H39A        8.4060    2.0740    0.6150 h1        1 T95      0.041200
     73 H37         9.7690   -1.4830    0.1790 h1        1 T95      0.041200
     74 H37A        8.9870   -0.4520    1.4640 h1        1 T95      0.041200
     75 H36         7.3060   -1.9240    0.5860 h1        1 T95      0.045450
     76 H36A        7.7690   -1.5990   -1.1480 h1        1 T95      0.045450
     77 H41        10.9690    2.0420   -0.2690 h1        1 T95      0.045200
     78 H41A       10.8770    0.9940    1.2190 h1        1 T95      0.045200
     79 H42        12.9330    0.4960    0.0390 h1        1 T95      0.044200
     80 H42A       11.8340   -0.9470   -0.2170 h1        1 T95      0.044200
     81 HO43       11.3670    0.1000   -2.2750 ho        1 T95      0.412000
@<TRIPOS>BOND
     1    1    2 2   
     2    2    3 1   
     3    2   12 1   
     4    3    4 1   
     5    3   44 1   
     6    4    5 ar  
     7    4   10 ar  
     8    5    6 1   
     9    5    7 ar  
    10    6   45 1   
    11    6   46 1   
    12    6   47 1   
    13    7    8 ar  
    14    7   48 1   
    15    8    9 ar  
    16    8   49 1   
    17    9   10 ar  
    18    9   50 1   
    19   10   11 1   
    20   11   51 1   
    21   11   52 1   
    22   11   53 1   
    23   12   13 ar  
    24   12   15 ar  
    25   13   14 ar  
    26   13   54 1   
    27   14   27 ar  
    28   15   16 1   
    29   15   26 ar  
    30   16   17 1   
    31   17   18 ar  
    32   17   25 ar  
    33   18   19 1   
    34   18   22 ar  
    35   19   20 1   
    36   20   21 1   
    37   20   55 1   
    38   20   56 1   
    39   21   57 1   
    40   21   58 1   
    41   21   59 1   
    42   22   23 ar  
    43   22   60 1   
    44   23   24 ar  
    45   23   61 1   
    46   24   25 ar  
    47   24   62 1   
    48   25   63 1   
    49   26   27 ar  
    50   27   28 1   
    51   28   29 1   
    52   28   64 1   
    53   29   30 ar  
    54   29   34 ar  
    55   30   31 ar  
    56   30   65 1   
    57   31   32 ar  
    58   31   66 1   
    59   32   33 ar  
    60   32   35 1   
    61   33   34 ar  
    62   33   67 1   
    63   34   68 1   
    64   35   36 1   
    65   35   40 1   
    66   36   37 1   
    67   36   69 1   
    68   36   70 1   
    69   37   38 1   
    70   37   71 1   
    71   37   72 1   
    72   38   39 1   
    73   38   41 1   
    74   39   40 1   
    75   39   73 1   
    76   39   74 1   
    77   40   75 1   
    78   40   76 1   
    79   41   42 1   
    80   41   77 1   
    81   41   78 1   
    82   42   43 1   
    83   42   79 1   
    84   42   80 1   
    85   43   81 1   
@<TRIPOS>SUBSTRUCTURE
     1 T95         1 TEMP              0 ****  ****    0 ROOT
