@<TRIPOS>MOLECULE
T95
   81    76     1     0     0
SMALL
bcc


@<TRIPOS>ATOM
      1 O12        -0.1300   -2.0030    5.0490 o         1 T95     -0.329000
      2 C7         -0.6000   -1.3050    4.1090 c1        1 T95      0.383000
      3 N8         -1.7620   -0.5010    4.3290 n2        1 T95     -0.334000
      4 C9         -2.4000   -0.4890    5.6380 c2        1 T95      0.053000
      5 C33        -1.5930   -0.3800    6.8360 c1        1 T95     -0.044000
      6 C35        -0.0920   -0.3360    6.7290 c2        1 T95     -0.191000
      7 C32        -2.1990   -0.2370    8.0670 c2        1 T95     -0.129000
      8 C31        -3.5790   -0.1980    8.1590 c1        1 T95     -0.130000
      9 C30        -4.3770   -0.3050    6.9860 c1        1 T95     -0.127000
     10 C29        -3.7640   -0.4500    5.7310 c2        1 T95     -0.092000
     11 C34        -4.6260   -0.5180    4.4480 c3        1 T95     -0.178000
     12 C5          0.0850   -1.3070    2.7330 c2        1 T95     -0.298000
     13 C6         -0.6780   -1.4570    1.5800 c2        1 T95      0.036000
     14 N1         -0.0740   -1.5520    0.3780 n1        1 T95     -0.230000
     15 C4          1.4870   -1.2540    2.6480 c1        1 T95      0.237000
     16 O10         2.2650   -1.0660    3.8370 o         1 T95     -0.112000
     17 C11         3.5290   -0.4320    3.5040 c2        1 T95      0.016000
     18 C25         3.7040    0.9590    3.7170 c2        1 T95      0.091000
     19 O26         2.5970    1.7650    4.1500 os        1 T95     -0.201000
     20 C27         2.9940    3.0090    4.7760 c3        1 T95     -0.023000
     21 C28         1.7520    3.8410    5.0860 c3        1 T95     -0.219000
     22 C24         4.9700    1.5610    3.4800 c1        1 T95     -0.200000
     23 C23         6.0310    0.7890    3.0420 c1        1 T95     -0.125000
     24 C22         5.8570   -0.6060    2.8280 c1        1 T95     -0.125000
     25 C21         4.6000   -1.2070    3.0630 c1        1 T95     -0.083000
     26 N3          2.0970   -1.3490    1.4390 n2        1 T95     -0.282000
     27 C2          1.3340   -1.4990    0.2880 c1        1 T95      0.196000
     28 N13         2.0010   -1.7600   -1.0100 n3        1 T95     -0.223000
     29 C14         1.4970   -1.1870   -2.1810 c2        1 T95      0.012000
     30 C19         0.2450   -1.5070   -2.5990 c2        1 T95     -0.076000
     31 C18        -0.2130   -1.0640   -3.8320 c1        1 T95     -0.174000
     32 C17         0.6100   -0.2900   -4.6440 c1        1 T95      0.054000
     33 C16         1.8920    0.0410   -4.2210 c1        1 T95     -0.146000
     34 C15         2.3420   -0.3950   -3.0080 c1        1 T95     -0.135000
     35 N20         0.1040    0.2010   -5.9660 n3        1 T95     -0.237000
     36 C40         0.0550   -0.8820   -6.8920 c3        1 T95     -0.052000
     37 C39        -0.5760   -0.4880   -8.1950 c3        1 T95     -0.071000
     38 N38        -1.8470    0.1380   -8.0150 n3        1 T95     -0.258000
     39 C37        -1.7970    1.2260   -7.0750 c3        1 T95     -0.071000
     40 C36        -1.1690    0.8330   -5.7870 c3        1 T95     -0.052000
     41 C41        -2.3110    0.6030   -9.2580 c3        1 T95     -0.072000
     42 C42        -3.5750   -0.2020   -9.6840 c3        1 T95     -0.021000
     43 O43        -4.1960    0.4440  -10.7670 oh        1 T95     -0.332000
     44 HN8        -2.1210   -0.0210    3.6430 hn        1 T95      0.228000
     45 H35         0.2040    0.5700    6.7880 ha        1 T95      0.094333
     46 H35A        0.3220   -0.8800    7.4910 ha        1 T95      0.094333
     47 H35B        0.1620   -0.6820    5.9460 ha        1 T95      0.094333
     48 H32        -1.6340   -0.1600    8.9060 ha        1 T95      0.133000
     49 H31        -4.0070   -0.0970    9.0340 ha        1 T95      0.131000
     50 H30        -5.4040   -0.2760    7.0600 ha        1 T95      0.130000
     51 H34        -4.4960    0.3460    3.9020 hc        1 T95      0.081333
     52 H34A       -5.5710   -0.6120    4.6900 hc        1 T95      0.081333
     53 H34B       -4.3350   -1.3300    3.8830 hc        1 T95      0.081333
     54 H6         -1.5950   -1.4910    1.6380 h4        1 T95      0.169000
     55 H27         3.4710    2.8180    5.5970 h1        1 T95      0.079000
     56 H27A        3.5890    3.5220    4.1540 h1        1 T95      0.079000
     57 H28         2.0120    4.6720    5.4690 hc        1 T95      0.090333
     58 H28A        1.1910    3.3630    5.7070 hc        1 T95      0.090333
     59 H28B        1.2310    4.0150    4.2100 hc        1 T95      0.090333
     60 H24         5.0870    2.4880    3.6220 ha        1 T95      0.141000
     61 H23         6.8970    1.2020    2.8810 ha        1 T95      0.137000
     62 H22         6.5990   -1.1450    2.5230 ha        1 T95      0.137000
     63 H21         4.4760   -2.2070    2.9100 ha        1 T95      0.154000
     64 HN13        2.8020   -2.2940   -1.0420 hn        1 T95      0.241000
     65 H19        -0.3230   -2.0390   -2.0430 ha        1 T95      0.154000
     66 H18        -1.1160   -1.2970   -4.1310 ha        1 T95      0.137000
     67 H16         2.4300    0.5460   -4.7500 ha        1 T95      0.139000
     68 H15         3.2010   -0.1750   -2.7230 ha        1 T95      0.133000
     69 H40         0.9910   -1.2090   -7.0660 h1        1 T95      0.084250
     70 H40A       -0.5050   -1.6630   -6.4660 h1        1 T95      0.084250
     71 H39        -0.6890   -1.3080   -8.7700 h1        1 T95      0.080250
     72 H39A        0.0020    0.1210   -8.6400 h1        1 T95      0.080250
     73 H37        -1.2650    1.9820   -7.4790 h1        1 T95      0.080250
     74 H37A       -2.7380    1.5490   -6.8920 h1        1 T95      0.080250
     75 H36        -1.0500    1.6410   -5.2310 h1        1 T95      0.084250
     76 H36A       -1.7970    0.1780   -5.2970 h1        1 T95      0.084250
     77 H41        -1.6000    0.4830   -9.9380 h1        1 T95      0.087500
     78 H41A       -2.5440    1.5760   -9.1880 h1        1 T95      0.087500
     79 H42        -4.1850   -0.2520   -8.9500 h1        1 T95      0.068500
     80 H42A       -3.3020   -1.1450   -9.9620 h1        1 T95      0.068500
     81 HO43       -4.8800    0.0260  -10.9830 ho        1 T95      0.202000
@<TRIPOS>BOND
     1    1    2 1   
     2    2   12 1   
     3    3    4 1   
     4    3   44 1   
     5    4    5 1   
     6    4   10 1   
     7    5    7 1   
     8    6   45 1   
     9    6   46 1   
    10    6   47 1   
    11    7    8 1   
    12    7   48 1   
    13    8   49 1   
    14    9   10 1   
    15    9   50 1   
    16   10   11 1   
    17   11   51 1   
    18   11   52 1   
    19   11   53 1   
    20   12   13 1   
    21   12   15 1   
    22   13   14 1   
    23   13   54 1   
    24   15   26 1   
    25   16   17 1   
    26   17   18 1   
    27   17   25 1   
    28   18   19 1   
    29   18   22 1   
    30   19   20 1   
    31   20   21 1   
    32   20   55 1   
    33   20   56 1   
    34   21   57 1   
    35   21   58 1   
    36   21   59 1   
    37   22   60 1   
    38   23   24 1   
    39   23   61 1   
    40   24   62 1   
    41   25   63 1   
    42   26   27 1   
    43   27   28 1   
    44   28   29 1   
    45   28   64 1   
    46   29   30 1   
    47   29   34 1   
    48   30   31 1   
    49   30   65 1   
    50   31   66 1   
    51   32   33 1   
    52   32   35 1   
    53   33   67 1   
    54   34   68 1   
    55   35   36 1   
    56   35   40 1   
    57   36   37 1   
    58   36   69 1   
    59   36   70 1   
    60   37   38 1   
    61   37   71 1   
    62   37   72 1   
    63   38   39 1   
    64   38   41 1   
    65   39   40 1   
    66   39   73 1   
    67   39   74 1   
    68   40   75 1   
    69   40   76 1   
    70   41   42 1   
    71   41   77 1   
    72   41   78 1   
    73   42   43 1   
    74   42   79 1   
    75   42   80 1   
    76   43   81 1   
@<TRIPOS>SUBSTRUCTURE
     1 T95         1 TEMP              0 ****  ****    0 ROOT
