@<TRIPOS>MOLECULE
T98
   36    38     1     0     0
SMALL
bcc


@<TRIPOS>ATOM
      1 C1          0.0170    0.3820    0.0600 c3        1 T98     -0.101600
      2 C2          1.4980    0.0090    0.0600 c3        1 T98      0.200100
      3 C3          2.0690   -0.0190    1.4460 ca        1 T98     -0.148300
      4 C4          1.4050   -0.6670    2.4850 ca        1 T98     -0.062000
      5 C5          1.9640   -0.7220    3.7690 ca        1 T98     -0.047000
      6 C6          3.2080   -0.1220    4.0030 ca        1 T98     -0.085000
      7 C7          3.8860    0.5320    2.9820 ca        1 T98     -0.168000
      8 C8          3.3220    0.5920    1.6900 ca        1 T98      0.070600
      9 N1          3.9790    1.2400    0.6400 ns        1 T98     -0.437100
     10 C9          3.3670    1.5030   -0.5710 c         1 T98      0.581500
     11 S1          4.0240    2.3670   -1.7270 s         1 T98     -0.427400
     12 O1          2.1050    1.0200   -0.7910 os        1 T98     -0.362900
     13 C10         1.2510   -1.4370    4.8140 cc        1 T98     -0.042300
     14 C11         0.5750   -2.6710    4.6750 cd        1 T98     -0.190000
     15 C12         0.0190   -3.0030    5.9430 cd        1 T98     -0.125000
     16 C13         0.3620   -1.9630    6.8310 cc        1 T98     -0.066300
     17 N2          1.1180   -1.0040    6.1360 na        1 T98     -0.029100
     18 C14         1.6220    0.2060    6.7000 c3        1 T98      0.010600
     19 C15         0.0230   -1.8550    8.1950 cg        1 T98      0.257800
     20 N3         -0.2740   -1.7950    9.3190 n1        1 T98     -0.360800
     21 C16         1.7140   -1.3360   -0.6300 c3        1 T98     -0.101600
     22 H11A       -0.3070    0.6220   -0.9820 hc        1 T98      0.055033
     23 H12A       -0.1590    1.2740    0.7050 hc        1 T98      0.055033
     24 H13        -0.5850   -0.4760    0.4410 hc        1 T98      0.055033
     25 H4          0.4300   -1.1460    2.2970 ha        1 T98      0.150000
     26 H6          3.6670   -0.1780    5.0030 ha        1 T98      0.142000
     27 H7          4.8630    0.9950    3.1850 ha        1 T98      0.144000
     28 HN1         4.8770    1.6420    0.8030 hn        1 T98      0.355500
     29 H11         0.5090   -3.2570    3.7640 ha        1 T98      0.160000
     30 H12        -0.5600   -3.8890    6.1910 ha        1 T98      0.165000
     31 H141        1.7080    0.9910    5.9010 h1        1 T98      0.062033
     32 H142        0.9260    0.5670    7.5050 h1        1 T98      0.062033
     33 H143        2.6370    0.0300    7.1520 h1        1 T98      0.062033
     34 H161        1.1990   -2.1380   -0.0520 hc        1 T98      0.055033
     35 H162        1.2950   -1.2980   -1.6650 hc        1 T98      0.055033
     36 H163        2.8020   -1.5710   -0.6930 hc        1 T98      0.055033
@<TRIPOS>BOND
     1    1    2 1   
     2    1   22 1   
     3    1   23 1   
     4    1   24 1   
     5    2    3 1   
     6    2   12 1   
     7    2   21 1   
     8    3    4 ar  
     9    3    8 ar  
    10    4    5 ar  
    11    4   25 1   
    12    5    6 ar  
    13    5   13 1   
    14    6    7 ar  
    15    6   26 1   
    16    7    8 ar  
    17    7   27 1   
    18    8    9 1   
    19    9   10 1   
    20    9   28 1   
    21   10   11 2   
    22   10   12 1   
    23   13   14 2   
    24   13   17 1   
    25   14   15 1   
    26   14   29 1   
    27   15   16 2   
    28   15   30 1   
    29   16   17 1   
    30   16   19 1   
    31   17   18 1   
    32   18   31 1   
    33   18   32 1   
    34   18   33 1   
    35   19   20 3   
    36   21   34 1   
    37   21   35 1   
    38   21   36 1   
@<TRIPOS>SUBSTRUCTURE
     1 T98         1 TEMP              0 ****  ****    0 ROOT
