@<TRIPOS>MOLECULE
T98
   36    38     1     0     0
SMALL
bcc


@<TRIPOS>ATOM
      1 C1          0.0210    0.4030    0.0610 c3        1 T98     -0.101600
      2 C2          1.5040    0.0400    0.0510 c3        1 T98      0.200100
      3 C3          2.0800   -0.0020    1.4340 ca        1 T98     -0.148300
      4 C4          1.4250   -0.6680    2.4670 ca        1 T98     -0.062000
      5 C5          1.9880   -0.7350    3.7490 ca        1 T98     -0.047000
      6 C6          3.2290   -0.1290    3.9860 ca        1 T98     -0.085000
      7 C7          3.8980    0.5430    2.9710 ca        1 T98     -0.168000
      8 C8          3.3300    0.6150    1.6820 ca        1 T98      0.070600
      9 N1          3.9780    1.2820    0.6390 n         1 T98     -0.437100
     10 C9          3.3610    1.5560   -0.5670 c         1 T98      0.581500
     11 S1          4.0080    2.4390   -1.7140 s         1 T98     -0.427400
     12 O1          2.1020    1.0670   -0.7890 os        1 T98     -0.362900
     13 C10         1.2840   -1.4690    4.7860 cc        1 T98     -0.042300
     14 C11         0.6170   -2.7070    4.6330 cd        1 T98     -0.190000
     15 C12         0.0680   -3.0600    5.8990 cd        1 T98     -0.125000
     16 C13         0.4060   -2.0290    6.7990 cc        1 T98     -0.066300
     17 N2          1.1520   -1.0550    6.1140 na        1 T98     -0.029100
     18 C14         1.6490    0.1520    6.6930 c3        1 T98      0.010600
     19 C15         0.0700   -1.9410    8.1650 cg        1 T98      0.257800
     20 N3         -0.2230   -1.8990    9.2910 n1        1 T98     -0.360800
     21 C16         1.7270   -1.2940   -0.6580 c3        1 T98     -0.101600
     22 H11A       -0.5740   -0.4640    0.4330 hc        1 T98      0.054867
     23 H12A       -0.3080    0.6540   -0.9770 hc        1 T98      0.054867
     24 H13        -0.1590    1.2860    0.7170 hc        1 T98      0.054867
     25 H4          0.4530   -1.1520    2.2760 ha        1 T98      0.150000
     26 H6          3.6910   -0.1950    4.9840 ha        1 T98      0.142000
     27 H7          4.8730    1.0110    3.1780 ha        1 T98      0.144000
     28 HN1         4.8740    1.6890    0.8040 hn        1 T98      0.355500
     29 H11         0.5530   -3.2820    3.7150 ha        1 T98      0.160000
     30 H12        -0.5030   -3.9530    6.1370 ha        1 T98      0.165000
     31 H141        0.9530    0.4970    7.5040 h1        1 T98      0.062033
     32 H142        2.6670   -0.0230    7.1390 h1        1 T98      0.062033
     33 H143        1.7270    0.9470    5.9040 h1        1 T98      0.062033
     34 H161        1.2190   -2.1070   -0.0870 hc        1 T98      0.054867
     35 H162        1.3050   -1.2450   -1.6900 hc        1 T98      0.054867
     36 H163        2.8170   -1.5210   -0.7270 hc        1 T98      0.054867
@<TRIPOS>BOND
     1    1    2 1   
     2    1   22 1   
     3    1   23 1   
     4    1   24 1   
     5    2    3 1   
     6    2   12 1   
     7    2   21 1   
     8    3    4 ar  
     9    3    8 ar  
    10    4    5 ar  
    11    4   25 1   
    12    5    6 ar  
    13    5   13 1   
    14    6    7 ar  
    15    6   26 1   
    16    7    8 ar  
    17    7   27 1   
    18    8    9 1   
    19    9   10 1   
    20    9   28 1   
    21   10   11 2   
    22   10   12 1   
    23   13   14 2   
    24   13   17 1   
    25   14   15 1   
    26   14   29 1   
    27   15   16 2   
    28   15   30 1   
    29   16   17 1   
    30   16   19 1   
    31   17   18 1   
    32   18   31 1   
    33   18   32 1   
    34   18   33 1   
    35   19   20 3   
    36   21   34 1   
    37   21   35 1   
    38   21   36 1   
@<TRIPOS>SUBSTRUCTURE
     1 T98         1 TEMP              0 ****  ****    0 ROOT
