@<TRIPOS>MOLECULE
T98
   36    38     1     0     0
SMALL
bcc


@<TRIPOS>ATOM
      1 C1          0.0320    0.4200    0.0590 c3        1 T98     -0.101600
      2 C2          1.5130    0.0460    0.0510 c3        1 T98      0.200100
      3 C3          2.0860   -0.0020    1.4350 ca        1 T98     -0.148300
      4 C4          1.4240   -0.6640    2.4660 ca        1 T98     -0.062000
      5 C5          1.9850   -0.7380    3.7490 ca        1 T98     -0.047000
      6 C6          3.2300   -0.1420    3.9890 ca        1 T98     -0.085000
      7 C7          3.9060    0.5260    2.9760 ca        1 T98     -0.168000
      8 C8          3.3400    0.6050    1.6860 ca        1 T98      0.070600
      9 N1          3.9950    1.2670    0.6450 n         1 T98     -0.437100
     10 C9          3.3820    1.5480   -0.5610 c         1 T98      0.581500
     11 S1          4.0370    2.4280   -1.7060 s         1 T98     -0.427400
     12 O1          2.1190    1.0700   -0.7860 os        1 T98     -0.362900
     13 C10         1.2730   -1.4670    4.7840 cc        1 T98     -0.042300
     14 C11         0.5970   -2.6990    4.6290 cd        1 T98     -0.190000
     15 C12         0.0430   -3.0500    5.8930 cd        1 T98     -0.125000
     16 C13         0.3870   -2.0220    6.7950 cc        1 T98     -0.066300
     17 N2          1.1430   -1.0540    6.1120 na        1 T98     -0.029100
     18 C14         1.6480    0.1480    6.6940 c3        1 T98      0.010600
     19 C15         0.0510   -1.9330    8.1610 cg        1 T98      0.257800
     20 N3         -0.2440   -1.8900    9.2860 n1        1 T98     -0.360800
     21 C16         1.7270   -1.2880   -0.6590 c3        1 T98     -0.101600
     22 H11A       -0.5700   -0.4430    0.4290 hc        1 T98      0.055033
     23 H12A       -0.2930    0.6760   -0.9780 hc        1 T98      0.055033
     24 H13        -0.1430    1.3030    0.7170 hc        1 T98      0.055033
     25 H4          0.4490   -1.1400    2.2730 ha        1 T98      0.150000
     26 H6          3.6900   -0.2120    4.9870 ha        1 T98      0.142000
     27 H7          4.8840    0.9860    3.1850 ha        1 T98      0.144000
     28 HN1         4.8940    1.6670    0.8120 hn        1 T98      0.355500
     29 H11         0.5300   -3.2730    3.7090 ha        1 T98      0.160000
     30 H12        -0.5350   -3.9380    6.1300 ha        1 T98      0.165000
     31 H141        2.6630   -0.0350    7.1410 h1        1 T98      0.062033
     32 H142        0.9530    0.4980    7.5040 h1        1 T98      0.062033
     33 H143        1.7330    0.9440    5.9050 h1        1 T98      0.062033
     34 H161        1.3060   -1.2350   -1.6920 hc        1 T98      0.055033
     35 H162        1.2120   -2.0990   -0.0910 hc        1 T98      0.055033
     36 H163        2.8150   -1.5230   -0.7270 hc        1 T98      0.055033
@<TRIPOS>BOND
     1    1    2 1   
     2    1   22 1   
     3    1   23 1   
     4    1   24 1   
     5    2    3 1   
     6    2   12 1   
     7    2   21 1   
     8    3    4 ar  
     9    3    8 ar  
    10    4    5 ar  
    11    4   25 1   
    12    5    6 ar  
    13    5   13 1   
    14    6    7 ar  
    15    6   26 1   
    16    7    8 ar  
    17    7   27 1   
    18    8    9 1   
    19    9   10 1   
    20    9   28 1   
    21   10   11 2   
    22   10   12 1   
    23   13   14 2   
    24   13   17 1   
    25   14   15 1   
    26   14   29 1   
    27   15   16 2   
    28   15   30 1   
    29   16   17 1   
    30   16   19 1   
    31   17   18 1   
    32   18   31 1   
    33   18   32 1   
    34   18   33 1   
    35   19   20 3   
    36   21   34 1   
    37   21   35 1   
    38   21   36 1   
@<TRIPOS>SUBSTRUCTURE
     1 T98         1 TEMP              0 ****  ****    0 ROOT
