@<TRIPOS>MOLECULE
T98
   36    38     1     0     0
SMALL
bcc


@<TRIPOS>ATOM
      1 C1         -2.0820   -2.2740    1.3470 c3        1 T98     -0.101600
      2 C2         -2.3930   -1.3870    0.1420 c3        1 T98      0.200100
      3 C3         -1.3130   -0.3760   -0.1020 ca        1 T98     -0.148300
      4 C4          0.0300   -0.7430   -0.1030 ca        1 T98     -0.062000
      5 C5          1.0320    0.2010   -0.3700 ca        1 T98     -0.047000
      6 C6          0.6700    1.5260   -0.6450 ca        1 T98     -0.085000
      7 C7         -0.6640    1.9150   -0.6460 ca        1 T98     -0.168000
      8 C8         -1.6720    0.9670   -0.3720 ca        1 T98      0.070600
      9 N1         -3.0230    1.3240   -0.3680 n         1 T98     -0.437100
     10 C9         -4.0140    0.4820    0.1010 c         1 T98      0.581500
     11 S1         -5.5330    0.9050    0.2630 s         1 T98     -0.427400
     12 O1         -3.6750   -0.7890    0.4790 os        1 T98     -0.362900
     13 C10         2.4170   -0.2350   -0.3930 cc        1 T98     -0.042300
     14 C11         2.9110   -1.4340   -0.9560 cd        1 T98     -0.190000
     15 C12         4.3200   -1.4570   -0.7550 cd        1 T98     -0.125000
     16 C13         4.6600   -0.2740   -0.0690 cc        1 T98     -0.066300
     17 N2          3.4910    0.4750    0.1510 na        1 T98     -0.029100
     18 C14         3.4370    1.7230    0.8410 c3        1 T98      0.010600
     19 C15         5.9420    0.1350    0.3520 cg        1 T98      0.257800
     20 N3          7.0140    0.4430    0.6860 n1        1 T98     -0.360800
     21 C16        -2.6170   -2.2360   -1.1070 c3        1 T98     -0.101600
     22 H11A       -2.9990   -2.8430    1.6360 hc        1 T98      0.054867
     23 H12A       -1.2730   -2.9940    1.0830 hc        1 T98      0.054867
     24 H13        -1.7580   -1.6520    2.2140 hc        1 T98      0.054867
     25 H4          0.3120   -1.7880    0.1040 ha        1 T98      0.150000
     26 H6          1.4480    2.2720   -0.8770 ha        1 T98      0.142000
     27 H7         -0.9270    2.9600   -0.8660 ha        1 T98      0.144000
     28 HN1        -3.2790    2.2620   -0.5910 hn        1 T98      0.355500
     29 H11         2.3140   -2.1890   -1.4600 ha        1 T98      0.160000
     30 H12         5.0130   -2.2330   -1.0690 ha        1 T98      0.165000
     31 H141        3.6010    2.5710    0.1200 h1        1 T98      0.062033
     32 H142        2.4320    1.8450    1.3270 h1        1 T98      0.062033
     33 H143        4.2390    1.7560    1.6270 h1        1 T98      0.062033
     34 H161       -2.9140   -1.5920   -1.9670 hc        1 T98      0.054867
     35 H162       -1.6760   -2.7780   -1.3630 hc        1 T98      0.054867
     36 H163       -3.4300   -2.9760   -0.9160 hc        1 T98      0.054867
@<TRIPOS>BOND
     1    1    2 1   
     2    1   22 1   
     3    1   23 1   
     4    1   24 1   
     5    2    3 1   
     6    2   12 1   
     7    2   21 1   
     8    3    4 ar  
     9    3    8 ar  
    10    4    5 ar  
    11    4   25 1   
    12    5    6 ar  
    13    5   13 1   
    14    6    7 ar  
    15    6   26 1   
    16    7    8 ar  
    17    7   27 1   
    18    8    9 1   
    19    9   10 1   
    20    9   28 1   
    21   10   11 2   
    22   10   12 1   
    23   13   14 2   
    24   13   17 1   
    25   14   15 1   
    26   14   29 1   
    27   15   16 2   
    28   15   30 1   
    29   16   17 1   
    30   16   19 1   
    31   17   18 1   
    32   18   31 1   
    33   18   32 1   
    34   18   33 1   
    35   19   20 3   
    36   21   34 1   
    37   21   35 1   
    38   21   36 1   
@<TRIPOS>SUBSTRUCTURE
     1 T98         1 TEMP              0 ****  ****    0 ROOT
