@<TRIPOS>MOLECULE
T9H
   75    80     1     0     0
SMALL
bcc


@<TRIPOS>ATOM
      1 O4         -0.2600    1.5300   -0.8970 o         1 T9H     -0.391100
      2 C6          0.3950    0.5440   -0.5950 c         1 T9H      0.541100
      3 N2          0.2460   -0.6680   -1.4720 n4        1 T9H     -0.532200
      4 C5          1.4900   -1.0470   -2.1510 ca        1 T9H     -0.024400
      5 C4          2.2420   -2.1380   -1.6800 ca        1 T9H     -0.233800
      6 C3          3.4040   -2.4840   -2.4010 ca        1 T9H      0.445700
      7 N1          3.8220   -1.8290   -3.5000 nb        1 T9H     -0.588000
      8 C2          3.0840   -0.7930   -3.9360 ca        1 T9H      0.445700
      9 C1          1.9020   -0.3530   -3.3000 ca        1 T9H     -0.233800
     10 C7          1.3410    0.4540    0.6050 c3        1 T9H      0.082500
     11 C23         2.4980    1.4620    0.3830 c3        1 T9H      0.005800
     12 C24         3.1330    1.8730    1.6340 cc        1 T9H     -0.293400
     13 C27         3.6350    1.0290    2.7010 ca        1 T9H     -0.115800
     14 C28         3.6330   -0.3460    2.9550 ca        1 T9H     -0.153000
     15 C29         4.2360   -0.8200    4.1090 ca        1 T9H     -0.106000
     16 C30         4.8490    0.0550    5.0280 ca        1 T9H     -0.100000
     17 C31         4.8820    1.4230    4.8140 ca        1 T9H     -0.104000
     18 C26         4.2770    1.9140    3.6460 ca        1 T9H     -0.049200
     19 N6          4.1610    3.2260    3.1630 na        1 T9H     -0.154400
     20 C25         3.4950    3.1940    1.9530 cd        1 T9H     -0.024100
     21 N3          0.5950    0.7200    1.8750 n4        1 T9H     -0.676800
     22 C8         -0.5370   -0.2830    2.1320 c         1 T9H      0.600700
     23 O3         -0.7800   -0.9810    1.1350 o         1 T9H     -0.601100
     24 C9         -1.1310   -0.2850    3.4140 ca        1 T9H     -0.345600
     25 C22        -2.1490   -1.2690    3.6910 ca        1 T9H      0.298900
     26 F          -2.5020   -2.1310    2.7180 f         1 T9H     -0.096900
     27 C21        -2.7610   -1.3530    4.9290 ca        1 T9H     -0.286000
     28 C12        -2.4140   -0.4550    5.9930 ca        1 T9H      0.302600
     29 C11        -1.4080    0.5440    5.6930 ca        1 T9H     -0.210000
     30 C10        -0.8080    0.6110    4.4710 ca        1 T9H     -0.012000
     31 N4         -3.0010   -0.5350    7.2120 nh        1 T9H     -0.562000
     32 C20        -2.5560    0.3540    8.2760 c3        1 T9H      0.160800
     33 C19        -3.3020    0.2230    9.6270 c3        1 T9H      0.222800
     34 N5         -3.7200   -1.1150    9.9120 n3        1 T9H     -0.798500
     35 C14        -4.5720   -1.6410    8.8900 c3        1 T9H      0.222800
     36 C13        -3.9260   -1.6270    7.4830 c3        1 T9H      0.160800
     37 S1         -3.0530   -2.0560   11.1160 sy        1 T9H      1.567200
     38 O1         -2.8640   -3.3390   10.5640 o         1 T9H     -0.651800
     39 O2         -1.9030   -1.3730   11.5590 o         1 T9H     -0.651800
     40 C15        -4.1970   -2.0960   12.2770 cc        1 T9H     -0.560600
     41 S2         -4.5270   -1.0330   13.5050 ss        1 T9H      0.310200
     42 C18        -5.7290   -1.9110   14.1640 cc        1 T9H     -0.159100
     43 C17        -5.9470   -3.1020   13.4690 cd        1 T9H     -0.172000
     44 C16        -5.0620   -3.2100   12.3810 cd        1 T9H     -0.019000
     45 H2         -0.0830   -1.4540   -0.8800 hn        1 T9H      0.493300
     46 H7          1.7730   -0.5900    0.6950 hx        1 T9H      0.134700
     47 H4          1.9480   -2.7330   -0.8030 ha        1 T9H      0.174000
     48 H1          1.3400    0.4940   -3.7230 ha        1 T9H      0.174000
     49 H3          4.0300   -3.3420   -2.0780 h4        1 T9H      0.075600
     50 HA          3.4500   -0.2830   -4.8520 h4        1 T9H      0.075600
     51 H231        2.1090    2.3650   -0.1630 hc        1 T9H      0.090700
     52 H232        3.2450    0.9470   -0.2840 hc        1 T9H      0.090700
     53 HB          0.2100    1.6710    1.8570 hn        1 T9H      0.482800
     54 H25         3.3180    4.1110    1.3790 h4        1 T9H      0.190000
     55 H28         3.2010   -1.0490    2.2300 ha        1 T9H      0.108000
     56 H29         4.2540   -1.9020    4.3150 ha        1 T9H      0.155000
     57 H30         5.3240   -0.3660    5.9310 ha        1 T9H      0.166000
     58 H31         5.3770    2.1000    5.5270 ha        1 T9H      0.165000
     59 H6          4.5850    4.0220    3.5730 hn        1 T9H      0.330700
     60 H10        -0.0500    1.3970    4.3170 ha        1 T9H      0.126000
     61 H21        -3.5230   -2.1380    5.0750 ha        1 T9H      0.187000
     62 H11        -1.1110    1.2690    6.4700 ha        1 T9H      0.170000
     63 H201       -1.4580    0.1600    8.4560 h1        1 T9H      0.075450
     64 H202       -2.6840    1.4200    7.9290 h1        1 T9H      0.075450
     65 H131       -3.3660   -2.5990    7.3410 h1        1 T9H      0.075450
     66 H132       -4.7660   -1.5780    6.7310 h1        1 T9H      0.075450
     67 H191       -2.5960    0.5860   10.4310 h1        1 T9H      0.079950
     68 H192       -4.1990    0.9070    9.6030 h1        1 T9H      0.079950
     69 H141       -5.5300   -1.0450    8.8460 h1        1 T9H      0.079950
     70 H142       -4.8310   -2.7150    9.1240 h1        1 T9H      0.079950
     71 H16        -5.0230   -4.0690   11.7010 ha        1 T9H      0.178000
     72 H18        -6.2950   -1.6130   15.0510 h4        1 T9H      0.197000
     73 H17        -6.6940   -3.8550   13.7340 ha        1 T9H      0.179000
     74 H22        -0.4770   -0.4720   -2.1860 hn        1 T9H      0.493300
     75 H32         1.2860    0.6670    2.6480 hn        1 T9H      0.482800
@<TRIPOS>BOND
     1    1    2 2   
     2    2    3 1   
     3    2   10 1   
     4    3    4 1   
     5    3   45 1   
     6    3   74 1   
     7    4    5 ar  
     8    4    9 ar  
     9    5    6 ar  
    10    5   47 1   
    11    6    7 ar  
    12    6   49 1   
    13    7    8 ar  
    14    8    9 ar  
    15    8   50 1   
    16    9   48 1   
    17   10   11 1   
    18   10   21 1   
    19   10   46 1   
    20   11   12 1   
    21   11   51 1   
    22   11   52 1   
    23   12   13 1   
    24   12   20 2   
    25   13   14 ar  
    26   13   18 ar  
    27   14   15 ar  
    28   14   55 1   
    29   15   16 ar  
    30   15   56 1   
    31   16   17 ar  
    32   16   57 1   
    33   17   18 ar  
    34   17   58 1   
    35   18   19 1   
    36   19   20 1   
    37   19   59 1   
    38   20   54 1   
    39   21   22 1   
    40   21   53 1   
    41   21   75 1   
    42   22   23 2   
    43   22   24 1   
    44   24   25 ar  
    45   24   30 ar  
    46   25   26 1   
    47   25   27 ar  
    48   27   28 ar  
    49   27   61 1   
    50   28   29 ar  
    51   28   31 1   
    52   29   30 ar  
    53   29   62 1   
    54   30   60 1   
    55   31   32 1   
    56   31   36 1   
    57   32   33 1   
    58   32   63 1   
    59   32   64 1   
    60   33   34 1   
    61   33   67 1   
    62   33   68 1   
    63   34   35 1   
    64   34   37 1   
    65   35   36 1   
    66   35   69 1   
    67   35   70 1   
    68   36   65 1   
    69   36   66 1   
    70   37   38 2   
    71   37   39 2   
    72   37   40 1   
    73   40   41 1   
    74   40   44 2   
    75   41   42 1   
    76   42   43 2   
    77   42   72 1   
    78   43   44 1   
    79   43   73 1   
    80   44   71 1   
@<TRIPOS>SUBSTRUCTURE
     1 T9H         1 TEMP              0 ****  ****    0 ROOT
