@<TRIPOS>MOLECULE
T9H
   74    79     1     0     0
SMALL
bcc


@<TRIPOS>ATOM
      1 O4          0.1790    0.9140    1.1990 o         1 T9H     -0.607100
      2 C6          1.1390    0.3610    0.6250 c         1 T9H      0.658100
      3 N2          1.1850    0.0080   -0.6970 n         1 T9H     -0.432100
      4 C5          0.1620    0.1980   -1.6520 ca        1 T9H      0.071600
      5 C4          0.3340   -0.3660   -2.9400 ca        1 T9H     -0.272800
      6 C3         -0.6760   -0.1730   -3.8940 ca        1 T9H      0.424200
      7 N1         -1.8080    0.5190   -3.6610 nb        1 T9H     -0.653000
      8 C2         -1.9580    1.0500   -2.4350 ca        1 T9H      0.424200
      9 C1         -1.0160    0.9250   -1.3970 ca        1 T9H     -0.272800
     10 C7          2.4260    0.0580    1.4440 c3        1 T9H      0.037500
     11 C23         3.4680    1.1340    1.0820 c3        1 T9H     -0.005200
     12 C24         4.5040    1.3350    2.0980 cc        1 T9H     -0.252400
     13 C27         5.3180    0.3380    2.7650 ca        1 T9H     -0.112800
     14 C28         5.3690   -1.0600    2.7560 ca        1 T9H     -0.124000
     15 C29         6.3150   -1.7040    3.5370 ca        1 T9H     -0.122000
     16 C30         7.2210   -0.9820    4.3380 ca        1 T9H     -0.103000
     17 C31         7.2070    0.4020    4.3790 ca        1 T9H     -0.122000
     18 C26         6.2550    1.0680    3.5890 ca        1 T9H     -0.049200
     19 N6          6.0050    2.4370    3.4260 na        1 T9H     -0.167400
     20 C25         4.9680    2.5900    2.5200 cd        1 T9H     -0.050100
     21 N3          2.1120    0.0180    2.9050 n4        1 T9H     -0.670800
     22 C8          1.5810   -1.3340    3.3800 c         1 T9H      0.599700
     23 O3          2.1870   -2.3080    2.9500 o         1 T9H     -0.445100
     24 C9          0.4740   -1.2660    4.3090 ca        1 T9H     -0.336600
     25 C22         0.4340   -2.1640    5.4120 ca        1 T9H      0.268900
     26 F           1.4570   -3.0210    5.6140 f         1 T9H     -0.110900
     27 C21        -0.6320   -2.1540    6.3100 ca        1 T9H     -0.275000
     28 C12        -1.7340   -1.2690    6.1280 ca        1 T9H      0.285600
     29 C11        -1.6770   -0.3760    5.0060 ca        1 T9H     -0.227000
     30 C10        -0.6130   -0.3860    4.1360 ca        1 T9H     -0.018000
     31 N4         -2.8180   -1.2940    6.9730 nh        1 T9H     -0.626000
     32 C20        -3.8290   -0.2620    6.8430 c3        1 T9H      0.181800
     33 C19        -5.0590   -0.4090    7.7680 c3        1 T9H      0.221800
     34 N5         -4.7370   -0.8960    9.0760 n3        1 T9H     -0.807500
     35 C14        -4.0270   -2.1400    9.0380 c3        1 T9H      0.221800
     36 C13        -2.7410   -2.0950    8.1810 c3        1 T9H      0.181800
     37 S1         -4.9930   -0.0410   10.4650 sy        1 T9H      1.561200
     38 O1         -3.9030   -0.2800   11.3260 o         1 T9H     -0.651300
     39 O2         -5.2430    1.2980   10.0970 o         1 T9H     -0.651300
     40 C15        -6.3540   -0.7140   11.1010 cc        1 T9H     -0.531600
     41 S2         -7.9500   -0.4110   10.7800 ss        1 T9H      0.289200
     42 C18        -8.5380   -1.4560   11.8870 cc        1 T9H     -0.167100
     43 C17        -7.5180   -2.1010   12.5850 cd        1 T9H     -0.176000
     44 C16        -6.2550   -1.6700   12.1300 cd        1 T9H     -0.023000
     45 H2          2.0090   -0.4440   -1.0340 hn        1 T9H      0.335500
     46 H7          2.8380   -0.9640    1.1780 hx        1 T9H      0.131700
     47 H4          1.2290   -0.9450   -3.2070 ha        1 T9H      0.161500
     48 H1         -1.2180    1.3920   -0.4220 ha        1 T9H      0.161500
     49 H3         -0.5730   -0.6010   -4.9090 h4        1 T9H      0.039100
     50 HA         -2.8940    1.6160   -2.2660 h4        1 T9H      0.039100
     51 H231        2.9400    2.1080    0.8860 hc        1 T9H      0.081200
     52 H232        3.9410    0.8060    0.1140 hc        1 T9H      0.081200
     53 HB          2.9870    0.2090    3.4230 hn        1 T9H      0.476300
     54 H25         4.6200    3.5850    2.2250 h4        1 T9H      0.182000
     55 H28         4.6760   -1.6420    2.1320 ha        1 T9H      0.130000
     56 H29         6.3680   -2.8040    3.5330 ha        1 T9H      0.149000
     57 H30         7.9590   -1.5360    4.9410 ha        1 T9H      0.152000
     58 H31         7.9190    0.9620    5.0020 ha        1 T9H      0.151000
     59 H6          6.5430    3.1640    3.8230 hn        1 T9H      0.318700
     60 H10        -0.6440    0.2920    3.2620 ha        1 T9H      0.161000
     61 H21        -0.5900   -2.8560    7.1580 ha        1 T9H      0.174000
     62 H11        -2.4970    0.3350    4.8170 ha        1 T9H      0.161000
     63 H201       -4.2190   -0.2760    5.7840 h1        1 T9H      0.062700
     64 H202       -3.3510    0.7430    7.0340 h1        1 T9H      0.062700
     65 H131       -1.8950   -1.7080    8.8210 h1        1 T9H      0.062700
     66 H132       -2.5110   -3.1600    7.8880 h1        1 T9H      0.062700
     67 H191       -5.5390    0.6100    7.8460 h1        1 T9H      0.071200
     68 H192       -5.7910   -1.1120    7.2730 h1        1 T9H      0.071200
     69 H141       -3.7190   -2.4320   10.0840 h1        1 T9H      0.071200
     70 H142       -4.7000   -2.9470    8.6260 h1        1 T9H      0.071200
     71 H16        -5.3000   -2.0180   12.5430 ha        1 T9H      0.178000
     72 H18        -9.6020   -1.6240   12.0680 h4        1 T9H      0.190000
     73 H17        -7.6670   -2.8350   13.3800 ha        1 T9H      0.172000
     74 H32         1.4250    0.7530    3.1210 hn        1 T9H      0.476300
@<TRIPOS>BOND
     1    1    2 2   
     2    2    3 1   
     3    2   10 1   
     4    3    4 1   
     5    3   45 1   
     6    4    5 ar  
     7    4    9 ar  
     8    5    6 ar  
     9    5   47 1   
    10    6    7 ar  
    11    6   49 1   
    12    7    8 ar  
    13    8    9 ar  
    14    8   50 1   
    15    9   48 1   
    16   10   11 1   
    17   10   21 1   
    18   10   46 1   
    19   11   12 1   
    20   11   51 1   
    21   11   52 1   
    22   12   13 1   
    23   12   20 2   
    24   13   14 ar  
    25   13   18 ar  
    26   14   15 ar  
    27   14   55 1   
    28   15   16 ar  
    29   15   56 1   
    30   16   17 ar  
    31   16   57 1   
    32   17   18 ar  
    33   17   58 1   
    34   18   19 1   
    35   19   20 1   
    36   19   59 1   
    37   20   54 1   
    38   21   22 1   
    39   21   53 1   
    40   21   74 1   
    41   22   23 2   
    42   22   24 1   
    43   24   25 ar  
    44   24   30 ar  
    45   25   26 1   
    46   25   27 ar  
    47   27   28 ar  
    48   27   61 1   
    49   28   29 ar  
    50   28   31 1   
    51   29   30 ar  
    52   29   62 1   
    53   30   60 1   
    54   31   32 1   
    55   31   36 1   
    56   32   33 1   
    57   32   63 1   
    58   32   64 1   
    59   33   34 1   
    60   33   67 1   
    61   33   68 1   
    62   34   35 1   
    63   34   37 1   
    64   35   36 1   
    65   35   69 1   
    66   35   70 1   
    67   36   65 1   
    68   36   66 1   
    69   37   38 2   
    70   37   39 2   
    71   37   40 1   
    72   40   41 1   
    73   40   44 2   
    74   41   42 1   
    75   42   43 2   
    76   42   72 1   
    77   43   44 1   
    78   43   73 1   
    79   44   71 1   
@<TRIPOS>SUBSTRUCTURE
     1 T9H         1 TEMP              0 ****  ****    0 ROOT
