@<TRIPOS>MOLECULE
T9H
   74    79     1     0     0
SMALL
bcc


@<TRIPOS>ATOM
      1 O4          0.1540    0.8870    1.1850 o         1 T9H     -0.607100
      2 C6          1.1250    0.3450    0.6180 c         1 T9H      0.658100
      3 N2          1.1760   -0.0220   -0.6990 ns        1 T9H     -0.432100
      4 C5          0.1500    0.1350   -1.6560 ca        1 T9H      0.071600
      5 C4          0.3310   -0.4430   -2.9360 ca        1 T9H     -0.272800
      6 C3         -0.6830   -0.2820   -3.8910 ca        1 T9H      0.424200
      7 N1         -1.8280    0.3930   -3.6670 nb        1 T9H     -0.653000
      8 C2         -1.9870    0.9380   -2.4480 ca        1 T9H      0.424200
      9 C1         -1.0420    0.8450   -1.4100 ca        1 T9H     -0.272800
     10 C7          2.4180    0.0780    1.4390 c3        1 T9H      0.037500
     11 C23         3.4380    1.1690    1.0640 c3        1 T9H     -0.005200
     12 C24         4.4700    1.4030    2.0770 cc        1 T9H     -0.252400
     13 C27         5.3040    0.4300    2.7560 ca        1 T9H     -0.112800
     14 C28         5.3830   -0.9660    2.7630 ca        1 T9H     -0.124000
     15 C29         6.3410   -1.5830    3.5510 ca        1 T9H     -0.122000
     16 C30         7.2330   -0.8340    4.3430 ca        1 T9H     -0.103000
     17 C31         7.1920    0.5500    4.3680 ca        1 T9H     -0.122000
     18 C26         6.2270    1.1880    3.5710 ca        1 T9H     -0.049200
     19 N6          5.9500    2.5490    3.3920 na        1 T9H     -0.167400
     20 C25         4.9100    2.6720    2.4850 cd        1 T9H     -0.050100
     21 N3          2.1050    0.0480    2.9010 ny        1 T9H     -0.670800
     22 C8          1.6020   -1.3080    3.3920 c         1 T9H      0.599700
     23 O3          2.2260   -2.2750    2.9740 o         1 T9H     -0.445100
     24 C9          0.4930   -1.2510    4.3210 ca        1 T9H     -0.336600
     25 C22         0.4700   -2.1380    5.4330 ca        1 T9H      0.268900
     26 F           1.5100   -2.9710    5.6460 f         1 T9H     -0.110900
     27 C21        -0.5960   -2.1390    6.3310 ca        1 T9H     -0.275000
     28 C12        -1.7150   -1.2780    6.1390 ca        1 T9H      0.285600
     29 C11        -1.6760   -0.3970    5.0070 ca        1 T9H     -0.227000
     30 C10        -0.6110   -0.3950    4.1380 ca        1 T9H     -0.018000
     31 N4         -2.7990   -1.3160    6.9830 nh        1 T9H     -0.626000
     32 C20        -3.8310   -0.3060    6.8420 c3        1 T9H      0.181800
     33 C19        -5.0580   -0.4670    7.7670 c3        1 T9H      0.221800
     34 N5         -4.7280   -0.9350    9.0810 n3        1 T9H     -0.807500
     35 C14        -3.9930   -2.1640    9.0560 c3        1 T9H      0.221800
     36 C13        -2.7080   -2.1020    8.2000 c3        1 T9H      0.181800
     37 S1         -5.0030   -0.0700   10.4610 sy        1 T9H      1.561200
     38 O1         -3.9100   -0.2800   11.3250 o         1 T9H     -0.651300
     39 O2         -5.2770    1.2590   10.0790 o         1 T9H     -0.651300
     40 C15        -6.3520   -0.7620   11.1010 cc        1 T9H     -0.531600
     41 S2         -7.9530   -0.4930   10.7750 ss        1 T9H      0.289200
     42 C18        -8.5230   -1.5380   11.8920 cc        1 T9H     -0.167100
     43 C17        -7.4920   -2.1560   12.5970 cd        1 T9H     -0.176000
     44 C16        -6.2370   -1.7070   12.1400 cd        1 T9H     -0.023000
     45 H2          2.0090   -0.4630   -1.0320 hn        1 T9H      0.335500
     46 H7          2.8500   -0.9390    1.1850 hx        1 T9H      0.131700
     47 H4          1.2360   -1.0080   -3.1960 ha        1 T9H      0.161500
     48 H1         -1.2510    1.3210   -0.4410 ha        1 T9H      0.161500
     49 H3         -0.5740   -0.7210   -4.9010 h4        1 T9H      0.039100
     50 HA         -2.9330    1.4890   -2.2860 h4        1 T9H      0.039100
     51 H231        3.9170    0.8390    0.1000 hc        1 T9H      0.081200
     52 H232        2.8910    2.1310    0.8580 hc        1 T9H      0.081200
     53 HB          1.4040    0.7730    3.1090 hn        1 T9H      0.476300
     54 H25         4.5420    3.6560    2.1780 h4        1 T9H      0.182000
     55 H28         4.7010   -1.5690    2.1460 ha        1 T9H      0.130000
     56 H29         6.4160   -2.6820    3.5600 ha        1 T9H      0.149000
     57 H30         7.9820   -1.3660    4.9520 ha        1 T9H      0.152000
     58 H31         7.8930    1.1310    4.9840 ha        1 T9H      0.151000
     59 H6          6.4730    3.2920    3.7800 hn        1 T9H      0.318700
     60 H10        -0.6560    0.2720    3.2560 ha        1 T9H      0.161000
     61 H21        -0.5400   -2.8290    7.1870 ha        1 T9H      0.174000
     62 H11        -2.5100    0.2950    4.8100 ha        1 T9H      0.161000
     63 H201       -4.2200   -0.3390    5.7830 h1        1 T9H      0.062700
     64 H202       -3.3730    0.7110    7.0230 h1        1 T9H      0.062700
     65 H131       -1.8700   -1.6910    8.8370 h1        1 T9H      0.062700
     66 H132       -2.4550   -3.1650    7.9190 h1        1 T9H      0.062700
     67 H191       -5.5590    0.5430    7.8350 h1        1 T9H      0.071200
     68 H192       -5.7760   -1.1900    7.2800 h1        1 T9H      0.071200
     69 H141       -4.6490   -2.9890    8.6520 h1        1 T9H      0.071200
     70 H142       -3.6800   -2.4390   10.1050 h1        1 T9H      0.071200
     71 H16        -5.2760   -2.0330   12.5580 ha        1 T9H      0.178000
     72 H18        -9.5840   -1.7240   12.0730 h4        1 T9H      0.190000
     73 H17        -7.6290   -2.8850   13.3990 ha        1 T9H      0.172000
     74 H32         2.9760    0.2630    3.4170 hn        1 T9H      0.476300
@<TRIPOS>BOND
     1    1    2 2   
     2    2    3 1   
     3    2   10 1   
     4    3    4 1   
     5    3   45 1   
     6    4    5 ar  
     7    4    9 ar  
     8    5    6 ar  
     9    5   47 1   
    10    6    7 ar  
    11    6   49 1   
    12    7    8 ar  
    13    8    9 ar  
    14    8   50 1   
    15    9   48 1   
    16   10   11 1   
    17   10   21 1   
    18   10   46 1   
    19   11   12 1   
    20   11   51 1   
    21   11   52 1   
    22   12   13 1   
    23   12   20 2   
    24   13   14 ar  
    25   13   18 ar  
    26   14   15 ar  
    27   14   55 1   
    28   15   16 ar  
    29   15   56 1   
    30   16   17 ar  
    31   16   57 1   
    32   17   18 ar  
    33   17   58 1   
    34   18   19 1   
    35   19   20 1   
    36   19   59 1   
    37   20   54 1   
    38   21   22 1   
    39   21   53 1   
    40   21   74 1   
    41   22   23 2   
    42   22   24 1   
    43   24   25 ar  
    44   24   30 ar  
    45   25   26 1   
    46   25   27 ar  
    47   27   28 ar  
    48   27   61 1   
    49   28   29 ar  
    50   28   31 1   
    51   29   30 ar  
    52   29   62 1   
    53   30   60 1   
    54   31   32 1   
    55   31   36 1   
    56   32   33 1   
    57   32   63 1   
    58   32   64 1   
    59   33   34 1   
    60   33   67 1   
    61   33   68 1   
    62   34   35 1   
    63   34   37 1   
    64   35   36 1   
    65   35   69 1   
    66   35   70 1   
    67   36   65 1   
    68   36   66 1   
    69   37   38 2   
    70   37   39 2   
    71   37   40 1   
    72   40   41 1   
    73   40   44 2   
    74   41   42 1   
    75   42   43 2   
    76   42   72 1   
    77   43   44 1   
    78   43   73 1   
    79   44   71 1   
@<TRIPOS>SUBSTRUCTURE
     1 T9H         1 TEMP              0 ****  ****    0 ROOT
