@<TRIPOS>MOLECULE
T9N
   38    40     1     0     0
SMALL
bcc


@<TRIPOS>ATOM
      1 C01         0.0770    0.1970   -0.0800 c3        1 T9N      0.180100
      2 N02         1.5030    0.0750    0.0510 nu        1 T9N     -0.811900
      3 C03         2.0830    0.0690    1.3100 cc        1 T9N      0.646300
      4 N04         1.4110   -0.0410    2.4840 nd        1 T9N     -0.723000
      5 C05         2.3050   -0.1360    3.5360 cd        1 T9N      0.478600
      6 C06         1.7880   -0.2770    4.9190 c3        1 T9N     -0.133400
      7 C07         3.6630   -0.0800    3.1720 cc        1 T9N     -0.346900
      8 C08         4.8270   -0.1390    4.0250 ca        1 T9N      0.651800
      9 N09         4.6610   -0.2650    5.3640 nb        1 T9N     -0.773000
     10 C10         5.7990   -0.3310    6.1570 ca        1 T9N      0.908900
     11 N11         5.5770   -0.5430    7.5240 nu        1 T9N     -0.712300
     12 C12         6.5770   -0.3640    8.5070 ca        1 T9N      0.165600
     13 C13         6.3100    0.4860    9.6010 ca        1 T9N     -0.195000
     14 C14         7.2610    0.6060   10.6210 ca        1 T9N      0.139100
     15 O15         6.9300    1.4470   11.6600 oh        1 T9N     -0.498100
     16 C16         8.4750   -0.0930   10.5720 ca        1 T9N     -0.218000
     17 C17         8.7240   -0.9280    9.4870 ca        1 T9N     -0.082000
     18 C18         7.7930   -1.0780    8.4630 ca        1 T9N     -0.142000
     19 N19         7.1050   -0.2470    5.6770 nb        1 T9N     -0.745000
     20 C20         7.2320   -0.1150    4.3550 ca        1 T9N      0.512200
     21 C21         6.1380   -0.0570    3.4600 ca        1 T9N     -0.344600
     22 C22         6.3940    0.0820    2.0790 cg        1 T9N      0.252800
     23 N23         6.6940    0.1980    0.9580 n1        1 T9N     -0.365800
     24 S24         3.8080    0.0730    1.4870 ss        1 T9N     -0.096300
     25 H011       -0.4240   -0.6170    0.5080 h1        1 T9N      0.050033
     26 H012       -0.3070    1.1870    0.2860 h1        1 T9N      0.050033
     27 H013       -0.1820    0.0800   -1.1650 h1        1 T9N      0.050033
     28 H02         2.0310    0.5820   -0.6290 hn        1 T9N      0.417800
     29 H061        2.1740   -1.2260    5.3690 hc        1 T9N      0.063367
     30 H062        2.1360    0.5850    5.5400 hc        1 T9N      0.063367
     31 H063        0.6690   -0.3030    4.9440 hc        1 T9N      0.063367
     32 H11         4.6410   -0.3800    7.8400 hn        1 T9N      0.450800
     33 H13         5.3730    1.0580    9.6780 ha        1 T9N      0.153000
     34 H18         8.0180   -1.7540    7.6250 ha        1 T9N      0.157000
     35 H15         7.6710    1.4550   12.2830 ho        1 T9N      0.422000
     36 H16         9.2140    0.0170   11.3780 ha        1 T9N      0.137000
     37 H17         9.6730   -1.4850    9.4370 ha        1 T9N      0.138000
     38 H20         8.2720   -0.0480    3.9790 h4        1 T9N      0.038100
@<TRIPOS>BOND
     1    1    2 1   
     2    1   25 1   
     3    1   26 1   
     4    1   27 1   
     5    2    3 1   
     6    2   28 1   
     7    3    4 2   
     8    3   24 1   
     9    4    5 1   
    10    5    6 1   
    11    5    7 2   
    12    6   29 1   
    13    6   30 1   
    14    6   31 1   
    15    7    8 1   
    16    7   24 1   
    17    8    9 ar  
    18    8   21 ar  
    19    9   10 ar  
    20   10   11 1   
    21   10   19 ar  
    22   11   12 1   
    23   11   32 1   
    24   12   13 ar  
    25   12   18 ar  
    26   13   14 ar  
    27   13   33 1   
    28   14   15 1   
    29   14   16 ar  
    30   15   35 1   
    31   16   17 ar  
    32   16   36 1   
    33   17   18 ar  
    34   17   37 1   
    35   18   34 1   
    36   19   20 ar  
    37   20   21 ar  
    38   20   38 1   
    39   21   22 1   
    40   22   23 3   
@<TRIPOS>SUBSTRUCTURE
     1 T9N         1 TEMP              0 ****  ****    0 ROOT
