@<TRIPOS>MOLECULE
T9N
   40    42     1     0     0
SMALL
bcc


@<TRIPOS>ATOM
      1 C01         0.8360   -0.4870   -0.2050 c3        1 T9N      0.084100
      2 N02         2.1680   -1.0690    0.1180 n4        1 T9N     -0.706700
      3 C03         2.6450   -0.6770    1.4410 cc        1 T9N      0.364300
      4 N04         2.0130   -1.1200    2.5590 nd        1 T9N     -0.596000
      5 C05         2.6480   -0.6260    3.6780 cd        1 T9N      0.470600
      6 C06         2.1400   -0.9720    5.0270 c3        1 T9N     -0.146400
      7 C07         3.7670    0.1970    3.3830 cc        1 T9N     -0.318900
      8 C08         4.6480    0.8670    4.3230 ca        1 T9N      0.602800
      9 N09         4.4490    0.7120    5.6640 nb        1 T9N     -0.674000
     10 C10         5.3110    1.3790    6.4900 ca        1 T9N      0.758900
     11 N11         5.1050    1.1990    7.9650 n4        1 T9N     -0.609100
     12 C12         6.0610    0.2310    8.5260 ca        1 T9N     -0.025400
     13 C13         7.3450    0.6770    8.8880 ca        1 T9N     -0.202000
     14 C14         8.2240   -0.2470    9.4670 ca        1 T9N      0.171100
     15 O15         9.4920    0.0720    9.8560 oh        1 T9N     -0.452100
     16 C16         7.8340   -1.5900    9.6770 ca        1 T9N     -0.088000
     17 C17         6.5620   -1.9950    9.3000 ca        1 T9N     -0.075000
     18 C18         5.6600   -1.0970    8.7180 ca        1 T9N     -0.133000
     19 N19         6.3570    2.1920    6.1220 nb        1 T9N     -0.651000
     20 C20         6.5410    2.3310    4.7990 ca        1 T9N      0.521200
     21 C21         5.7150    1.6850    3.8450 ca        1 T9N     -0.211600
     22 C22         5.9690    1.8730    2.4650 cg        1 T9N      0.180800
     23 N23         6.2440    2.0770    1.3500 n1        1 T9N     -0.233800
     24 S24         3.9820    0.3240    1.7240 ss        1 T9N      0.183700
     25 H011        0.5510   -0.8150   -1.2430 hx        1 T9N      0.121700
     26 H012        0.8890    0.6330   -0.1570 hx        1 T9N      0.121700
     27 H013        0.0730   -0.8590    0.5340 hx        1 T9N      0.121700
     28 H02         2.0980   -2.1020    0.0820 hn        1 T9N      0.475300
     29 H061        1.8580   -0.0380    5.5740 hc        1 T9N      0.085367
     30 H062        1.2360   -1.6330    4.9740 hc        1 T9N      0.085367
     31 H063        2.9350   -1.5140    5.5990 hc        1 T9N      0.085367
     32 H11         5.2410    2.1130    8.4280 hn        1 T9N      0.485800
     33 H13         7.6670    1.7190    8.7280 ha        1 T9N      0.168000
     34 H18         4.6560   -1.4500    8.4340 ha        1 T9N      0.156000
     35 H15         9.6450    1.0220    9.7160 ho        1 T9N      0.445000
     36 H16         8.5500   -2.2910   10.1400 ha        1 T9N      0.197000
     37 H17         6.2480   -3.0410    9.4650 ha        1 T9N      0.180000
     38 H20         7.3860    2.9880    4.4920 h4        1 T9N      0.095100
     39 H022        2.8590   -0.7660   -0.5820 hn        1 T9N      0.475300
     40 H112        4.1440    0.8680    8.1390 hn        1 T9N      0.485800
@<TRIPOS>BOND
     1    1    2 1   
     2    1   25 1   
     3    1   26 1   
     4    1   27 1   
     5    2    3 1   
     6    2   28 1   
     7    2   39 1   
     8    3    4 2   
     9    3   24 1   
    10    4    5 1   
    11    5    6 1   
    12    5    7 2   
    13    6   29 1   
    14    6   30 1   
    15    6   31 1   
    16    7    8 1   
    17    7   24 1   
    18    8    9 ar  
    19    8   21 ar  
    20    9   10 ar  
    21   10   11 1   
    22   10   19 ar  
    23   11   12 1   
    24   11   32 1   
    25   11   40 1   
    26   12   13 ar  
    27   12   18 ar  
    28   13   14 ar  
    29   13   33 1   
    30   14   15 1   
    31   14   16 ar  
    32   15   35 1   
    33   16   17 ar  
    34   16   36 1   
    35   17   18 ar  
    36   17   37 1   
    37   18   34 1   
    38   19   20 ar  
    39   20   21 ar  
    40   20   38 1   
    41   21   22 1   
    42   22   23 3   
@<TRIPOS>SUBSTRUCTURE
     1 T9N         1 TEMP              0 ****  ****    0 ROOT
