@<TRIPOS>MOLECULE
T9N
   38    40     1     0     0
SMALL
bcc


@<TRIPOS>ATOM
      1 C01         0.0360    0.4700   -0.0480 c3        1 T9N      0.179100
      2 N02         1.4580    0.5880    0.1180 nh        1 T9N     -0.810900
      3 C03         2.0370    0.2880    1.3410 cc        1 T9N      0.646300
      4 N04         1.3630    0.0840    2.5020 nd        1 T9N     -0.722000
      5 C05         2.2550   -0.0700    3.5480 cd        1 T9N      0.477600
      6 C06         1.7350   -0.3000    4.9180 c3        1 T9N     -0.132400
      7 C07         3.6130   -0.0040    3.1890 cc        1 T9N     -0.346900
      8 C08         4.7750   -0.1310    4.0380 ca        1 T9N      0.650800
      9 N09         4.6080   -0.2120    5.3800 nb        1 T9N     -0.774000
     10 C10         5.7440   -0.3410    6.1690 ca        1 T9N      0.907900
     11 N11         5.5160   -0.5010    7.5420 nh        1 T9N     -0.713300
     12 C12         6.5330   -0.3680    8.5150 ca        1 T9N      0.169600
     13 C13         6.3400    0.5360    9.5850 ca        1 T9N     -0.250000
     14 C14         7.3030    0.6180   10.5940 ca        1 T9N      0.140100
     15 O15         7.1740    1.4720   11.6660 oh        1 T9N     -0.495100
     16 C16         8.4630   -0.1740   10.5650 ca        1 T9N     -0.161000
     17 C17         8.6380   -1.0570    9.5070 ca        1 T9N     -0.088000
     18 C18         7.6900   -1.1700    8.4900 ca        1 T9N     -0.141000
     19 N19         7.0500   -0.3640    5.6810 nb        1 T9N     -0.743000
     20 C20         7.1780   -0.2740    4.3560 ca        1 T9N      0.512200
     21 C21         6.0850   -0.1590    3.4650 ca        1 T9N     -0.343600
     22 C22         6.3400   -0.0780    2.0790 cg        1 T9N      0.252800
     23 N23         6.6360   -0.0200    0.9530 n1        1 T9N     -0.365800
     24 S24         3.7620    0.2670    1.5200 ss        1 T9N     -0.095300
     25 H011       -0.2260    0.8510   -1.0700 h1        1 T9N      0.050033
     26 H012       -0.3250   -0.5890    0.0540 h1        1 T9N      0.050033
     27 H013       -0.4850    1.0980    0.7230 h1        1 T9N      0.050033
     28 H02         1.9980    0.2810   -0.6650 hn        1 T9N      0.417800
     29 H061        2.1560   -1.2520    5.3270 hc        1 T9N      0.062700
     30 H062        2.0450    0.5460    5.5820 hc        1 T9N      0.062700
     31 H063        0.6190   -0.3710    4.9340 hc        1 T9N      0.062700
     32 H11         4.5960   -0.2690    7.8580 hn        1 T9N      0.448800
     33 H13         5.4450    1.1730    9.6330 ha        1 T9N      0.135000
     34 H18         7.8600   -1.8870    7.6740 ha        1 T9N      0.156000
     35 H15         6.3510    1.9700   11.5560 ho        1 T9N      0.419000
     36 H16         9.2050   -0.0830   11.3710 ha        1 T9N      0.154000
     37 H17         9.5410   -1.6860    9.4700 ha        1 T9N      0.140000
     38 H20         8.2170   -0.2920    3.9740 h4        1 T9N      0.039100
@<TRIPOS>BOND
     1    1    2 1   
     2    1   25 1   
     3    1   26 1   
     4    1   27 1   
     5    2    3 1   
     6    2   28 1   
     7    3    4 2   
     8    3   24 1   
     9    4    5 1   
    10    5    6 1   
    11    5    7 2   
    12    6   29 1   
    13    6   30 1   
    14    6   31 1   
    15    7    8 1   
    16    7   24 1   
    17    8    9 ar  
    18    8   21 ar  
    19    9   10 ar  
    20   10   11 1   
    21   10   19 ar  
    22   11   12 1   
    23   11   32 1   
    24   12   13 ar  
    25   12   18 ar  
    26   13   14 ar  
    27   13   33 1   
    28   14   15 1   
    29   14   16 ar  
    30   15   35 1   
    31   16   17 ar  
    32   16   36 1   
    33   17   18 ar  
    34   17   37 1   
    35   18   34 1   
    36   19   20 ar  
    37   20   21 ar  
    38   20   38 1   
    39   21   22 1   
    40   22   23 3   
@<TRIPOS>SUBSTRUCTURE
     1 T9N         1 TEMP              0 ****  ****    0 ROOT
