@<TRIPOS>MOLECULE
T9N
   38    40     1     0     0
SMALL
bcc


@<TRIPOS>ATOM
      1 C01         6.9190    1.7470    0.1730 c3        1 T9N      0.180100
      2 N02         6.0920    0.5730    0.1280 nh        1 T9N     -0.811900
      3 C03         4.7130    0.7020    0.0920 cc        1 T9N      0.646300
      4 N04         4.0360    1.8600   -0.1160 nd        1 T9N     -0.723000
      5 C05         2.6790    1.6060   -0.2120 cd        1 T9N      0.478600
      6 C06         1.7450    2.7340   -0.4520 c3        1 T9N     -0.133400
      7 C07         2.3120    0.2570   -0.0600 cc        1 T9N     -0.346900
      8 C08         0.9900   -0.3250   -0.0950 ca        1 T9N      0.651800
      9 N09        -0.0830    0.4780   -0.2960 nb        1 T9N     -0.773000
     10 C10        -1.3390   -0.1130   -0.3360 ca        1 T9N      0.908900
     11 N11        -2.4060    0.7470   -0.6280 nh        1 T9N     -0.712300
     12 C12        -3.7610    0.3880   -0.4410 ca        1 T9N      0.165600
     13 C13        -4.5850    1.2280    0.3380 ca        1 T9N     -0.195000
     14 C14        -5.9460    0.9260    0.4610 ca        1 T9N      0.139100
     15 O15        -6.6900    1.7930    1.2300 oh        1 T9N     -0.498100
     16 C16        -6.5040   -0.1980   -0.1640 ca        1 T9N     -0.218000
     17 C17        -5.6790   -1.0170   -0.9280 ca        1 T9N     -0.082000
     18 C18        -4.3240   -0.7360   -1.0800 ca        1 T9N     -0.142000
     19 N19        -1.5810   -1.4740   -0.1540 nb        1 T9N     -0.745000
     20 C20        -0.5030   -2.2340    0.0500 ca        1 T9N      0.512200
     21 C21         0.8190   -1.7330    0.0900 ca        1 T9N     -0.344600
     22 C22         1.8830   -2.6340    0.3110 cg        1 T9N      0.252800
     23 N23         2.7000   -3.4450    0.4990 n1        1 T9N     -0.365800
     24 S24         3.6930   -0.6990    0.1860 ss        1 T9N     -0.096300
     25 H011        7.9890    1.4200    0.0960 h1        1 T9N      0.050033
     26 H012        6.6740    2.4120   -0.6970 h1        1 T9N      0.050033
     27 H013        6.7810    2.3360    1.1200 h1        1 T9N      0.050033
     28 H02         6.4070   -0.1850    0.6970 hn        1 T9N      0.417800
     29 H061        1.1760    2.5540   -1.3990 hc        1 T9N      0.063367
     30 H062        1.0200    2.8090    0.3970 hc        1 T9N      0.063367
     31 H063        2.2850    3.7090   -0.5440 hc        1 T9N      0.063367
     32 H11        -2.2120    1.7240   -0.5340 hn        1 T9N      0.450800
     33 H13        -4.1890    2.1170    0.8510 ha        1 T9N      0.153000
     34 H18        -3.7020   -1.3990   -1.7010 ha        1 T9N      0.157000
     35 H15        -7.6010    1.4660    1.2500 ho        1 T9N      0.422000
     36 H16        -7.5730   -0.4240   -0.0510 ha        1 T9N      0.137000
     37 H17        -6.1040   -1.9020   -1.4270 ha        1 T9N      0.138000
     38 H20        -0.7010   -3.3140    0.1950 h4        1 T9N      0.038100
@<TRIPOS>BOND
     1    1    2 1   
     2    1   25 1   
     3    1   26 1   
     4    1   27 1   
     5    2    3 1   
     6    2   28 1   
     7    3    4 2   
     8    3   24 1   
     9    4    5 1   
    10    5    6 1   
    11    5    7 2   
    12    6   29 1   
    13    6   30 1   
    14    6   31 1   
    15    7    8 1   
    16    7   24 1   
    17    8    9 ar  
    18    8   21 ar  
    19    9   10 ar  
    20   10   11 1   
    21   10   19 ar  
    22   11   12 1   
    23   11   32 1   
    24   12   13 ar  
    25   12   18 ar  
    26   13   14 ar  
    27   13   33 1   
    28   14   15 1   
    29   14   16 ar  
    30   15   35 1   
    31   16   17 ar  
    32   16   36 1   
    33   17   18 ar  
    34   17   37 1   
    35   18   34 1   
    36   19   20 ar  
    37   20   21 ar  
    38   20   38 1   
    39   21   22 1   
    40   22   23 3   
@<TRIPOS>SUBSTRUCTURE
     1 T9N         1 TEMP              0 ****  ****    0 ROOT
