@<TRIPOS>MOLECULE
TA2
   26    26     1     0     0
SMALL
bcc


@<TRIPOS>ATOM
      1 OH1         0.0510    0.1170   -0.1670 oh        1 TA2     -0.646800
      2 COH         1.4520    0.0040    0.0340 c3        1 TA2      0.132100
      3 C           1.7830   -0.3250    1.4950 c3        1 TA2      0.105400
      4 O           1.1770    0.7150    2.2420 oh        1 TA2     -0.608800
      5 CA          1.9340   -1.1500   -0.8830 c3        1 TA2      0.188800
      6 N           1.3390   -1.0060   -2.2660 n4        1 TA2     -0.837600
      7 CG          3.4250   -1.2090   -0.9780 ca        1 TA2     -0.194300
      8 CD2         4.0840   -2.3990   -0.6490 ca        1 TA2     -0.106500
      9 CE2         5.4750   -2.4660   -0.7210 ca        1 TA2     -0.114000
     10 CZ          6.2100   -1.3520   -1.1280 ca        1 TA2     -0.077000
     11 CE1         5.5530   -0.1650   -1.4620 ca        1 TA2     -0.114000
     12 CD1         4.1640   -0.0910   -1.3880 ca        1 TA2     -0.106500
     13 HOH1       -0.3180    0.6080    0.5850 ho        1 TA2      0.475000
     14 HOH         1.9420    0.9760   -0.2560 h1        1 TA2      0.079700
     15 H1          2.8940   -0.3350    1.6470 h1        1 TA2      0.055200
     16 H2          1.3450   -1.3160    1.7880 h1        1 TA2      0.055200
     17 HO          1.3910    0.5630    3.1720 ho        1 TA2      0.440000
     18 HA          1.5190   -2.1210   -0.4710 hx        1 TA2      0.114700
     19 HN1         0.3230   -0.8690   -2.1790 hn        1 TA2      0.463133
     20 HN2         1.5360   -1.8430   -2.8170 hn        1 TA2      0.463133
     21 HD2         3.5130   -3.2830   -0.3230 ha        1 TA2      0.139500
     22 HE2         5.9930   -3.4020   -0.4540 ha        1 TA2      0.163000
     23 HZ          7.3100   -1.4070   -1.1830 ha        1 TA2      0.165000
     24 HE1         6.1340    0.7160   -1.7800 ha        1 TA2      0.163000
     25 HD1         3.6600    0.8550   -1.6380 ha        1 TA2      0.139500
     26 HN3         1.7470   -0.1910   -2.7330 hn        1 TA2      0.463133
@<TRIPOS>BOND
     1    1    2 1   
     2    1   13 1   
     3    2    3 1   
     4    2    5 1   
     5    2   14 1   
     6    3    4 1   
     7    3   15 1   
     8    3   16 1   
     9    4   17 1   
    10    5    6 1   
    11    5    7 1   
    12    5   18 1   
    13    6   19 1   
    14    6   20 1   
    15    6   26 1   
    16    7    8 ar  
    17    7   12 ar  
    18    8    9 ar  
    19    8   21 1   
    20    9   10 ar  
    21    9   22 1   
    22   10   11 ar  
    23   10   23 1   
    24   11   12 ar  
    25   11   24 1   
    26   12   25 1   
@<TRIPOS>SUBSTRUCTURE
     1 TA2         1 TEMP              0 ****  ****    0 ROOT
