@<TRIPOS>MOLECULE
TA2
   26    26     1     0     0
SMALL
bcc


@<TRIPOS>ATOM
      1 OH1         0.0700    0.1650   -0.1500 oh        1 TA2     -0.646800
      2 COH         1.4700    0.0310    0.0400 c3        1 TA2      0.132100
      3 C           1.8070   -0.2960    1.5010 c3        1 TA2      0.105400
      4 O           1.2220    0.7570    2.2470 oh        1 TA2     -0.608800
      5 CA          1.9260   -1.1350   -0.8740 c3        1 TA2      0.188800
      6 N           1.3240   -0.9880   -2.2530 nz        1 TA2     -0.837600
      7 CG          3.4160   -1.2190   -0.9790 ca        1 TA2     -0.194300
      8 CD2         4.0580   -2.4180   -0.6480 ca        1 TA2     -0.106500
      9 CE2         5.4480   -2.5070   -0.7290 ca        1 TA2     -0.114000
     10 CZ          6.1970   -1.4070   -1.1470 ca        1 TA2     -0.077000
     11 CE1         5.5570   -0.2120   -1.4830 ca        1 TA2     -0.114000
     12 CD1         4.1700   -0.1150   -1.4000 ca        1 TA2     -0.106500
     13 HOH1       -0.2860    0.6660    0.6010 ho        1 TA2      0.475000
     14 HOH         1.9740    0.9940   -0.2580 h1        1 TA2      0.079700
     15 H1          1.3540   -1.2780    1.8020 h1        1 TA2      0.055200
     16 H2          2.9180   -0.3230    1.6450 h1        1 TA2      0.055200
     17 HO          1.4400    0.6070    3.1760 ho        1 TA2      0.440000
     18 HA          1.5000   -2.0980   -0.4540 hx        1 TA2      0.114700
     19 HN1         1.5040   -1.8320   -2.8020 hn        1 TA2      0.463133
     20 HN2         1.7420   -0.1830   -2.7270 hn        1 TA2      0.463133
     21 HD2         3.4760   -3.2910   -0.3130 ha        1 TA2      0.139500
     22 HE2         5.9520   -3.4500   -0.4610 ha        1 TA2      0.163000
     23 HZ          7.2960   -1.4800   -1.2100 ha        1 TA2      0.165000
     24 HE1         6.1490    0.6580   -1.8100 ha        1 TA2      0.163000
     25 HD1         3.6790    0.8380   -1.6510 ha        1 TA2      0.139500
     26 HN3         0.3110   -0.8350   -2.1590 hn        1 TA2      0.463133
@<TRIPOS>BOND
     1    1    2 1   
     2    1   13 1   
     3    2    3 1   
     4    2    5 1   
     5    2   14 1   
     6    3    4 1   
     7    3   15 1   
     8    3   16 1   
     9    4   17 1   
    10    5    6 1   
    11    5    7 1   
    12    5   18 1   
    13    6   19 1   
    14    6   20 1   
    15    6   26 1   
    16    7    8 ar  
    17    7   12 ar  
    18    8    9 ar  
    19    8   21 1   
    20    9   10 ar  
    21    9   22 1   
    22   10   11 ar  
    23   10   23 1   
    24   11   12 ar  
    25   11   24 1   
    26   12   25 1   
@<TRIPOS>SUBSTRUCTURE
     1 TA2         1 TEMP              0 ****  ****    0 ROOT
