@<TRIPOS>MOLECULE
TA2
   25    25     1     0     0
SMALL
bcc


@<TRIPOS>ATOM
      1 OH1         1.8240   -1.4840   -1.0760 oh        1 TA2     -0.612800
      2 COH         2.8770   -1.6330   -0.1330 c3        1 TA2      0.145100
      3 C           4.1540   -0.9770   -0.6680 c3        1 TA2      0.090400
      4 O           4.4670   -1.6610   -1.8720 oh        1 TA2     -0.614800
      5 CA          2.4060   -0.9300    1.1690 c3        1 TA2      0.223800
      6 N           1.1960   -1.5510    1.6890 n3        1 TA2     -0.910800
      7 CG          3.5170   -0.9640    2.1910 ca        1 TA2     -0.094300
      8 CD2         4.1710    0.2210    2.5460 ca        1 TA2     -0.114500
      9 CE2         5.1960    0.2010    3.4910 ca        1 TA2     -0.135000
     10 CZ          5.5710   -1.0010    4.0910 ca        1 TA2     -0.127000
     11 CE1         4.9170   -2.1830    3.7450 ca        1 TA2     -0.135000
     12 CD1         3.8920   -2.1670    2.8000 ca        1 TA2     -0.114500
     13 HOH1        2.1440   -1.8650   -1.9050 ho        1 TA2      0.424000
     14 HOH         3.0650   -2.7260    0.0550 h1        1 TA2      0.062700
     15 H1          4.9880   -1.0850    0.0730 h1        1 TA2      0.040200
     16 H2          3.9750    0.1110   -0.8810 h1        1 TA2      0.040200
     17 HO          5.2630   -1.2490   -2.2260 ho        1 TA2      0.409000
     18 HA          2.2200    0.1550    0.8890 h1        1 TA2      0.026700
     19 HN1         0.5330   -1.6730    0.9480 hn        1 TA2      0.361800
     20 HN2         0.8010   -0.9780    2.4080 hn        1 TA2      0.361800
     21 HD2         3.8760    1.1740    2.0810 ha        1 TA2      0.139000
     22 HE2         5.7060    1.1360    3.7650 ha        1 TA2      0.132000
     23 HZ          6.3780   -1.0150    4.8380 ha        1 TA2      0.131000
     24 HE1         5.2060   -3.1320    4.2210 ha        1 TA2      0.132000
     25 HD1         3.3680   -3.0980    2.5340 ha        1 TA2      0.139000
@<TRIPOS>BOND
     1    1    2 1   
     2    1   13 1   
     3    2    3 1   
     4    2    5 1   
     5    2   14 1   
     6    3    4 1   
     7    3   15 1   
     8    3   16 1   
     9    4   17 1   
    10    5    6 1   
    11    5    7 1   
    12    5   18 1   
    13    6   19 1   
    14    6   20 1   
    15    7    8 ar  
    16    7   12 ar  
    17    8    9 ar  
    18    8   21 1   
    19    9   10 ar  
    20    9   22 1   
    21   10   11 ar  
    22   10   23 1   
    23   11   12 ar  
    24   11   24 1   
    25   12   25 1   
@<TRIPOS>SUBSTRUCTURE
     1 TA2         1 TEMP              0 ****  ****    0 ROOT
