@<TRIPOS>MOLECULE
TA2
   25    23     1     0     0
SMALL
bcc


@<TRIPOS>ATOM
      1 OH1        -0.3140   -0.5300    2.4030 oh        1 TA2     -0.340000
      2 COH         0.3140   -0.9570    1.2170 c3        1 TA2     -0.006000
      3 C           1.5080   -1.8140    1.5680 c3        1 TA2     -0.059000
      4 O           1.0670   -3.0240    2.1530 oh        1 TA2     -0.340000
      5 CA          0.7770    0.2470    0.4160 c3        1 TA2      0.013000
      6 N           0.8660    1.3830    1.2770 n3        1 TA2     -0.314000
      7 CG         -0.1850    0.5220   -0.6610 c2        1 TA2     -0.082000
      8 CD2         0.1250    0.1930   -1.9500 c1        1 TA2     -0.113000
      9 CE2        -0.7310    0.5710   -2.9910 c1        1 TA2     -0.130000
     10 CZ         -1.9020    1.2850   -2.7090 c1        1 TA2     -0.130000
     11 CE1        -2.2050    1.6100   -1.4290 c1        1 TA2     -0.133000
     12 CD1        -1.3470    1.2310   -0.3850 c2        1 TA2     -0.119000
     13 HOH1       -1.0390   -1.0320    2.5490 ho        1 TA2      0.224000
     14 HOH        -0.3400   -1.4940    0.6640 h1        1 TA2      0.100000
     15 H1          1.9940   -2.0000    0.7960 h1        1 TA2      0.075000
     16 H2          2.0930   -1.3220    2.2210 h1        1 TA2      0.075000
     17 HO          1.7680   -3.5450    2.3170 ho        1 TA2      0.209000
     18 HA          1.6480    0.0600    0.0290 h1        1 TA2      0.101000
     19 HN1         1.1090    2.1920    0.7450 hn        1 TA2      0.147000
     20 HN2         1.5200    1.2290    1.9310 hn        1 TA2      0.147000
     21 HD2         0.8900   -0.2730   -2.1310 ha        1 TA2      0.133000
     22 HE2        -0.4970    0.3190   -3.9810 ha        1 TA2      0.130500
     23 HZ         -2.4720    1.5360   -3.3990 ha        1 TA2      0.130500
     24 HE1        -3.0740    2.1390   -1.2200 ha        1 TA2      0.132000
     25 HD1        -1.5750    1.4730    0.5710 ha        1 TA2      0.150000
@<TRIPOS>BOND
     1    1    2 1   
     2    1   13 1   
     3    2    3 1   
     4    2    5 1   
     5    2   14 1   
     6    3    4 1   
     7    3   15 1   
     8    3   16 1   
     9    4   17 1   
    10    5    6 1   
    11    5    7 1   
    12    5   18 1   
    13    6   19 1   
    14    6   20 1   
    15    7    8 1   
    16    7   12 1   
    17    8   21 1   
    18    9   10 1   
    19    9   22 1   
    20   10   23 1   
    21   11   12 1   
    22   11   24 1   
    23   12   25 1   
@<TRIPOS>SUBSTRUCTURE
     1 TA2         1 TEMP              0 ****  ****    0 ROOT
