@<TRIPOS>MOLECULE
TA2
   26    26     1     0     0
SMALL
bcc


@<TRIPOS>ATOM
      1 OH1         0.0640    0.1550   -0.1750 oh        1 TA2     -0.646800
      2 COH         1.4650    0.0380    0.0150 c3        1 TA2      0.132100
      3 C           1.8100   -0.2340    1.4850 c3        1 TA2      0.105400
      4 O           1.2210    0.8400    2.1950 oh        1 TA2     -0.608800
      5 CA          1.9270   -1.1570   -0.8590 c3        1 TA2      0.188800
      6 N           1.3180   -1.0640   -2.2400 n4        1 TA2     -0.837600
      7 CG          3.4170   -1.2330   -0.9670 ca        1 TA2     -0.194300
      8 CD2         4.0700   -2.4140   -0.5960 ca        1 TA2     -0.106500
      9 CE2         5.4600   -2.4960   -0.6790 ca        1 TA2     -0.114000
     10 CZ          6.1990   -1.4060   -1.1400 ca        1 TA2     -0.077000
     11 CE1         5.5480   -0.2290   -1.5160 ca        1 TA2     -0.114000
     12 CD1         4.1610   -0.1400   -1.4300 ca        1 TA2     -0.106500
     13 HOH1       -0.2930    0.6790    0.5600 ho        1 TA2      0.475000
     14 HOH         1.9610    0.9930   -0.3190 h1        1 TA2      0.079700
     15 H1          1.3660   -1.2080    1.8230 h1        1 TA2      0.055200
     16 H2          2.9220   -0.2480    1.6260 h1        1 TA2      0.055200
     17 HO          1.4430    0.7250    3.1280 ho        1 TA2      0.440000
     18 HA          1.5100   -2.1070   -0.4030 hx        1 TA2      0.114700
     19 HN1         1.7280   -0.2730   -2.7440 hn        1 TA2      0.463133
     20 HN2         0.3050   -0.9150   -2.1470 hn        1 TA2      0.463133
     21 HD2         3.4950   -3.2790   -0.2270 ha        1 TA2      0.139500
     22 HE2         5.9730   -3.4250   -0.3800 ha        1 TA2      0.163000
     23 HZ          7.2980   -1.4720   -1.2050 ha        1 TA2      0.165000
     24 HE1         6.1330    0.6330   -1.8770 ha        1 TA2      0.163000
     25 HD1         3.6620    0.8000   -1.7140 ha        1 TA2      0.139500
     26 HN3         1.5030   -1.9250   -2.7590 hn        1 TA2      0.463133
@<TRIPOS>BOND
     1    1    2 1   
     2    1   13 1   
     3    2    3 1   
     4    2    5 1   
     5    2   14 1   
     6    3    4 1   
     7    3   15 1   
     8    3   16 1   
     9    4   17 1   
    10    5    6 1   
    11    5    7 1   
    12    5   18 1   
    13    6   19 1   
    14    6   20 1   
    15    6   26 1   
    16    7    8 ar  
    17    7   12 ar  
    18    8    9 ar  
    19    8   21 1   
    20    9   10 ar  
    21    9   22 1   
    22   10   11 ar  
    23   10   23 1   
    24   11   12 ar  
    25   11   24 1   
    26   12   25 1   
@<TRIPOS>SUBSTRUCTURE
     1 TA2         1 TEMP              0 ****  ****    0 ROOT
