@<TRIPOS>MOLECULE
TA3
   35    37     1     0     0
SMALL
bcc


@<TRIPOS>ATOM
      1 OP3        -1.5400   -0.2770   26.2440 o         1 TA3     -0.925167
      2 P          -2.4890   -1.4330   26.2580 p5        1 TA3      1.329900
      3 OP1        -2.4330   -2.4140   27.3880 o         1 TA3     -0.925167
      4 OP2        -2.7590   -2.0570   24.8960 o         1 TA3     -0.925167
      5 O5'        -4.0370   -0.7030   26.5510 os        1 TA3     -0.574200
      6 C5'        -4.6540   -0.1540   25.4560 c3        1 TA3      0.225400
      7 C4'        -5.9530   -0.9300   25.1490 c3        1 TA3      0.071100
      8 O4'        -6.4010   -0.6700   23.8030 os        1 TA3     -0.452600
      9 C3'        -5.7590   -2.4540   25.2890 c3        1 TA3      0.089100
     10 O3'        -6.3270   -2.9310   26.4960 oh        1 TA3     -0.643800
     11 C2'        -6.5060   -3.0520   24.0990 c3        1 TA3     -0.098400
     12 C1'        -6.5400   -1.9000   23.0670 c3        1 TA3      0.301500
     13 N1         -5.5500   -2.0440   22.0320 n         1 TA3     -0.485800
     14 C2         -5.4970   -1.4090   20.7700 c         1 TA3      0.750500
     15 O2         -6.3530   -1.0650   19.9460 o         1 TA3     -0.650500
     16 N3         -4.0340   -1.3460   20.8040 n         1 TA3     -0.375800
     17 C4         -3.3280   -2.5060   20.2080 cy        1 TA3      0.000000
     18 C5         -3.3260   -3.2700   21.5710 cy        1 TA3     -0.090700
     19 C5M        -1.9930   -3.4830   22.2160 c3        1 TA3     -0.120100
     20 C6         -4.0830   -2.0320   22.1780 cy        1 TA3      0.164100
     21 H5'        -3.9850   -0.1670   24.5510 h1        1 TA3      0.000200
     22 H5''       -4.9510    0.9140   25.6720 h1        1 TA3      0.000200
     23 H4'        -6.7850   -0.5790   25.8170 h1        1 TA3      0.026700
     24 H3'        -4.6380   -2.6810   25.2530 h1        1 TA3      0.168700
     25 HO3'       -5.6820   -2.6880   27.1790 ho        1 TA3      0.442000
     26 H2'        -7.5520   -3.3250   24.3800 hc        1 TA3      0.045200
     27 H2''       -5.9890   -3.9620   23.7160 hc        1 TA3      0.045200
     28 H1'        -7.5410   -1.8220   22.5490 h2        1 TA3      0.049700
     29 H41        -2.3150   -2.1950   19.8580 h1        1 TA3      0.042200
     30 H42        -3.8740   -3.0190   19.3840 h1        1 TA3      0.042200
     31 H5         -3.9260   -4.2070   21.5500 hc        1 TA3      0.047700
     32 H71        -1.2390   -2.7540   21.8340 hc        1 TA3      0.062367
     33 H72        -2.0900   -3.3110   23.3330 hc        1 TA3      0.062367
     34 H73        -1.6180   -4.5160   22.0210 hc        1 TA3      0.062367
     35 H6         -3.6330   -1.5980   23.1230 h2        1 TA3      0.241700
@<TRIPOS>BOND
     1    1    2 1   
     2    2    3 1   
     3    2    4 1   
     4    2    5 1   
     5    5    6 1   
     6    6    7 1   
     7    6   21 1   
     8    6   22 1   
     9    7    8 1   
    10    7    9 1   
    11    7   23 1   
    12    8   12 1   
    13    9   10 1   
    14    9   11 1   
    15    9   24 1   
    16   10   25 1   
    17   11   12 1   
    18   11   26 1   
    19   11   27 1   
    20   12   13 1   
    21   12   28 1   
    22   13   14 1   
    23   13   20 1   
    24   14   15 2   
    25   14   16 1   
    26   16   17 1   
    27   16   20 1   
    28   17   18 1   
    29   17   29 1   
    30   17   30 1   
    31   18   19 1   
    32   18   20 1   
    33   18   31 1   
    34   19   32 1   
    35   19   33 1   
    36   19   34 1   
    37   20   35 1   
@<TRIPOS>SUBSTRUCTURE
     1 TA3         1 TEMP              0 ****  ****    0 ROOT
