@<TRIPOS>MOLECULE
TA3
   35    36     1     0     0
SMALL
bcc


@<TRIPOS>ATOM
      1 OP3        -4.0900   -4.3890    0.9820 o         1 TA3     -0.924000
      2 P          -2.5800   -4.3890    0.9820 p4        1 TA3      1.703200
      3 OP1        -2.0770   -4.3890    2.4050 o         1 TA3     -0.972800
      4 OP2        -2.0770   -5.6220    0.2700 os        1 TA3     -1.259000
      5 O5'        -2.0530   -3.0990    0.2370 os        1 TA3     -0.563200
      6 C5'        -0.7030   -2.7340    0.3990 c3        1 TA3      0.206400
      7 C4'        -0.2040   -2.0410   -0.8740 c3        1 TA3      0.060100
      8 O4'        -0.6810   -0.5390   -0.9010 os        1 TA3     -0.452600
      9 C3'         1.0750   -1.9870   -0.8770 c3        1 TA3      0.124100
     10 O3'         1.5760   -2.0420   -2.2530 oh        1 TA3     -0.667800
     11 C2'         1.4710   -0.5640   -0.1960 c3        1 TA3     -0.111400
     12 C1'         0.5770    0.2970   -0.6070 c3        1 TA3      0.309500
     13 N1          0.3040    1.2640    0.4230 n         1 TA3     -0.485800
     14 C2         -0.8380    1.5820    1.2480 c         1 TA3      0.754500
     15 O2         -1.9600    1.1340    1.3720 o         1 TA3     -0.648500
     16 N3         -0.1670    2.7410    1.7050 n         1 TA3     -0.391800
     17 C4         -0.2710    3.9910    0.9420 cy        1 TA3     -0.008000
     18 C5          0.8430    3.6040    0.1540 cy        1 TA3     -0.064700
     19 C5M         0.4730    3.3540   -1.3170 c3        1 TA3     -0.131100
     20 C6          0.9580    2.3830    0.9160 cy        1 TA3      0.183100
     21 H5'        -0.1680   -3.5340    0.5650 h1        1 TA3     -0.002800
     22 H5''       -0.6190   -2.1240    1.1560 h1        1 TA3     -0.002800
     23 H4'        -0.5250   -2.5130   -1.6660 h1        1 TA3      0.063700
     24 H3'         1.4440   -2.7250   -0.3550 h1        1 TA3      0.140700
     25 HO3'        2.2240   -2.6460   -2.3080 ho        1 TA3      0.483000
     26 H2'         1.4420   -0.6380    0.7770 hc        1 TA3      0.047700
     27 H2''        2.3610   -0.2890   -0.4860 hc        1 TA3      0.047700
     28 H1'         0.8850    0.7430   -1.4190 h2        1 TA3      0.046700
     29 H41        -1.0970    4.0500    0.4250 h1        1 TA3      0.046200
     30 H42        -0.0920    4.7810    1.4860 h1        1 TA3      0.046200
     31 H5          1.6110    4.1950    0.2700 hc        1 TA3      0.081700
     32 H71         0.3060    4.2080   -1.7600 hc        1 TA3      0.070367
     33 H72        -0.3310    2.8020   -1.3620 hc        1 TA3      0.070367
     34 H73         1.2080    2.8930   -1.7640 hc        1 TA3      0.070367
     35 H6          1.7740    2.2440    1.4330 h2        1 TA3      0.131700
@<TRIPOS>BOND
     1    1    2 1   
     2    2    3 2   
     3    2    5 1   
     4    5    6 1   
     5    6    7 1   
     6    6   21 1   
     7    6   22 1   
     8    7    8 1   
     9    7    9 1   
    10    7   23 1   
    11    8   12 1   
    12    9   10 1   
    13    9   11 1   
    14    9   24 1   
    15   10   25 1   
    16   11   12 1   
    17   11   26 1   
    18   11   27 1   
    19   12   13 1   
    20   12   28 1   
    21   13   14 1   
    22   13   20 1   
    23   14   15 2   
    24   14   16 1   
    25   16   17 1   
    26   16   20 1   
    27   17   18 1   
    28   17   29 1   
    29   17   30 1   
    30   18   19 1   
    31   18   20 1   
    32   18   31 1   
    33   19   32 1   
    34   19   33 1   
    35   19   34 1   
    36   20   35 1   
@<TRIPOS>SUBSTRUCTURE
     1 TA3         1 TEMP              0 ****  ****    0 ROOT
