@<TRIPOS>MOLECULE
TA4
   30    27     1     0     0
SMALL
bcc


@<TRIPOS>ATOM
      1 O          -2.7570    0.4950   -1.8950 o         1 TA4     -0.780500
      2 C          -1.5050    0.3660   -1.8920 c1        1 TA4      0.800000
      3 CA         -0.7480    0.3670   -0.5800 c2        1 TA4      0.205200
      4 CB          0.3300    1.4690   -0.6060 c3        1 TA4     -0.137700
      5 CG         -0.1430    2.6790    0.2800 c3        1 TA4     -0.070700
      6 CD2        -0.5460    3.9120   -0.6680 c3        1 TA4     -0.083600
      7 CD1         1.0310    3.1180    1.2450 c3        1 TA4     -0.083600
      8 NT1        -0.1430   -0.8810   -0.3900 nh        1 TA4      0.074000
      9 CT5        -0.5060   -1.8040    0.5120 c1        1 TA4     -0.150300
     10 CT4         0.2940   -2.9090    0.3290 cg        1 TA4     -0.224000
     11 NT3         1.1430   -2.6480   -0.6900 ne        1 TA4     -0.193000
     12 NT2         0.8840   -1.4040   -1.1420 n2        1 TA4     -0.222400
     13 CT6         0.2610   -4.1770    1.1470 c2        1 TA4      0.321100
     14 N           1.0380   -5.1720    0.4980 nh        1 TA4     -0.487100
     15 OXT        -0.9020    0.1600   -2.9540 o         1 TA4     -0.780500
     16 HA         -1.3820    0.5440    0.1670 h4        1 TA4     -0.039200
     17 HB2         1.1690    1.1140   -0.2540 hc        1 TA4      0.050700
     18 HB3         0.4640    1.7660   -1.5120 hc        1 TA4      0.050700
     19 HG         -0.9150    2.4100    0.8100 hc        1 TA4      0.088700
     20 HD21       -1.3750    3.6880   -1.1740 hc        1 TA4      0.023200
     21 HD22        0.1790    4.0900   -1.2950 hc        1 TA4      0.023200
     22 HD23       -0.7080    4.7220   -0.1100 hc        1 TA4      0.023200
     23 HD11        1.8360    3.3250    0.7090 hc        1 TA4      0.023200
     24 HD12        0.7550    3.9290    1.7570 hc        1 TA4      0.023200
     25 HD13        1.2370    2.3720    1.8850 hc        1 TA4      0.023200
     26 HT5        -1.1370   -1.6760    1.2240 DU        1 TA4      0.233000
     27 HT61        0.6260   -4.0060    2.0200 h4        1 TA4     -0.042700
     28 HT62       -0.6930   -4.4990    1.2380 h4        1 TA4     -0.042700
     29 H           0.4980   -5.8840    0.2630 hn        1 TA4      0.189200
     30 H2          1.7140   -5.4680    1.0800 hn        1 TA4      0.189200
@<TRIPOS>BOND
     1    1    2 2   
     2    2   15 2   
     3    3    4 1   
     4    3    8 2   
     5    3   16 1   
     6    4    5 1   
     7    4   17 1   
     8    4   18 1   
     9    5    6 1   
    10    5    7 1   
    11    5   19 1   
    12    6   20 1   
    13    6   21 1   
    14    6   22 1   
    15    7   23 1   
    16    7   24 1   
    17    7   25 1   
    18    8    9 1   
    19    8   12 1   
    20    9   10 3   
    21   10   11 1   
    22   11   12 2   
    23   13   14 2   
    24   13   27 1   
    25   13   28 1   
    26   14   29 1   
    27   14   30 1   
@<TRIPOS>SUBSTRUCTURE
     1 TA4         1 TEMP              0 ****  ****    0 ROOT
