@<TRIPOS>MOLECULE
TA4
   30    30     1     0     0
SMALL
bcc


@<TRIPOS>ATOM
      1 O          -1.1690   -3.7010    2.2640 o         1 TA4     -0.812300
      2 C           0.0030   -3.6060    2.7180 c         1 TA4      0.915600
      3 CA          0.8820   -2.4270    2.1220 c3        1 TA4     -0.081000
      4 CB          2.3650   -2.6390    2.4280 c3        1 TA4     -0.079400
      5 CG          3.2880   -2.5410    1.2220 c3        1 TA4     -0.062700
      6 CD2         3.0250   -3.6450    0.2180 c3        1 TA4     -0.088100
      7 CD1         3.2340   -1.1860    0.5530 c3        1 TA4     -0.088100
      8 NT1         0.3510   -1.1260    2.5400 na        1 TA4      0.109400
      9 CT5        -0.9920   -0.8900    2.8410 cc        1 TA4     -0.185600
     10 CT4        -1.0450    0.4920    3.1310 cd        1 TA4      0.144600
     11 NT3         0.2690    0.9830    2.9830 nd        1 TA4     -0.404000
     12 NT2         1.0440    0.0290    2.6410 nc        1 TA4     -0.214800
     13 CT6        -2.2290    1.3050    3.5110 c3        1 TA4      0.150500
     14 N          -1.9750    2.6200    4.0500 n3        1 TA4     -0.900800
     15 OXT         0.5260   -4.3780    3.5570 o         1 TA4     -0.812300
     16 HA          0.7230   -2.4700    1.0020 h1        1 TA4      0.054700
     17 HB2         2.7310   -1.9270    3.2130 hc        1 TA4      0.069200
     18 HB3         2.4690   -3.6730    2.8660 hc        1 TA4      0.069200
     19 HG          4.3390   -2.6860    1.6140 hc        1 TA4      0.024700
     20 HD21        2.0320   -3.5110   -0.2730 hc        1 TA4      0.029700
     21 HD22        3.8110   -3.6400   -0.5760 hc        1 TA4      0.029700
     22 HD23        3.0340   -4.6400    0.7260 hc        1 TA4      0.029700
     23 HD11        3.4830   -0.3820    1.2850 hc        1 TA4      0.029700
     24 HD12        2.2140   -0.9860    0.1460 hc        1 TA4      0.029700
     25 HD13        3.9650   -1.1410   -0.2910 hc        1 TA4      0.029700
     26 HT5        -1.7410   -1.6890    2.8180 h4        1 TA4      0.235000
     27 HT61       -2.8830    1.4280    2.5980 h1        1 TA4      0.046700
     28 HT62       -2.8210    0.7250    4.2770 h1        1 TA4      0.046700
     29 H          -1.4840    3.1790    3.3780 hn        1 TA4      0.343800
     30 H2         -1.3990    2.5510    4.8670 hn        1 TA4      0.343800
@<TRIPOS>BOND
     1    1    2 1   
     2    2    3 1   
     3    2   15 1   
     4    3    4 1   
     5    3    8 1   
     6    3   16 1   
     7    4    5 1   
     8    4   17 1   
     9    4   18 1   
    10    5    6 1   
    11    5    7 1   
    12    5   19 1   
    13    6   20 1   
    14    6   21 1   
    15    6   22 1   
    16    7   23 1   
    17    7   24 1   
    18    7   25 1   
    19    8    9 1   
    20    8   12 1   
    21    9   10 2   
    22    9   26 1   
    23   10   11 1   
    24   10   13 1   
    25   11   12 2   
    26   13   14 1   
    27   13   27 1   
    28   13   28 1   
    29   14   29 1   
    30   14   30 1   
@<TRIPOS>SUBSTRUCTURE
     1 TA4         1 TEMP              0 ****  ****    0 ROOT
