@<TRIPOS>MOLECULE
TA5
   12    12     1     0     0
SMALL
bcc


@<TRIPOS>ATOM
      1 N           0.1480   -0.4260   -0.0540 nc        1 TA5     -0.492800
      2 CA          1.4620   -0.0570   -0.0480 cd        1 TA5      0.165300
      3 CB          2.3850   -0.0300   -1.2100 c3        1 TA5      0.115100
      4 OG          2.3130   -1.1860   -2.0150 oh        1 TA5     -0.587800
      5 NT          0.6650    0.1770    2.0670 nc        1 TA5     -0.489800
      6 C           1.7890    0.3310    1.3230 cd        1 TA5      0.208900
      7 N2         -0.2600   -0.2670    1.2080 na        1 TA5      0.140900
      8 H2         -1.1940   -0.4850    1.4950 hn        1 TA5      0.350700
      9 HBC1        2.1770    0.8880   -1.8290 h1        1 TA5      0.060200
     10 HBC2        3.4500   -0.0050   -0.8460 h1        1 TA5      0.060200
     11 H           2.7410    0.6800    1.7180 h4        1 TA5      0.059100
     12 HG          1.4100   -1.2620   -2.3470 ho        1 TA5      0.412000
@<TRIPOS>BOND
     1    1    2 2   
     2    1    7 1   
     3    2    3 1   
     4    2    6 1   
     5    3    4 1   
     6    3    9 1   
     7    3   10 1   
     8    4   12 1   
     9    5    6 2   
    10    5    7 1   
    11    6   11 1   
    12    7    8 1   
@<TRIPOS>SUBSTRUCTURE
     1 TA5         1 TEMP              0 ****  ****    0 ROOT
