@<TRIPOS>MOLECULE
TA5
   12    12     1     0     0
SMALL
bcc


@<TRIPOS>ATOM
      1 N          -0.9790    0.9560    1.4430 nc        1 TA5     -0.492800
      2 CA          0.0660    0.7830    0.5820 cd        1 TA5      0.165300
      3 CB          0.3000   -0.3770   -0.3150 c3        1 TA5      0.115100
      4 OG          0.1070   -1.6250    0.3150 oh        1 TA5     -0.587800
      5 NT          0.3350    2.7930    1.6070 nc        1 TA5     -0.489800
      6 C           0.9100    1.9720    0.6930 cd        1 TA5      0.208900
      7 N2         -0.7650    2.1470    2.0090 na        1 TA5      0.140900
      8 H2         -1.3800    2.5210    2.7050 hn        1 TA5      0.350700
      9 HBC1       -0.3690   -0.2890   -1.2160 h1        1 TA5      0.060200
     10 HBC2        1.3760   -0.3890   -0.6430 h1        1 TA5      0.060200
     11 H           1.8350    2.1960    0.1650 h4        1 TA5      0.059100
     12 HG         -0.8050   -1.6620    0.6280 ho        1 TA5      0.412000
@<TRIPOS>BOND
     1    1    2 2   
     2    1    7 1   
     3    2    3 1   
     4    2    6 1   
     5    3    4 1   
     6    3    9 1   
     7    3   10 1   
     8    4   12 1   
     9    5    6 2   
    10    5    7 1   
    11    6   11 1   
    12    7    8 1   
@<TRIPOS>SUBSTRUCTURE
     1 TA5         1 TEMP              0 ****  ****    0 ROOT
