@<TRIPOS>MOLECULE
TA6
   27    27     1     0     0
SMALL
bcc


@<TRIPOS>ATOM
      1 O1          4.0670    2.4420    0.2860 oh        1 TA6     -0.640800
      2 C1          3.8850    1.3660   -0.6190 c3        1 TA6      0.159400
      3 C2          2.7260    0.4430   -0.2460 c3        1 TA6      0.283600
      4 O2          2.8900    0.0540    1.1030 oh        1 TA6     -0.654800
      5 C3          2.5190   -0.7710   -1.1770 c3        1 TA6      0.014100
      6 O3          3.3330   -1.8520   -0.8030 oh        1 TA6     -0.640800
      7 C4          0.9780   -1.0910   -0.9370 c3        1 TA6      0.344800
      8 O4          0.8600   -1.9470    0.0620 o         1 TA6     -0.878500
      9 C5          0.4120    0.3450   -0.6670 c3        1 TA6      0.047100
     10 O5          1.5110    1.1900   -0.2480 os        1 TA6     -0.473600
     11 C6         -0.6720    0.4050    0.4120 c3        1 TA6      0.186400
     12 O6         -1.9340    0.4240   -0.1840 os        1 TA6     -0.593200
     13 P          -3.0050   -0.7420    0.2950 p5        1 TA6      1.439800
     14 O1P        -4.2720   -0.5030   -0.4330 o         1 TA6     -0.858000
     15 O2P        -2.2680   -2.0400   -0.3410 oh        1 TA6     -0.811400
     16 O3P        -2.9270   -0.8320    1.7720 o         1 TA6     -0.858000
     17 H1          3.3630    2.3800    0.9450 ho        1 TA6      0.429000
     18 H1C1        3.6950    1.8100   -1.6320 h1        1 TA6      0.029700
     19 H1C2        4.8370    0.7740   -0.6260 h1        1 TA6      0.029700
     20 H2          2.1820   -0.5940    1.2770 ho        1 TA6      0.455000
     21 H3          2.7700   -0.5170   -2.2340 h1        1 TA6      0.027700
     22 HA          2.8000   -2.3850   -0.1780 ho        1 TA6      0.434000
     23 H4          0.5450   -1.4520   -1.9160 h1        1 TA6     -0.041300
     24 HB         -1.3330   -2.1180   -0.1440 ho        1 TA6      0.469000
     25 H5          0.0280    0.8020   -1.6180 h1        1 TA6      0.031700
     26 H6C1       -0.5730   -0.4720    1.1110 h1        1 TA6      0.033200
     27 H6C2       -0.5370    1.3600    0.9980 h1        1 TA6      0.033200
@<TRIPOS>BOND
     1    1    2 1   
     2    1   17 1   
     3    2    3 1   
     4    2   18 1   
     5    2   19 1   
     6    3    4 1   
     7    3    5 1   
     8    3   10 1   
     9    4   20 1   
    10    5    6 1   
    11    5    7 1   
    12    5   21 1   
    13    6   22 1   
    14    7    8 1   
    15    7    9 1   
    16    7   23 1   
    17    9   10 1   
    18    9   11 1   
    19    9   25 1   
    20   11   12 1   
    21   11   26 1   
    22   11   27 1   
    23   12   13 1   
    24   13   14 1   
    25   13   15 1   
    26   13   16 1   
    27   15   24 1   
@<TRIPOS>SUBSTRUCTURE
     1 TA6         1 TEMP              0 ****  ****    0 ROOT
