@<TRIPOS>MOLECULE
TA6
   27    27     1     0     0
SMALL
bcc


@<TRIPOS>ATOM
      1 O1          0.0740    0.8670   -0.2110 oh        1 TA6     -0.640800
      2 C1          1.4410    0.4940   -0.2200 c3        1 TA6      0.159400
      3 C2          1.9530    0.0130    1.1370 c3        1 TA6      0.283600
      4 O2          1.6150    0.9860    2.1050 oh        1 TA6     -0.654800
      5 C3          3.4500   -0.3580    1.1880 c3        1 TA6      0.014100
      6 O3          4.2530    0.7690    1.4290 oh        1 TA6     -0.640800
      7 C4          3.4810   -1.3680    2.4180 c3        1 TA6      0.344800
      8 O4          3.6990   -0.6940    3.5330 o         1 TA6     -0.878500
      9 C5          2.0670   -2.0330    2.2960 c3        1 TA6      0.047100
     10 O5          1.2160   -1.1420    1.5340 os        1 TA6     -0.473600
     11 C6          1.3820   -2.3130    3.6360 c3        1 TA6      0.186400
     12 O6          1.5690   -3.6500    3.9930 os        1 TA6     -0.593200
     13 P           2.2410   -3.9410    5.4760 p5        1 TA6      1.439800
     14 O1P         1.5750   -3.0410    6.4460 o         1 TA6     -0.858000
     15 O2P         2.3040   -5.4100    5.6500 o         1 TA6     -0.858000
     16 O3P         3.7360   -3.3780    5.1910 oh        1 TA6     -0.811400
     17 H1         -0.2630    0.6870    0.6770 ho        1 TA6      0.429000
     18 H1C1        2.0280    1.3970   -0.5330 h1        1 TA6      0.029700
     19 H1C2        1.5600   -0.3280   -0.9740 h1        1 TA6      0.029700
     20 H2          2.0270    0.6840    2.9360 ho        1 TA6      0.455000
     21 H3          3.7890   -0.8060    0.2250 h1        1 TA6      0.027700
     22 HA          4.3510    0.8260    2.4010 ho        1 TA6      0.434000
     23 H4          4.2530   -2.1620    2.1920 h1        1 TA6     -0.041300
     24 HB          3.7770   -2.5070    4.7930 ho        1 TA6      0.469000
     25 H5          2.1270   -2.9780    1.6940 h1        1 TA6      0.031700
     26 H6C1        1.7880   -1.6260    4.4310 h1        1 TA6      0.033200
     27 H6C2        0.2760   -2.1240    3.5160 h1        1 TA6      0.033200
@<TRIPOS>BOND
     1    1    2 1   
     2    1   17 1   
     3    2    3 1   
     4    2   18 1   
     5    2   19 1   
     6    3    4 1   
     7    3    5 1   
     8    3   10 1   
     9    4   20 1   
    10    5    6 1   
    11    5    7 1   
    12    5   21 1   
    13    6   22 1   
    14    7    8 1   
    15    7    9 1   
    16    7   23 1   
    17    9   10 1   
    18    9   11 1   
    19    9   25 1   
    20   11   12 1   
    21   11   26 1   
    22   11   27 1   
    23   12   13 1   
    24   13   14 1   
    25   13   15 1   
    26   13   16 1   
    27   16   24 1   
@<TRIPOS>SUBSTRUCTURE
     1 TA6         1 TEMP              0 ****  ****    0 ROOT
