@<TRIPOS>MOLECULE
TA7
   26    26     1     0     0
SMALL
bcc


@<TRIPOS>ATOM
      1 CAA         0.0650   -0.0830   -0.1190 c3        1 TA7      0.110700
      2 OAB         5.1440   -0.1970    5.1850 o         1 TA7     -0.516100
      3 OAC         4.6940    1.6430    7.6880 o         1 TA7     -0.426100
      4 FAD         4.5020   -0.1700    9.7320 f         1 TA7     -0.225633
      5 FAE         3.9030   -1.6410    8.2430 f         1 TA7     -0.225633
      6 FAF         2.4170   -0.3240    9.1260 f         1 TA7     -0.225633
      7 CAG         1.2170    0.0620    2.4380 ca        1 TA7     -0.196000
      8 CAH         3.3910   -0.2460    1.3710 ca        1 TA7     -0.196000
      9 CAI         1.8470    0.1270    3.6780 ca        1 TA7     -0.044000
     10 CAJ         3.9990   -0.1820    2.6150 ca        1 TA7     -0.044000
     11 CAK         3.1130    0.4740    6.2670 c3        1 TA7     -0.280400
     12 OAL         1.4800   -0.1980    0.0070 os        1 TA7     -0.318900
     13 CAM         3.9430    0.0680    5.0730 c         1 TA7      0.598700
     14 CAN         3.9300    0.7090    7.4980 c         1 TA7      0.562100
     15 CAO         1.9900   -0.1220    1.2830 ca        1 TA7      0.162100
     16 CAP         3.2370    0.0080    3.7820 ca        1 TA7     -0.218600
     17 CAQ         3.7000   -0.3450    8.6380 c3        1 TA7      0.526900
     18 HAA        -0.1020   -0.1750   -1.2230 h1        1 TA7      0.049700
     19 HAAA       -0.2830    0.9120    0.2520 h1        1 TA7      0.049700
     20 HAAB       -0.4480   -0.9100    0.4290 h1        1 TA7      0.049700
     21 HAG         0.1240    0.1550    2.3780 ha        1 TA7      0.151500
     22 HAH         3.9800   -0.3920    0.4540 ha        1 TA7      0.151500
     23 HAI         1.2270    0.2680    4.5770 ha        1 TA7      0.147000
     24 HAJ         5.0950   -0.2830    2.7030 ha        1 TA7      0.147000
     25 HAK         2.5670    1.4270    6.0230 hc        1 TA7      0.104700
     26 HAKA        2.3530   -0.3310    6.4640 hc        1 TA7      0.104700
@<TRIPOS>BOND
     1    1   12 1   
     2    1   18 1   
     3    1   19 1   
     4    1   20 1   
     5    2   13 2   
     6    3   14 2   
     7    4   17 1   
     8    5   17 1   
     9    6   17 1   
    10    7    9 ar  
    11    7   15 ar  
    12    7   21 1   
    13    8   10 ar  
    14    8   15 ar  
    15    8   22 1   
    16    9   16 ar  
    17    9   23 1   
    18   10   16 ar  
    19   10   24 1   
    20   11   13 1   
    21   11   14 1   
    22   11   25 1   
    23   11   26 1   
    24   12   15 1   
    25   13   16 1   
    26   14   17 1   
@<TRIPOS>SUBSTRUCTURE
     1 TA7         1 TEMP              0 ****  ****    0 ROOT
