@<TRIPOS>MOLECULE
TA7
   26    26     1     0     0
SMALL
bcc


@<TRIPOS>ATOM
      1 CAA         0.0670   -0.0830   -0.1200 c3        1 TA7      0.110700
      2 OAB         5.1420   -0.2110    5.1880 o         1 TA7     -0.516100
      3 OAC         4.7030    1.6440    7.6810 o         1 TA7     -0.426100
      4 FAD         4.4980   -0.1560    9.7340 f         1 TA7     -0.225633
      5 FAE         3.8900   -1.6310    8.2520 f         1 TA7     -0.225633
      6 FAF         2.4120   -0.2990    9.1280 f         1 TA7     -0.225633
      7 CAG         1.2180    0.0630    2.4380 ca        1 TA7     -0.196000
      8 CAH         3.3910   -0.2610    1.3720 ca        1 TA7     -0.196000
      9 CAI         1.8480    0.1280    3.6780 ca        1 TA7     -0.044000
     10 CAJ         3.9990   -0.1960    2.6160 ca        1 TA7     -0.044000
     11 CAK         3.1150    0.4790    6.2660 c3        1 TA7     -0.280400
     12 OAL         1.4800   -0.2060    0.0080 os        1 TA7     -0.318900
     13 CAM         3.9430    0.0620    5.0730 c         1 TA7      0.598700
     14 CAN         3.9330    0.7150    7.4950 c         1 TA7      0.562100
     15 CAO         1.9900   -0.1290    1.2830 ca        1 TA7      0.162100
     16 CAP         3.2370    0.0020    3.7820 ca        1 TA7     -0.218600
     17 CAQ         3.6960   -0.3320    8.6410 c3        1 TA7      0.526900
     18 HAA        -0.1010   -0.1780   -1.2230 h1        1 TA7      0.049700
     19 HAAA       -0.2760    0.9140    0.2470 h1        1 TA7      0.049700
     20 HAAB       -0.4510   -0.9060    0.4300 h1        1 TA7      0.049700
     21 HAG         0.1260    0.1620    2.3770 ha        1 TA7      0.151500
     22 HAH         3.9790   -0.4130    0.4560 ha        1 TA7      0.151500
     23 HAI         1.2280    0.2750    4.5760 ha        1 TA7      0.147000
     24 HAJ         5.0940   -0.3030    2.7050 ha        1 TA7      0.147000
     25 HAK         2.5750    1.4340    6.0170 hc        1 TA7      0.104700
     26 HAKA        2.3500   -0.3210    6.4660 hc        1 TA7      0.104700
@<TRIPOS>BOND
     1    1   12 1   
     2    1   18 1   
     3    1   19 1   
     4    1   20 1   
     5    2   13 2   
     6    3   14 2   
     7    4   17 1   
     8    5   17 1   
     9    6   17 1   
    10    7    9 ar  
    11    7   15 ar  
    12    7   21 1   
    13    8   10 ar  
    14    8   15 ar  
    15    8   22 1   
    16    9   16 ar  
    17    9   23 1   
    18   10   16 ar  
    19   10   24 1   
    20   11   13 1   
    21   11   14 1   
    22   11   25 1   
    23   11   26 1   
    24   12   15 1   
    25   13   16 1   
    26   14   17 1   
@<TRIPOS>SUBSTRUCTURE
     1 TA7         1 TEMP              0 ****  ****    0 ROOT
