@<TRIPOS>MOLECULE
TA7
   26    26     1     0     0
SMALL
bcc


@<TRIPOS>ATOM
      1 CAA         5.8170    1.5880   -0.0630 c3        1 TA7      0.110700
      2 OAB        -0.6140   -1.9570   -0.2350 o         1 TA7     -0.516100
      3 OAC        -2.9230   -0.8970    1.6070 o         1 TA7     -0.426100
      4 FAD        -4.8430   -0.1690   -0.2050 f         1 TA7     -0.225633
      5 FAE        -3.2450    0.0410   -1.6690 f         1 TA7     -0.225633
      6 FAF        -3.7210    1.6920   -0.3380 f         1 TA7     -0.225633
      7 CAG         3.0490    1.1300    0.0680 ca        1 TA7     -0.196000
      8 CAH         3.5230   -1.2420   -0.2620 ca        1 TA7     -0.196000
      9 CAI         1.6880    0.8390    0.1240 ca        1 TA7     -0.044000
     10 CAJ         2.1650   -1.5110   -0.2060 ca        1 TA7     -0.044000
     11 CAK        -1.1400    0.2770    0.4560 c3        1 TA7     -0.280400
     12 OAL         5.3320    0.2550   -0.1930 os        1 TA7     -0.318900
     13 CAM        -0.1970   -0.8280    0.0430 c         1 TA7      0.598700
     14 CAN        -2.5400   -0.1980    0.6810 c         1 TA7      0.562100
     15 CAO         3.9670    0.0880   -0.1240 ca        1 TA7      0.162100
     16 CAP         1.2320   -0.4760   -0.0090 ca        1 TA7     -0.218600
     17 CAQ        -3.5800    0.3260   -0.3710 c3        1 TA7      0.526900
     18 HAA         5.4220    2.2320   -0.8850 h1        1 TA7      0.049700
     19 HAAA        5.5440    2.0100    0.9350 h1        1 TA7      0.049700
     20 HAAB        6.9270    1.4670   -0.1520 h1        1 TA7      0.049700
     21 HAG         3.3870    2.1700    0.1720 ha        1 TA7      0.151500
     22 HAH         4.2590   -2.0450   -0.4130 ha        1 TA7      0.151500
     23 HAI         0.9780    1.6680    0.2700 ha        1 TA7      0.147000
     24 HAJ         1.7980   -2.5460   -0.3180 ha        1 TA7      0.147000
     25 HAK        -0.7670    0.7330    1.4150 hc        1 TA7      0.104700
     26 HAKA       -1.1320    1.0700   -0.3420 hc        1 TA7      0.104700
@<TRIPOS>BOND
     1    1   12 1   
     2    1   18 1   
     3    1   19 1   
     4    1   20 1   
     5    2   13 2   
     6    3   14 2   
     7    4   17 1   
     8    5   17 1   
     9    6   17 1   
    10    7    9 ar  
    11    7   15 ar  
    12    7   21 1   
    13    8   10 ar  
    14    8   15 ar  
    15    8   22 1   
    16    9   16 ar  
    17    9   23 1   
    18   10   16 ar  
    19   10   24 1   
    20   11   13 1   
    21   11   14 1   
    22   11   25 1   
    23   11   26 1   
    24   12   15 1   
    25   13   16 1   
    26   14   17 1   
@<TRIPOS>SUBSTRUCTURE
     1 TA7         1 TEMP              0 ****  ****    0 ROOT
