@<TRIPOS>MOLECULE
TA8
   34    33     1     0     0
SMALL
bcc


@<TRIPOS>ATOM
      1 O42        -0.1960   -0.4880    0.9860 o         1 TA8     -0.908800
      2 O41         1.2440   -0.3280   -0.6750 o         1 TA8     -0.908800
      3 C4          0.9860   -0.2360    0.5660 c         1 TA8      0.899600
      4 C41         2.0290    0.2130    1.5860 c3        1 TA8     -0.164400
      5 C32         3.4750   -0.0680    1.2320 c3        1 TA8     -0.040400
      6 C3          4.4670    1.9630    2.3210 c         1 TA8      0.916600
      7 O31         4.9790    2.6240    1.3630 o         1 TA8     -0.896800
      8 O32         3.9300    2.5650    3.3060 o         1 TA8     -0.896800
      9 C22         5.8610   -0.1530    2.0420 c3        1 TA8     -0.050400
     10 C2          6.5610   -2.1320    3.4840 c         1 TA8      0.916600
     11 O21         6.8430   -2.9290    2.5340 o         1 TA8     -0.895800
     12 O22         6.2240   -2.5820    4.6270 o         1 TA8     -0.895800
     13 C10         8.4140    0.8000    5.4640 c3        1 TA8     -0.061100
     14 C11         8.8860   -0.2570    4.4860 c3        1 TA8     -0.157700
     15 C12         8.1120   -0.1840    3.1760 c3        1 TA8     -0.037400
     16 C1         10.4120   -0.1140    4.3300 c         1 TA8      0.906600
     17 O12        11.1450   -0.3580    5.3490 o         1 TA8     -0.902300
     18 O11        10.9490    0.2470    3.2380 o         1 TA8     -0.902300
     19 C21         6.6420   -0.6050    3.2800 c3        1 TA8     -0.159700
     20 C31         4.4630    0.4200    2.2980 c3        1 TA8     -0.158700
     21 H411        1.7850   -0.2750    2.5650 hc        1 TA8      0.029700
     22 H412        1.9050    1.3190    1.7310 hc        1 TA8      0.029700
     23 H321        3.6020   -1.1730    1.0880 hc        1 TA8      0.025700
     24 H322        3.7170    0.4270    0.2560 hc        1 TA8      0.025700
     25 H31         4.1010    0.0680    3.3020 hc        1 TA8      0.038700
     26 H221        5.7800   -1.0380    1.3540 hc        1 TA8      0.031200
     27 H222        6.4480    0.6320    1.4930 hc        1 TA8      0.031200
     28 H21         6.1910   -0.1200    4.1870 hc        1 TA8      0.039700
     29 H103        8.4880    1.8160    5.0070 hc        1 TA8      0.008033
     30 H11         8.6970   -1.2710    4.9390 hc        1 TA8      0.059700
     31 H121        8.6220   -0.8470    2.4290 hc        1 TA8      0.030200
     32 H122        8.1750    0.8660    2.7870 hc        1 TA8      0.030200
     33 H101        9.0480    0.7780    6.3840 hc        1 TA8      0.008033
     34 H102        7.3520    0.6210    5.7550 hc        1 TA8      0.008033
@<TRIPOS>BOND
     1    1    3 1   
     2    2    3 1   
     3    3    4 1   
     4    4    5 1   
     5    4   21 1   
     6    4   22 1   
     7    5   20 1   
     8    5   23 1   
     9    5   24 1   
    10    6    7 1   
    11    6    8 1   
    12    6   20 1   
    13    9   19 1   
    14    9   20 1   
    15    9   26 1   
    16    9   27 1   
    17   10   11 1   
    18   10   12 1   
    19   10   19 1   
    20   13   14 1   
    21   13   29 1   
    22   13   33 1   
    23   13   34 1   
    24   14   15 1   
    25   14   16 1   
    26   14   30 1   
    27   15   19 1   
    28   15   31 1   
    29   15   32 1   
    30   16   17 1   
    31   16   18 1   
    32   19   28 1   
    33   20   25 1   
@<TRIPOS>SUBSTRUCTURE
     1 TA8         1 TEMP              0 ****  ****    0 ROOT
