@<TRIPOS>MOLECULE
TA8
   34    33     1     0     0
SMALL
bcc


@<TRIPOS>ATOM
      1 O42         6.0910   -0.0150    1.2440 o         1 TA8     -0.908800
      2 O41         5.5320    1.3860   -0.3630 o         1 TA8     -0.908800
      3 C4          5.2320    0.4130    0.3960 c         1 TA8      0.899600
      4 C41         3.8900   -0.3090    0.3090 c3        1 TA8     -0.164400
      5 C32         2.7230    0.5080   -0.2050 c3        1 TA8     -0.040400
      6 C3          1.5240   -1.3570   -1.3800 c         1 TA8      0.916600
      7 O31         1.5340   -1.0230   -2.6060 o         1 TA8     -0.896800
      8 O32         1.6280   -2.5810   -1.0430 o         1 TA8     -0.896800
      9 C22         0.2240    0.6520   -0.5020 c3        1 TA8     -0.050400
     10 C2         -1.1890    1.2150    1.5410 c         1 TA8      0.916600
     11 O21        -1.0950    2.4800    1.4550 o         1 TA8     -0.895800
     12 O22        -1.4190    0.6580    2.6630 o         1 TA8     -0.895800
     13 C10        -3.4750   -1.6420   -0.0610 c3        1 TA8     -0.061100
     14 C11        -3.5600   -0.1290   -0.0420 c3        1 TA8     -0.157700
     15 C12        -2.2910    0.5030   -0.5990 c3        1 TA8     -0.037400
     16 C1         -4.8500    0.2850   -0.7740 c         1 TA8      0.906600
     17 O12        -5.9690   -0.0440   -0.2510 o         1 TA8     -0.902300
     18 O11        -4.8290    0.9200   -1.8720 o         1 TA8     -0.902300
     19 C21        -1.0510    0.3290    0.2850 c3        1 TA8     -0.159700
     20 C31         1.4140   -0.2860   -0.2730 c3        1 TA8     -0.158700
     21 H411        4.0280   -1.1980   -0.3630 hc        1 TA8      0.029700
     22 H412        3.6450   -0.7040    1.3300 hc        1 TA8      0.029700
     23 H321        2.5830    1.3960    0.4660 hc        1 TA8      0.025700
     24 H322        2.9690    0.8950   -1.2270 hc        1 TA8      0.025700
     25 H31         1.2750   -0.8230    0.7040 hc        1 TA8      0.038700
     26 H221       -0.0020    0.6430   -1.6030 hc        1 TA8      0.031200
     27 H222        0.5230    1.7030   -0.2410 hc        1 TA8      0.031200
     28 H21        -1.0000   -0.7390    0.6300 hc        1 TA8      0.039700
     29 H103       -3.2610   -2.0090   -1.0940 hc        1 TA8      0.008033
     30 H11        -3.6670    0.2070    1.0280 hc        1 TA8      0.059700
     31 H121       -2.0940    0.0650   -1.6120 hc        1 TA8      0.030200
     32 H122       -2.4790    1.6000   -0.7410 hc        1 TA8      0.030200
     33 H101       -2.6620   -2.0000    0.6150 hc        1 TA8      0.008033
     34 H102       -4.4450   -2.0830    0.2770 hc        1 TA8      0.008033
@<TRIPOS>BOND
     1    1    3 1   
     2    2    3 1   
     3    3    4 1   
     4    4    5 1   
     5    4   21 1   
     6    4   22 1   
     7    5   20 1   
     8    5   23 1   
     9    5   24 1   
    10    6    7 1   
    11    6    8 1   
    12    6   20 1   
    13    9   19 1   
    14    9   20 1   
    15    9   26 1   
    16    9   27 1   
    17   10   11 1   
    18   10   12 1   
    19   10   19 1   
    20   13   14 1   
    21   13   29 1   
    22   13   33 1   
    23   13   34 1   
    24   14   15 1   
    25   14   16 1   
    26   14   30 1   
    27   15   19 1   
    28   15   31 1   
    29   15   32 1   
    30   16   17 1   
    31   16   18 1   
    32   19   28 1   
    33   20   25 1   
@<TRIPOS>SUBSTRUCTURE
     1 TA8         1 TEMP              0 ****  ****    0 ROOT
