@<TRIPOS>MOLECULE
TA8
   34    31     1     0     0
SMALL
bcc


@<TRIPOS>ATOM
      1 O42        -3.3090    2.8530   -3.9140 o         1 TA8     -0.644000
      2 O41        -1.7440    2.3740   -5.3550 o         1 TA8     -0.644000
      3 C4         -2.1120    2.5560   -4.1650 c2        1 TA8      0.319000
      4 C41        -1.1140    2.4170   -3.0360 c3        1 TA8     -0.194000
      5 C32        -1.2570    1.0510   -2.4020 c3        1 TA8     -0.117000
      6 C3          1.1380    0.5710   -2.0320 c1        1 TA8      0.335000
      7 O31         2.1300    1.3190   -1.8310 o         1 TA8     -0.636000
      8 O32         1.2440   -0.4230   -2.7970 os        1 TA8     -0.625500
      9 C22        -0.5530   -0.2870   -0.4480 c3        1 TA8     -0.129000
     10 C2         -0.4060    0.9040    1.7110 c1        1 TA8      0.334000
     11 O21         0.2890    1.8810    2.0930 o         1 TA8     -0.636000
     12 O22        -1.6180    0.8250    2.0440 os        1 TA8     -0.625500
     13 C10         1.8690   -2.9820    2.5740 c3        1 TA8     -0.197000
     14 C11         1.3070   -1.5770    2.5670 c3        1 TA8     -0.146000
     15 C12         0.1600   -1.4980    1.5840 c3        1 TA8     -0.111000
     16 C1          0.8110   -1.2250    3.9520 c2        1 TA8      0.326000
     17 O12         1.2960   -0.2360    4.5620 o         1 TA8     -0.638500
     18 O11        -0.0880   -1.9200    4.4940 o         1 TA8     -0.638500
     19 C21         0.2140   -0.1750    0.8510 c3        1 TA8     -0.147000
     20 C31        -0.1820    0.8660   -1.3540 c3        1 TA8     -0.150000
     21 H411       -0.2070    2.5200   -3.3880 hc        1 TA8      0.071500
     22 H412       -1.2840    3.1080   -2.3640 hc        1 TA8      0.071500
     23 H321       -2.1380    0.9770   -1.9820 hc        1 TA8      0.062500
     24 H322       -1.1640    0.3610   -3.0890 hc        1 TA8      0.062500
     25 H31        -0.1000    1.6820   -0.8240 hc        1 TA8      0.084000
     26 H221       -0.3280   -1.1320   -0.8870 hc        1 TA8      0.070000
     27 H222       -1.5130   -0.2610   -0.2640 hc        1 TA8      0.070000
     28 H21         1.1440    0.0540    0.6620 hc        1 TA8      0.086000
     29 H101        2.3250   -3.1560    1.7250 hc        1 TA8      0.063000
     30 H102        1.1380   -3.6250    2.6900 hc        1 TA8      0.063000
     31 H103        2.5060   -3.0750    3.3130 hc        1 TA8      0.063000
     32 H11         2.0060   -0.9490    2.3020 hc        1 TA8      0.071000
     33 H121        0.2300   -2.2300    0.9410 hc        1 TA8      0.063500
     34 H122       -0.6880   -1.5680    2.0670 hc        1 TA8      0.063500
@<TRIPOS>BOND
     1    1    3 1   
     2    2    3 1   
     3    3    4 1   
     4    4    5 1   
     5    4   21 1   
     6    4   22 1   
     7    5   20 1   
     8    5   23 1   
     9    5   24 1   
    10    6    7 1   
    11    6   20 1   
    12    9   19 1   
    13    9   20 1   
    14    9   26 1   
    15    9   27 1   
    16   10   11 1   
    17   10   19 1   
    18   13   14 1   
    19   13   29 1   
    20   13   30 1   
    21   13   31 1   
    22   14   15 1   
    23   14   16 1   
    24   14   32 1   
    25   15   19 1   
    26   15   33 1   
    27   15   34 1   
    28   16   17 1   
    29   16   18 1   
    30   19   28 1   
    31   20   25 1   
@<TRIPOS>SUBSTRUCTURE
     1 TA8         1 TEMP              0 ****  ****    0 ROOT
