@<TRIPOS>MOLECULE
TA8
   34    33     1     0     0
SMALL
bcc


@<TRIPOS>ATOM
      1 O42        -0.1690   -0.5470    0.9160 o         1 TA8     -0.908800
      2 O41         1.2900   -0.3830   -0.7290 o         1 TA8     -0.908800
      3 C4          1.0160   -0.2870    0.5090 c         1 TA8      0.899600
      4 C41         2.0440    0.1750    1.5390 c3        1 TA8     -0.164400
      5 C32         3.4960   -0.0960    1.2040 c3        1 TA8     -0.040400
      6 C3          4.4580    1.9490    2.2950 c         1 TA8      0.916600
      7 O31         4.9750    2.6100    1.3400 o         1 TA8     -0.896800
      8 O32         3.9040    2.5510    3.2710 o         1 TA8     -0.896800
      9 C22         5.8720   -0.1560    2.0420 c3        1 TA8     -0.050400
     10 C2          6.5720   -2.1240    3.5010 c         1 TA8      0.916600
     11 O21         6.8720   -2.9220    2.5580 o         1 TA8     -0.895800
     12 O22         6.2260   -2.5720    4.6420 o         1 TA8     -0.895800
     13 C10         8.3760    0.8320    5.4910 c3        1 TA8     -0.061100
     14 C11         8.8690   -0.2250    4.5230 c3        1 TA8     -0.157700
     15 C12         8.1100   -0.1630    3.2040 c3        1 TA8     -0.037400
     16 C1         10.3950   -0.0690    4.3850 c         1 TA8      0.906600
     17 O12        11.1180   -0.3020    5.4130 o         1 TA8     -0.902300
     18 O11        10.9420    0.2930    3.2980 o         1 TA8     -0.902300
     19 C21         6.6420   -0.5960    3.2920 c3        1 TA8     -0.159700
     20 C31         4.4660    0.4050    2.2800 c3        1 TA8     -0.158700
     21 H411        1.9090    1.2810    1.6770 hc        1 TA8      0.029700
     22 H412        1.7920   -0.3110    2.5180 hc        1 TA8      0.029700
     23 H321        3.6330   -1.2010    1.0670 hc        1 TA8      0.025700
     24 H322        3.7450    0.3970    0.2290 hc        1 TA8      0.025700
     25 H31         4.0950    0.0550    3.2800 hc        1 TA8      0.038700
     26 H221        6.4600    0.6310    1.4970 hc        1 TA8      0.031200
     27 H222        5.8080   -1.0450    1.3580 hc        1 TA8      0.031200
     28 H21         6.1770   -0.1110    4.1920 hc        1 TA8      0.039700
     29 H103        8.4470    1.8470    5.0310 hc        1 TA8      0.008033
     30 H11         8.6830   -1.2380    4.9780 hc        1 TA8      0.059700
     31 H121        8.6350   -0.8250    2.4660 hc        1 TA8      0.030200
     32 H122        8.1680    0.8860    2.8110 hc        1 TA8      0.030200
     33 H101        7.3120    0.6450    5.7700 hc        1 TA8      0.008033
     34 H102        8.9990    0.8200    6.4190 hc        1 TA8      0.008033
@<TRIPOS>BOND
     1    1    3 1   
     2    2    3 1   
     3    3    4 1   
     4    4    5 1   
     5    4   21 1   
     6    4   22 1   
     7    5   20 1   
     8    5   23 1   
     9    5   24 1   
    10    6    7 1   
    11    6    8 1   
    12    6   20 1   
    13    9   19 1   
    14    9   20 1   
    15    9   26 1   
    16    9   27 1   
    17   10   11 1   
    18   10   12 1   
    19   10   19 1   
    20   13   14 1   
    21   13   29 1   
    22   13   33 1   
    23   13   34 1   
    24   14   15 1   
    25   14   16 1   
    26   14   30 1   
    27   15   19 1   
    28   15   31 1   
    29   15   32 1   
    30   16   17 1   
    31   16   18 1   
    32   19   28 1   
    33   20   25 1   
@<TRIPOS>SUBSTRUCTURE
     1 TA8         1 TEMP              0 ****  ****    0 ROOT
