@<TRIPOS>MOLECULE
TA9
   51    54     1     0     0
SMALL
bcc


@<TRIPOS>ATOM
      1 CAK        -0.8930   -0.5750   -0.4210 ca        1 TA9     -0.150600
      2 CAQ         0.2220   -0.0040   -1.2580 c         1 TA9      0.619300
      3 OBB         0.3950   -0.1900   -2.4650 o         1 TA9     -0.559100
      4 CAN         1.0310    0.8260   -0.3390 ca        1 TA9     -0.188600
      5 CAS         2.1700    1.5640   -0.5840 ca        1 TA9     -0.030000
      6 CAH         2.7420    2.2790    0.4880 ca        1 TA9     -0.126000
      7 CAC         2.1740    2.2410    1.7540 ca        1 TA9     -0.082000
      8 CAR         1.0100    1.4870    2.0090 ca        1 TA9     -0.090000
      9 CAM         0.4450    0.7840    0.9660 cp        1 TA9     -0.037000
     10 CAL        -0.7350   -0.0860    0.9130 cp        1 TA9      0.006000
     11 CAO        -1.6070   -0.4610    1.9230 ca        1 TA9     -0.064000
     12 CAT        -2.6460   -1.3510    1.6190 ca        1 TA9     -0.091000
     13 CAP        -2.8000   -1.8520    0.3310 ca        1 TA9     -0.085000
     14 CAJ        -1.9250   -1.4590   -0.7060 ca        1 TA9     -0.131600
     15 CAI        -2.1690   -2.0870   -2.0170 c         1 TA9      0.568700
     16 OAZ        -2.5090   -3.2460   -2.2200 o         1 TA9     -0.418100
     17 NAV        -2.0310   -1.2000   -3.2230 n4        1 TA9     -0.668800
     18 CAD        -2.8690   -1.6350   -4.3750 c3        1 TA9      0.116800
     19 CAA        -2.9000   -0.5830   -5.5060 c3        1 TA9      0.153500
     20 NAW        -3.5020    0.6620   -5.0530 n3        1 TA9     -0.836200
     21 CAE        -3.4930    1.7310   -6.0520 c3        1 TA9      0.186500
     22 CAU        -4.0190    3.0410   -5.4690 c3        1 TA9     -0.091100
     23 CAG        -2.0970    1.9750   -6.6720 c3        1 TA9      0.117100
     24 OAX        -1.2550    2.5410   -5.6850 oh        1 TA9     -0.584800
     25 CAF        -1.5180    0.6490   -7.1960 c3        1 TA9      0.067100
     26 OAY        -0.1740    0.8290   -7.6150 oh        1 TA9     -0.604800
     27 CAB        -1.4600   -0.3500   -6.0320 c3        1 TA9      0.138100
     28 OBA        -0.9650   -1.6180   -6.4140 oh        1 TA9     -0.616800
     29 HAS         2.6250    1.5970   -1.5860 ha        1 TA9      0.162000
     30 HAH         3.6530    2.8720    0.3100 ha        1 TA9      0.159000
     31 HAC         2.6350    2.8060    2.5800 ha        1 TA9      0.157000
     32 HAR         0.5750    1.4680    3.0190 ha        1 TA9      0.153000
     33 HAO        -1.4830   -0.0750    2.9480 ha        1 TA9      0.169000
     34 HAT        -3.3430   -1.6670    2.4130 ha        1 TA9      0.170000
     35 HAP        -3.6040   -2.5750    0.1140 ha        1 TA9      0.166000
     36 HAV        -1.0340   -1.2100   -3.5200 hn        1 TA9      0.484800
     37 HAD1       -3.9090   -1.8440   -3.9960 hx        1 TA9      0.115700
     38 HAD2       -2.4300   -2.5900   -4.7890 hx        1 TA9      0.115700
     39 HAA        -3.4880   -1.0750   -6.3440 h1        1 TA9      0.076700
     40 HAW        -4.4490    0.4970   -4.7610 hn        1 TA9      0.375800
     41 HAB        -0.7870    0.0910   -5.2400 h1        1 TA9      0.068700
     42 HAE        -4.1600    1.4420   -6.9260 h1        1 TA9      0.032700
     43 HAU1       -4.0540    3.8060   -6.2810 hc        1 TA9      0.056700
     44 HAU2       -3.3400    3.4100   -4.6620 hc        1 TA9      0.056700
     45 HAU3       -5.0460    2.9110   -5.0530 hc        1 TA9      0.056700
     46 HAG        -2.2090    2.7010   -7.5260 h1        1 TA9      0.058700
     47 HAX        -0.3620    2.5570   -6.0590 ho        1 TA9      0.421000
     48 HAF        -2.1450    0.2470   -8.0370 h1        1 TA9      0.067700
     49 HAY        -0.1970    1.2750   -8.4710 ho        1 TA9      0.427000
     50 HBA        -0.2060   -1.4630   -6.9960 ho        1 TA9      0.448000
     51 HAV2       -2.2560   -0.2310   -2.9620 hn        1 TA9      0.484800
@<TRIPOS>BOND
     1    1    2 1   
     2    1   10 ar  
     3    1   14 ar  
     4    2    3 2   
     5    2    4 1   
     6    4    5 ar  
     7    4    9 ar  
     8    5    6 ar  
     9    5   29 1   
    10    6    7 ar  
    11    6   30 1   
    12    7    8 ar  
    13    7   31 1   
    14    8    9 ar  
    15    8   32 1   
    16    9   10 1   
    17   10   11 ar  
    18   11   12 ar  
    19   11   33 1   
    20   12   13 ar  
    21   12   34 1   
    22   13   14 ar  
    23   13   35 1   
    24   14   15 1   
    25   15   16 2   
    26   15   17 1   
    27   17   18 1   
    28   17   36 1   
    29   17   51 1   
    30   18   19 1   
    31   18   37 1   
    32   18   38 1   
    33   19   20 1   
    34   19   27 1   
    35   19   39 1   
    36   20   21 1   
    37   20   40 1   
    38   21   22 1   
    39   21   23 1   
    40   21   42 1   
    41   22   43 1   
    42   22   44 1   
    43   22   45 1   
    44   23   24 1   
    45   23   25 1   
    46   23   46 1   
    47   24   47 1   
    48   25   26 1   
    49   25   27 1   
    50   25   48 1   
    51   26   49 1   
    52   27   28 1   
    53   27   41 1   
    54   28   50 1   
@<TRIPOS>SUBSTRUCTURE
     1 TA9         1 TEMP              0 ****  ****    0 ROOT
