@<TRIPOS>MOLECULE
TA9
   51    54     1     0     0
SMALL
bcc


@<TRIPOS>ATOM
      1 CAK        -0.3630   -0.5740   -0.5600 ca        1 TA9     -0.154600
      2 CAQ         0.8870    0.2650   -0.6110 c         1 TA9      0.621300
      3 OBB         1.5930    0.4550   -1.6040 o         1 TA9     -0.569100
      4 CAN         1.0570    0.8180    0.7490 ca        1 TA9     -0.190600
      5 CAS         2.0450    1.6380    1.2550 ca        1 TA9     -0.029000
      6 CAH         1.9590    2.0270    2.6060 ca        1 TA9     -0.126000
      7 CAC         0.9090    1.5980    3.4060 ca        1 TA9     -0.081000
      8 CAR        -0.1020    0.7590    2.8950 ca        1 TA9     -0.090000
      9 CAM        -0.0250    0.3720    1.5730 cp        1 TA9     -0.036000
     10 CAL        -0.8940   -0.4890    0.7650 cp        1 TA9      0.007000
     11 CAO        -2.0440   -1.1770    1.1220 ca        1 TA9     -0.065000
     12 CAT        -2.6740   -1.9790    0.1600 ca        1 TA9     -0.090000
     13 CAP        -2.1560   -2.0890   -1.1260 ca        1 TA9     -0.083000
     14 CAJ        -0.9950   -1.3780   -1.5000 ca        1 TA9     -0.125600
     15 CAI        -0.5170   -1.6100   -2.8740 c         1 TA9      0.566700
     16 OAZ        -0.5210   -2.6750   -3.4770 o         1 TA9     -0.413100
     17 NAV         0.0130   -0.4080   -3.6140 n4        1 TA9     -0.663800
     18 CAD        -0.2580   -0.4220   -5.0780 c3        1 TA9      0.107800
     19 CAA        -1.7040   -0.0140   -5.4330 c3        1 TA9      0.145500
     20 NAW        -2.0530    1.2920   -4.8910 n3        1 TA9     -0.819200
     21 CAE        -3.4060    1.6970   -5.2740 c3        1 TA9      0.177500
     22 CAU        -3.7640    3.0790   -4.7390 c3        1 TA9     -0.093100
     23 CAG        -3.6230    1.6720   -6.8110 c3        1 TA9      0.080100
     24 OAX        -2.7740    2.6590   -7.3710 oh        1 TA9     -0.598800
     25 CAF        -3.2790    0.2810   -7.3680 c3        1 TA9      0.067100
     26 OAY        -3.2810    0.3100   -8.7870 oh        1 TA9     -0.602800
     27 CAB        -1.8460   -0.1200   -6.9730 c3        1 TA9      0.125100
     28 OBA        -1.5770   -1.4650   -7.3150 oh        1 TA9     -0.607800
     29 HAS         2.8810    1.9800    0.6250 ha        1 TA9      0.162000
     30 HAH         2.7410    2.6800    3.0260 ha        1 TA9      0.160000
     31 HAC         0.8580    1.9120    4.4610 ha        1 TA9      0.158000
     32 HAR        -0.9260    0.4270    3.5440 ha        1 TA9      0.153000
     33 HAO        -2.4510   -1.1030    2.1430 ha        1 TA9      0.169000
     34 HAT        -3.5850   -2.5390    0.4310 ha        1 TA9      0.169000
     35 HAP        -2.6460   -2.7480   -1.8630 ha        1 TA9      0.166000
     36 HAV         1.0380   -0.3790   -3.4600 hn        1 TA9      0.480300
     37 HAD1       -0.0850   -1.4680   -5.4760 hx        1 TA9      0.124200
     38 HAD2        0.4760    0.2810   -5.5640 hx        1 TA9      0.124200
     39 HAA        -2.4110   -0.7720   -4.9780 h1        1 TA9      0.086700
     40 HAW        -1.4050    1.9890   -5.2240 hn        1 TA9      0.374800
     41 HAB        -1.1170    0.5640   -7.4920 h1        1 TA9      0.071700
     42 HAE        -4.1180    0.9390   -4.8300 h1        1 TA9      0.064700
     43 HAU1       -3.1350    3.8650   -5.2250 hc        1 TA9      0.057033
     44 HAU2       -4.8350    3.2880   -4.9740 hc        1 TA9      0.057033
     45 HAU3       -3.6220    3.1280   -3.6340 hc        1 TA9      0.057033
     46 HAG        -4.6950    1.9210   -7.0440 h1        1 TA9      0.061700
     47 HAX        -2.8090    2.5480   -8.3320 ho        1 TA9      0.428000
     48 HAF        -4.0110   -0.4830   -6.9870 h1        1 TA9      0.065700
     49 HAY        -4.2020    0.3360   -9.0730 ho        1 TA9      0.425000
     50 HBA        -1.7900   -1.5630   -8.2540 ho        1 TA9      0.443000
     51 HAV2       -0.3820    0.4400   -3.1850 hn        1 TA9      0.480300
@<TRIPOS>BOND
     1    1    2 1   
     2    1   10 ar  
     3    1   14 ar  
     4    2    3 2   
     5    2    4 1   
     6    4    5 ar  
     7    4    9 ar  
     8    5    6 ar  
     9    5   29 1   
    10    6    7 ar  
    11    6   30 1   
    12    7    8 ar  
    13    7   31 1   
    14    8    9 ar  
    15    8   32 1   
    16    9   10 1   
    17   10   11 ar  
    18   11   12 ar  
    19   11   33 1   
    20   12   13 ar  
    21   12   34 1   
    22   13   14 ar  
    23   13   35 1   
    24   14   15 1   
    25   15   16 2   
    26   15   17 1   
    27   17   18 1   
    28   17   36 1   
    29   17   51 1   
    30   18   19 1   
    31   18   37 1   
    32   18   38 1   
    33   19   20 1   
    34   19   27 1   
    35   19   39 1   
    36   20   21 1   
    37   20   40 1   
    38   21   22 1   
    39   21   23 1   
    40   21   42 1   
    41   22   43 1   
    42   22   44 1   
    43   22   45 1   
    44   23   24 1   
    45   23   25 1   
    46   23   46 1   
    47   24   47 1   
    48   25   26 1   
    49   25   27 1   
    50   25   48 1   
    51   26   49 1   
    52   27   28 1   
    53   27   41 1   
    54   28   50 1   
@<TRIPOS>SUBSTRUCTURE
     1 TA9         1 TEMP              0 ****  ****    0 ROOT
