@<TRIPOS>MOLECULE
TA9
   50    53     1     0     0
SMALL
bcc


@<TRIPOS>ATOM
      1 CAK         2.5170    0.7150   -0.1630 ca        1 TA9     -0.149600
      2 CAQ         2.7930   -0.7580   -0.2340 c         1 TA9      0.600300
      3 OBB         1.9970   -1.6670   -0.4540 o         1 TA9     -0.510100
      4 CAN         4.2500   -0.9050    0.0430 ca        1 TA9     -0.179600
      5 CAS         5.0330   -2.0400    0.0920 ca        1 TA9     -0.052000
      6 CAH         6.4010   -1.8950    0.3880 ca        1 TA9     -0.140000
      7 CAC         6.9480   -0.6400    0.6250 ca        1 TA9     -0.101000
      8 CAR         6.1560    0.5200    0.5760 ca        1 TA9     -0.112000
      9 CAM         4.8120    0.3860    0.2850 cp        1 TA9     -0.018000
     10 CAL         3.7460    1.3840    0.1560 cp        1 TA9     -0.023000
     11 CAO         3.8020    2.7580    0.2830 ca        1 TA9     -0.098000
     12 CAT         2.6260    3.4980    0.0780 ca        1 TA9     -0.111000
     13 CAP         1.4380    2.8630   -0.2470 ca        1 TA9     -0.099000
     14 CAJ         1.3670    1.4560   -0.3660 ca        1 TA9     -0.066600
     15 CAI         0.0290    0.9010   -0.7500 c         1 TA9      0.660700
     16 OAZ        -0.6690    1.4920   -1.6030 o         1 TA9     -0.613100
     17 NAV        -0.4340   -0.2030   -0.0750 n         1 TA9     -0.543900
     18 CAD        -1.6380   -0.8940   -0.4550 c3        1 TA9      0.092000
     19 CAA        -2.9220   -0.3060    0.1920 c3        1 TA9      0.174500
     20 NAW        -3.4450    0.8130   -0.5750 n3        1 TA9     -0.853200
     21 CAE        -4.6080    1.4290    0.0460 c3        1 TA9      0.155500
     22 CAU        -5.0860    2.6640   -0.7100 c3        1 TA9     -0.092100
     23 CAG        -5.7670    0.4050    0.1400 c3        1 TA9      0.118100
     24 OAX        -6.3090    0.0500   -1.1170 oh        1 TA9     -0.603800
     25 CAF        -5.2950   -0.8570    0.8790 c3        1 TA9      0.073100
     26 OAY        -6.2870   -1.8670    0.8710 oh        1 TA9     -0.604800
     27 CAB        -3.9960   -1.4200    0.2740 c3        1 TA9      0.114100
     28 OBA        -3.4710   -2.4460    1.1020 oh        1 TA9     -0.605800
     29 HAS         4.6000   -3.0340   -0.0960 ha        1 TA9      0.154000
     30 HAH         7.0380   -2.7900    0.4290 ha        1 TA9      0.141000
     31 HAC         8.0210   -0.5450    0.8540 ha        1 TA9      0.138000
     32 HAR         6.6020    1.5070    0.7640 ha        1 TA9      0.141000
     33 HAO         4.7450    3.2660    0.5320 ha        1 TA9      0.144000
     34 HAT         2.6550    4.5950    0.1690 ha        1 TA9      0.143000
     35 HAP         0.5240    3.4500   -0.4360 ha        1 TA9      0.160000
     36 HAV         0.2050   -0.7100    0.4950 hn        1 TA9      0.325500
     37 HAD1       -1.7470   -0.8810   -1.5770 h1        1 TA9      0.076700
     38 HAD2       -1.5490   -1.9640   -0.1110 h1        1 TA9      0.076700
     39 HAA        -2.6870   -0.0110    1.2620 h1        1 TA9      0.038700
     40 HAW        -2.7320    1.4790   -0.8030 hn        1 TA9      0.410800
     41 HAB        -4.2050   -1.8450   -0.7480 h1        1 TA9      0.047700
     42 HAE        -4.3810    1.7420    1.1140 h1        1 TA9      0.023700
     43 HAU1       -5.4280    2.3880   -1.7370 hc        1 TA9      0.046367
     44 HAU2       -5.9440    3.1170   -0.1590 hc        1 TA9      0.046367
     45 HAU3       -4.2700    3.4210   -0.7930 hc        1 TA9      0.046367
     46 HAG        -6.6330    0.8650    0.6940 h1        1 TA9      0.083700
     47 HAX        -5.5750   -0.1030   -1.7270 ho        1 TA9      0.422000
     48 HAF        -5.1300   -0.6260    1.9690 h1        1 TA9      0.084700
     49 HAY        -6.6890   -1.8710   -0.0100 ho        1 TA9      0.420000
     50 HBA        -4.2170   -3.0150    1.3360 ho        1 TA9      0.421000
@<TRIPOS>BOND
     1    1    2 1   
     2    1   10 ar  
     3    1   14 ar  
     4    2    3 2   
     5    2    4 1   
     6    4    5 ar  
     7    4    9 ar  
     8    5    6 ar  
     9    5   29 1   
    10    6    7 ar  
    11    6   30 1   
    12    7    8 ar  
    13    7   31 1   
    14    8    9 ar  
    15    8   32 1   
    16    9   10 1   
    17   10   11 ar  
    18   11   12 ar  
    19   11   33 1   
    20   12   13 ar  
    21   12   34 1   
    22   13   14 ar  
    23   13   35 1   
    24   14   15 1   
    25   15   16 2   
    26   15   17 1   
    27   17   18 1   
    28   17   36 1   
    29   18   19 1   
    30   18   37 1   
    31   18   38 1   
    32   19   20 1   
    33   19   27 1   
    34   19   39 1   
    35   20   21 1   
    36   20   40 1   
    37   21   22 1   
    38   21   23 1   
    39   21   42 1   
    40   22   43 1   
    41   22   44 1   
    42   22   45 1   
    43   23   24 1   
    44   23   25 1   
    45   23   46 1   
    46   24   47 1   
    47   25   26 1   
    48   25   27 1   
    49   25   48 1   
    50   26   49 1   
    51   27   28 1   
    52   27   41 1   
    53   28   50 1   
@<TRIPOS>SUBSTRUCTURE
     1 TA9         1 TEMP              0 ****  ****    0 ROOT
