@<TRIPOS>MOLECULE
TA9
   51    54     1     0     0
SMALL
bcc


@<TRIPOS>ATOM
      1 CAK        -0.4050   -0.5770   -0.5450 ca        1 TA9     -0.154600
      2 CAQ         0.9000    0.1700   -0.6300 c         1 TA9      0.621300
      3 OBB         1.6070    0.2840   -1.6340 o         1 TA9     -0.569100
      4 CAN         1.1240    0.7450    0.7130 ca        1 TA9     -0.190600
      5 CAS         2.1720    1.5060    1.1880 ca        1 TA9     -0.029000
      6 CAH         2.1290    1.9360    2.5290 ca        1 TA9     -0.126000
      7 CAC         1.0600    1.6020    3.3500 ca        1 TA9     -0.081000
      8 CAR        -0.0130    0.8230    2.8710 ca        1 TA9     -0.090000
      9 CAM         0.0220    0.3980    1.5600 cp        1 TA9     -0.036000
     10 CAL        -0.9140   -0.4210    0.7820 cp        1 TA9      0.007000
     11 CAO        -2.1050   -1.0170    1.1680 ca        1 TA9     -0.065000
     12 CAT        -2.8000   -1.7970    0.2340 ca        1 TA9     -0.090000
     13 CAP        -2.3060   -1.9770   -1.0530 ca        1 TA9     -0.083000
     14 CAJ        -1.1020   -1.3590   -1.4570 ca        1 TA9     -0.125600
     15 CAI        -0.6560   -1.6600   -2.8290 c         1 TA9      0.566700
     16 OAZ        -0.7410   -2.7370   -3.4030 o         1 TA9     -0.413100
     17 NAV        -0.0520   -0.5170   -3.6060 ny        1 TA9     -0.663800
     18 CAD        -0.3410   -0.5510   -5.0660 c3        1 TA9      0.107800
     19 CAA        -1.7580   -0.0530   -5.4180 c3        1 TA9      0.145500
     20 NAW        -2.0110    1.2870   -4.9080 n7        1 TA9     -0.819200
     21 CAE        -3.3380    1.7740   -5.2890 c3        1 TA9      0.177500
     22 CAU        -3.5940    3.1910   -4.7880 c3        1 TA9     -0.093100
     23 CAG        -3.5720    1.7250   -6.8220 c3        1 TA9      0.080100
     24 OAX        -2.6640    2.6360   -7.4160 oh        1 TA9     -0.598800
     25 CAF        -3.3310    0.2990   -7.3460 c3        1 TA9      0.067100
     26 OAY        -3.3460    0.2930   -8.7650 oh        1 TA9     -0.602800
     27 CAB        -1.9240   -0.1890   -6.9530 c3        1 TA9      0.125100
     28 OBA        -1.7520   -1.5580   -7.2620 oh        1 TA9     -0.607800
     29 HAS         3.0230    1.7720    0.5410 ha        1 TA9      0.162000
     30 HAH         2.9590    2.5430    2.9240 ha        1 TA9      0.160000
     31 HAC         1.0430    1.9460    4.3970 ha        1 TA9      0.158000
     32 HAR        -0.8500    0.5660    3.5360 ha        1 TA9      0.153000
     33 HAO        -2.4940   -0.8880    2.1910 ha        1 TA9      0.169000
     34 HAT        -3.7440   -2.2850    0.5280 ha        1 TA9      0.169000
     35 HAP        -2.8490   -2.6190   -1.7680 ha        1 TA9      0.166000
     36 HAV         0.9730   -0.5560   -3.4620 hn        1 TA9      0.480300
     37 HAD1        0.4350    0.0880   -5.5780 hx        1 TA9      0.124200
     38 HAD2       -0.2440   -1.6160   -5.4380 hx        1 TA9      0.124200
     39 HAA        -2.5100   -0.7490   -4.9370 h1        1 TA9      0.086700
     40 HAW        -1.3210    1.9290   -5.2650 hn        1 TA9      0.374800
     41 HAB        -1.1560    0.4300   -7.4970 h1        1 TA9      0.071700
     42 HAE        -4.0950    1.0790   -4.8180 h1        1 TA9      0.064700
     43 HAU1       -3.4370    3.2580   -3.6850 hc        1 TA9      0.057033
     44 HAU2       -4.6510    3.4670   -5.0180 hc        1 TA9      0.057033
     45 HAU3       -2.9180    3.9190   -5.3000 hc        1 TA9      0.057033
     46 HAG        -4.6270    2.0410   -7.0520 h1        1 TA9      0.061700
     47 HAX        -2.7170    2.5040   -8.3740 ho        1 TA9      0.428000
     48 HAF        -4.1090   -0.4020   -6.9380 h1        1 TA9      0.065700
     49 HAY        -4.2670    0.3740   -9.0430 ho        1 TA9      0.425000
     50 HBA        -1.9820   -1.6650   -8.1970 ho        1 TA9      0.443000
     51 HAV2       -0.3830    0.3670   -3.1950 hn        1 TA9      0.480300
@<TRIPOS>BOND
     1    1    2 1   
     2    1   10 ar  
     3    1   14 ar  
     4    2    3 2   
     5    2    4 1   
     6    4    5 ar  
     7    4    9 ar  
     8    5    6 ar  
     9    5   29 1   
    10    6    7 ar  
    11    6   30 1   
    12    7    8 ar  
    13    7   31 1   
    14    8    9 ar  
    15    8   32 1   
    16    9   10 1   
    17   10   11 ar  
    18   11   12 ar  
    19   11   33 1   
    20   12   13 ar  
    21   12   34 1   
    22   13   14 ar  
    23   13   35 1   
    24   14   15 1   
    25   15   16 2   
    26   15   17 1   
    27   17   18 1   
    28   17   36 1   
    29   17   51 1   
    30   18   19 1   
    31   18   37 1   
    32   18   38 1   
    33   19   20 1   
    34   19   27 1   
    35   19   39 1   
    36   20   21 1   
    37   20   40 1   
    38   21   22 1   
    39   21   23 1   
    40   21   42 1   
    41   22   43 1   
    42   22   44 1   
    43   22   45 1   
    44   23   24 1   
    45   23   25 1   
    46   23   46 1   
    47   24   47 1   
    48   25   26 1   
    49   25   27 1   
    50   25   48 1   
    51   26   49 1   
    52   27   28 1   
    53   27   41 1   
    54   28   50 1   
@<TRIPOS>SUBSTRUCTURE
     1 TA9         1 TEMP              0 ****  ****    0 ROOT
