@<TRIPOS>MOLECULE
TAA
   58    59     1     0     0
SMALL
bcc


@<TRIPOS>ATOM
      1 P1         -0.2860   -0.3860    0.3130 p5        1 TAA      1.554300
      2 O1          1.3280   -0.1980    0.2920 os        1 TAA     -0.588200
      3 O2         -0.8290    0.0100    1.6040 o         1 TAA     -0.841300
      4 O3         -0.4060   -1.9710    0.1130 oh        1 TAA     -0.779400
      5 C1         -0.7400    0.2930   -1.1140 c3        1 TAA     -0.323300
      6 C2         -2.2010    0.3280   -1.3560 ca        1 TAA     -0.105300
      7 C3         -2.9660    1.4430   -0.9870 ca        1 TAA     -0.085000
      8 C7         -2.8370   -0.7130   -2.0500 ca        1 TAA     -0.085000
      9 C4         -4.3300    1.5080   -1.2540 ca        1 TAA     -0.157000
     10 C5         -4.9690    0.4480   -1.9280 ca        1 TAA      0.069600
     11 C6         -4.1950   -0.6680   -2.3270 ca        1 TAA     -0.157000
     12 N1         -6.3460    0.4460   -2.2250 ns        1 TAA     -0.447100
     13 C8         -7.2310    1.4720   -2.0030 c         1 TAA      0.641100
     14 O4         -6.9970    2.5760   -1.5060 o         1 TAA     -0.515100
     15 C9         -8.7140    1.1450   -2.4590 c3        1 TAA      0.553900
     16 F1         -9.5760    2.1770   -2.2370 f         1 TAA     -0.219967
     17 F2         -8.8150    0.8510   -3.7930 f         1 TAA     -0.219967
     18 F3         -9.2490    0.0610   -1.8130 f         1 TAA     -0.219967
     19 C10         1.9890   -0.0860    1.5330 c3        1 TAA      0.219400
     20 C11         2.9970   -1.2640    1.7280 c3        1 TAA      0.163500
     21 C12         3.4690   -1.2030    3.1970 c3        1 TAA      0.112400
     22 O5          4.4540   -2.2100    3.3590 oh        1 TAA     -0.604800
     23 N2          2.4070   -2.5550    1.3870 n7        1 TAA     -0.853200
     24 C13         2.7890   -3.0310    0.0590 c3        1 TAA      0.363300
     25 O6          4.1790   -3.2790   -0.0940 oh        1 TAA     -0.601800
     26 C14         1.9310   -4.2600   -0.3360 c3        1 TAA      0.110100
     27 Cl1         2.2390   -4.7190   -1.9970 cl        1 TAA     -0.146400
     28 Cl2         2.2030   -5.6150    0.7510 cl        1 TAA     -0.146400
     29 C15         2.7410    1.2200    1.5580 ca        1 TAA     -0.071300
     30 C16         3.5710    1.5770    0.4900 ca        1 TAA     -0.122000
     31 C20         2.6000    2.0840    2.6500 ca        1 TAA     -0.122000
     32 C17         4.2700    2.7810    0.5080 ca        1 TAA     -0.073500
     33 C18         4.1290    3.6350    1.6140 ca        1 TAA     -0.171200
     34 C19         3.2920    3.2920    2.6880 ca        1 TAA     -0.073500
     35 N3          4.8730    4.9220    1.6460 no        1 TAA      0.312200
     36 O7          5.5660    5.2170    0.7100 o         1 TAA     -0.206000
     37 O8          4.7620    5.6340    2.6080 o         1 TAA     -0.206000
     38 HC11       -0.3430    1.3450   -1.1920 hc        1 TAA      0.122200
     39 HC12       -0.2550   -0.2500   -1.9760 hc        1 TAA      0.122200
     40 HC3        -2.4920    2.2890   -0.4640 ha        1 TAA      0.145500
     41 HC7        -2.2540   -1.5890   -2.3790 ha        1 TAA      0.145500
     42 HC4        -4.8950    2.3990   -0.9330 ha        1 TAA      0.158000
     43 HC6        -4.6590   -1.5100   -2.8640 ha        1 TAA      0.158000
     44 HN1        -6.7010   -0.3840   -2.6530 hn        1 TAA      0.337500
     45 H10         1.2230   -0.1080    2.3670 h1        1 TAA      0.090700
     46 H11         3.8950   -1.0600    1.0690 h1        1 TAA      0.080700
     47 H121        2.6150   -1.3870    3.9030 h1        1 TAA      0.039700
     48 H122        3.9050   -0.1880    3.3990 h1        1 TAA      0.039700
     49 HO5         4.8140   -2.1050    4.2480 ho        1 TAA      0.413000
     50 HN2         2.6320   -3.2350    2.0910 hn        1 TAA      0.387800
     51 H13         2.5840   -2.2020   -0.6890 h2        1 TAA      0.118700
     52 HO6         4.4270   -4.0390    0.4500 ho        1 TAA      0.414000
     53 H14         0.8420   -4.0060   -0.2730 h2        1 TAA      0.121700
     54 H16         3.6620    0.8980   -0.3730 ha        1 TAA      0.159500
     55 H20         1.9300    1.8170    3.4830 ha        1 TAA      0.159500
     56 H17         4.9260    3.0610   -0.3340 ha        1 TAA      0.174000
     57 H19         3.1810    3.9740    3.5490 ha        1 TAA      0.174000
     58 H22        -0.3740   -2.4910    0.9130 ho        1 TAA      0.483000
@<TRIPOS>BOND
     1    1    2 1   
     2    1    3 2   
     3    1    4 1   
     4    1    5 1   
     5    2   19 1   
     6    4   58 1   
     7    5    6 1   
     8    5   38 1   
     9    5   39 1   
    10    6    7 ar  
    11    6    8 ar  
    12    7    9 ar  
    13    7   40 1   
    14    8   11 ar  
    15    8   41 1   
    16    9   10 ar  
    17    9   42 1   
    18   10   11 ar  
    19   10   12 1   
    20   11   43 1   
    21   12   13 1   
    22   12   44 1   
    23   13   14 2   
    24   13   15 1   
    25   15   16 1   
    26   15   17 1   
    27   15   18 1   
    28   19   20 1   
    29   19   29 1   
    30   19   45 1   
    31   20   21 1   
    32   20   23 1   
    33   20   46 1   
    34   21   22 1   
    35   21   47 1   
    36   21   48 1   
    37   22   49 1   
    38   23   24 1   
    39   23   50 1   
    40   24   25 1   
    41   24   26 1   
    42   24   51 1   
    43   25   52 1   
    44   26   27 1   
    45   26   28 1   
    46   26   53 1   
    47   29   30 ar  
    48   29   31 ar  
    49   30   32 ar  
    50   30   54 1   
    51   31   34 ar  
    52   31   55 1   
    53   32   33 ar  
    54   32   56 1   
    55   33   34 ar  
    56   33   35 1   
    57   34   57 1   
    58   35   36 1   
    59   35   37 1   
@<TRIPOS>SUBSTRUCTURE
     1 TAA         1 TEMP              0 ****  ****    0 ROOT
