@<TRIPOS>MOLECULE
TAA
   57    58     1     0     0
SMALL
bcc


@<TRIPOS>ATOM
      1 P1         -0.4510    0.6010    0.2400 p5        1 TAA      1.354600
      2 O1         -0.5310   -0.0940    1.7760 os        1 TAA     -0.580200
      3 O2          0.4860    1.7330    0.3860 o         1 TAA     -0.848000
      4 O3         -1.8670    0.7230   -0.1660 o         1 TAA     -0.848000
      5 C1          0.2930   -0.7210   -0.5480 c3        1 TAA     -0.288300
      6 C2          0.4140   -0.5730   -2.0060 ca        1 TAA     -0.018300
      7 C3          1.5800   -0.0500   -2.5840 ca        1 TAA     -0.107500
      8 C7         -0.6090   -1.0120   -2.8650 ca        1 TAA     -0.107500
      9 C4          1.7250    0.0570   -3.9640 ca        1 TAA     -0.149500
     10 C5          0.6920   -0.3760   -4.8140 ca        1 TAA      0.010600
     11 C6         -0.4840   -0.9140   -4.2440 ca        1 TAA     -0.149500
     12 N1          0.7670   -0.2760   -6.2250 n         1 TAA     -0.432100
     13 C8          1.9020   -0.0950   -6.9590 c         1 TAA      0.644100
     14 O4          3.0640    0.0500   -6.5620 o         1 TAA     -0.535100
     15 C9          1.6490   -0.0650   -8.5260 c3        1 TAA      0.538900
     16 F1          2.7950    0.0950   -9.2510 f         1 TAA     -0.230633
     17 F2          1.0680   -1.2080   -9.0100 f         1 TAA     -0.230633
     18 F3          0.8170    0.9470   -8.9290 f         1 TAA     -0.230633
     19 C10        -0.2890    0.7590    2.8440 c3        1 TAA      0.234400
     20 C11        -1.4970    0.7280    3.8430 c3        1 TAA      0.138500
     21 C12        -1.1410    1.5800    5.0850 c3        1 TAA      0.116400
     22 O5         -0.8470    0.7630    6.2020 oh        1 TAA     -0.607800
     23 N2         -2.7150    1.1800    3.1870 n3        1 TAA     -0.836200
     24 C13        -3.5470    0.1190    2.6430 c3        1 TAA      0.371300
     25 O6         -4.3200   -0.5460    3.6440 oh        1 TAA     -0.627800
     26 C14        -4.4260    0.6620    1.4920 c3        1 TAA      0.135100
     27 CL1        -5.4150   -0.6220    0.8080 cl        1 TAA     -0.198900
     28 CL2        -5.4730    1.9790    2.0480 cl        1 TAA     -0.198900
     29 C15         0.9610    0.3030    3.5710 ca        1 TAA     -0.041300
     30 C16         1.0840   -1.0180    4.0190 ca        1 TAA     -0.131000
     31 C20         2.0220    1.1980    3.7610 ca        1 TAA     -0.131000
     32 C17         2.2350   -1.4440    4.6730 ca        1 TAA     -0.079000
     33 C18         3.2820   -0.5280    4.8790 ca        1 TAA     -0.192200
     34 C19         3.1820    0.7940    4.4130 ca        1 TAA     -0.079000
     35 N3          4.5080   -0.9660    5.5870 no        1 TAA      0.314200
     36 O7          5.3990   -0.1770    5.7680 o         1 TAA     -0.228000
     37 O8          4.5920   -2.1040    5.9730 o         1 TAA     -0.228000
     38 HC11        1.3100   -0.8700   -0.1010 hc        1 TAA      0.081700
     39 HC12       -0.2980   -1.6430   -0.3120 hc        1 TAA      0.081700
     40 HC3         2.3960    0.3040   -1.9330 ha        1 TAA      0.151000
     41 HC7        -1.5390   -1.4170   -2.4350 ha        1 TAA      0.151000
     42 HC4         2.6560    0.4770   -4.3780 ha        1 TAA      0.139000
     43 HC6        -1.3130   -1.2540   -4.8820 ha        1 TAA      0.139000
     44 HN1        -0.0920   -0.3990   -6.7160 hn        1 TAA      0.330500
     45 H10        -0.1370    1.8190    2.4730 h1        1 TAA      0.092700
     46 H11        -1.6140   -0.3460    4.1850 h1        1 TAA      0.053700
     47 H121       -1.9970    2.2170    5.4380 h1        1 TAA      0.047200
     48 H122       -0.2660    2.2480    4.8590 h1        1 TAA      0.047200
     49 HO5        -0.1330    0.1670    5.9400 ho        1 TAA      0.402000
     50 HN2        -3.2450    1.8000    3.7680 hn        1 TAA      0.366800
     51 H13        -2.8840   -0.6980    2.2170 h2        1 TAA      0.139700
     52 HO6        -5.0720    0.0130    3.8750 ho        1 TAA      0.396000
     53 H14        -3.7750    1.0620    0.6590 h2        1 TAA      0.206700
     54 H16         0.2630   -1.7260    3.8210 ha        1 TAA      0.165500
     55 H20         1.9460    2.2230    3.3610 ha        1 TAA      0.165500
     56 H17         2.3290   -2.4850    5.0220 ha        1 TAA      0.160500
     57 H19         4.0170    1.4990    4.5580 ha        1 TAA      0.160500
@<TRIPOS>BOND
     1    1    2 1   
     2    1    3 1   
     3    1    4 1   
     4    1    5 1   
     5    2   19 1   
     6    5    6 1   
     7    5   38 1   
     8    5   39 1   
     9    6    7 ar  
    10    6    8 ar  
    11    7    9 ar  
    12    7   40 1   
    13    8   11 ar  
    14    8   41 1   
    15    9   10 ar  
    16    9   42 1   
    17   10   11 ar  
    18   10   12 1   
    19   11   43 1   
    20   12   13 1   
    21   12   44 1   
    22   13   14 2   
    23   13   15 1   
    24   15   16 1   
    25   15   17 1   
    26   15   18 1   
    27   19   20 1   
    28   19   29 1   
    29   19   45 1   
    30   20   21 1   
    31   20   23 1   
    32   20   46 1   
    33   21   22 1   
    34   21   47 1   
    35   21   48 1   
    36   22   49 1   
    37   23   24 1   
    38   23   50 1   
    39   24   25 1   
    40   24   26 1   
    41   24   51 1   
    42   25   52 1   
    43   26   27 1   
    44   26   28 1   
    45   26   53 1   
    46   29   30 ar  
    47   29   31 ar  
    48   30   32 ar  
    49   30   54 1   
    50   31   34 ar  
    51   31   55 1   
    52   32   33 ar  
    53   32   56 1   
    54   33   34 ar  
    55   33   35 1   
    56   34   57 1   
    57   35   36 1   
    58   35   37 1   
@<TRIPOS>SUBSTRUCTURE
     1 TAA         1 TEMP              0 ****  ****    0 ROOT
