@<TRIPOS>MOLECULE
TAA
   57    58     1     0     0
SMALL
bcc


@<TRIPOS>ATOM
      1 P1         -0.2720   -0.4880    0.4550 p5        1 TAA      1.355600
      2 O1          1.4050   -0.4090    0.2600 os        1 TAA     -0.577200
      3 O2         -0.5220    0.3270    1.6650 o         1 TAA     -0.850500
      4 O3         -0.5890   -1.9240    0.3210 o         1 TAA     -0.850500
      5 C1         -0.6910    0.3640   -0.9640 c3        1 TAA     -0.290300
      6 C2         -2.1320    0.3920   -1.2570 ca        1 TAA     -0.018300
      7 C3         -2.9340    1.4610   -0.8300 ca        1 TAA     -0.107500
      8 C7         -2.7340   -0.6170   -2.0290 ca        1 TAA     -0.107500
      9 C4         -4.2900    1.5230   -1.1350 ca        1 TAA     -0.149500
     10 C5         -4.8850    0.5020   -1.8980 ca        1 TAA      0.010600
     11 C6         -4.0850   -0.5740   -2.3430 ca        1 TAA     -0.149500
     12 N1         -6.2630    0.4940   -2.2250 n         1 TAA     -0.432100
     13 C8         -7.1110    1.5600   -2.1650 c         1 TAA      0.644100
     14 O4         -6.8760    2.7140   -1.7920 o         1 TAA     -0.535100
     15 C9         -8.5890    1.2250   -2.6380 c3        1 TAA      0.538900
     16 F1         -9.4240    2.3040   -2.5950 f         1 TAA     -0.230300
     17 F2         -8.6610    0.7610   -3.9270 f         1 TAA     -0.230300
     18 F3         -9.2010    0.2570   -1.8850 f         1 TAA     -0.230300
     19 C10         2.1400   -0.2890    1.4330 c3        1 TAA      0.241400
     20 C11         3.2600   -1.3780    1.4870 c3        1 TAA      0.175500
     21 C12         4.0500   -1.1560    2.7950 c3        1 TAA      0.109400
     22 O5          5.1210   -2.0890    2.8200 oh        1 TAA     -0.608800
     23 N2          2.6970   -2.7210    1.4280 n3        1 TAA     -0.830200
     24 C13         2.5490   -3.2590    0.0840 c3        1 TAA      0.367300
     25 O6          3.7600   -3.8020   -0.4420 oh        1 TAA     -0.624800
     26 C14         1.3900   -4.2850    0.0510 c3        1 TAA      0.135100
     27 CL1         1.1550   -4.9040   -1.5810 cl        1 TAA     -0.199900
     28 CL2         1.6950   -5.6360    1.1550 cl        1 TAA     -0.199900
     29 C15         2.7280    1.1080    1.5150 ca        1 TAA     -0.038300
     30 C16         3.8900    1.4840    0.8330 ca        1 TAA     -0.129000
     31 C20         2.0340    2.0640    2.2730 ca        1 TAA     -0.129000
     32 C17         4.3910    2.7790    0.9390 ca        1 TAA     -0.083500
     33 C18         3.7080    3.7150    1.7330 ca        1 TAA     -0.193200
     34 C19         2.5170    3.3630    2.3920 ca        1 TAA     -0.083500
     35 N3          4.2440    5.0880    1.8680 no        1 TAA      0.313200
     36 O7          3.6640    5.8860    2.5590 o         1 TAA     -0.231500
     37 O8          5.2590    5.3860    1.2900 o         1 TAA     -0.231500
     38 HC11       -0.1430   -0.1030   -1.8230 hc        1 TAA      0.083700
     39 HC12       -0.3060    1.4120   -0.8730 hc        1 TAA      0.083700
     40 HC3        -2.4860    2.2640   -0.2220 ha        1 TAA      0.151000
     41 HC7        -2.1280   -1.4720   -2.3690 ha        1 TAA      0.151000
     42 HC4        -4.8860    2.3770   -0.7760 ha        1 TAA      0.139000
     43 HC6        -4.5220   -1.3910   -2.9370 ha        1 TAA      0.139000
     44 HN1        -6.6210   -0.3680   -2.5770 hn        1 TAA      0.330500
     45 H10         1.4610   -0.4370    2.3300 h1        1 TAA      0.078700
     46 H11         3.9650   -1.2110    0.6190 h1        1 TAA      0.050700
     47 H121        4.4650   -0.1130    2.8080 h1        1 TAA      0.034200
     48 H122        3.3870   -1.3030    3.6890 h1        1 TAA      0.034200
     49 HO5         5.5330   -2.0050    3.6870 ho        1 TAA      0.394000
     50 HN2         3.2190   -3.3480    2.0110 hn        1 TAA      0.373800
     51 H13         2.2920   -2.4210   -0.6380 h2        1 TAA      0.137700
     52 HO6         3.9460   -4.6340    0.0090 ho        1 TAA      0.397000
     53 H14         0.4210   -3.7950    0.3630 h2        1 TAA      0.203700
     54 H16         4.4130    0.7570    0.1930 ha        1 TAA      0.177500
     55 H20         1.0690    1.7800    2.7410 ha        1 TAA      0.177500
     56 H17         5.3090    3.0680    0.4030 ha        1 TAA      0.158500
     57 H19         1.9690    4.1090    2.9900 ha        1 TAA      0.158500
@<TRIPOS>BOND
     1    1    2 1   
     2    1    3 1   
     3    1    4 1   
     4    1    5 1   
     5    2   19 1   
     6    5    6 1   
     7    5   38 1   
     8    5   39 1   
     9    6    7 ar  
    10    6    8 ar  
    11    7    9 ar  
    12    7   40 1   
    13    8   11 ar  
    14    8   41 1   
    15    9   10 ar  
    16    9   42 1   
    17   10   11 ar  
    18   10   12 1   
    19   11   43 1   
    20   12   13 1   
    21   12   44 1   
    22   13   14 2   
    23   13   15 1   
    24   15   16 1   
    25   15   17 1   
    26   15   18 1   
    27   19   20 1   
    28   19   29 1   
    29   19   45 1   
    30   20   21 1   
    31   20   23 1   
    32   20   46 1   
    33   21   22 1   
    34   21   47 1   
    35   21   48 1   
    36   22   49 1   
    37   23   24 1   
    38   23   50 1   
    39   24   25 1   
    40   24   26 1   
    41   24   51 1   
    42   25   52 1   
    43   26   27 1   
    44   26   28 1   
    45   26   53 1   
    46   29   30 ar  
    47   29   31 ar  
    48   30   32 ar  
    49   30   54 1   
    50   31   34 ar  
    51   31   55 1   
    52   32   33 ar  
    53   32   56 1   
    54   33   34 ar  
    55   33   35 1   
    56   34   57 1   
    57   35   36 1   
    58   35   37 1   
@<TRIPOS>SUBSTRUCTURE
     1 TAA         1 TEMP              0 ****  ****    0 ROOT
