@<TRIPOS>MOLECULE
TAA
   58    59     1     0     0
SMALL
bcc


@<TRIPOS>ATOM
      1 P1         -0.2870   -0.3820    0.3180 p5        1 TAA      1.554300
      2 O1          1.3270   -0.1980    0.2950 os        1 TAA     -0.588200
      3 O2         -0.8280    0.0230    1.6070 o         1 TAA     -0.841300
      4 O3         -0.4090   -1.9680    0.1270 oh        1 TAA     -0.779400
      5 C1         -0.7400    0.2890   -1.1130 c3        1 TAA     -0.323300
      6 C2         -2.2020    0.3240   -1.3550 ca        1 TAA     -0.105300
      7 C3         -2.9660    1.4410   -0.9920 ca        1 TAA     -0.085000
      8 C7         -2.8370   -0.7210   -2.0440 ca        1 TAA     -0.085000
      9 C4         -4.3300    1.5040   -1.2600 ca        1 TAA     -0.157000
     10 C5         -4.9700    0.4420   -1.9280 ca        1 TAA      0.069600
     11 C6         -4.1960   -0.6770   -2.3210 ca        1 TAA     -0.157000
     12 N1         -6.3460    0.4380   -2.2250 n         1 TAA     -0.447100
     13 C8         -7.2310    1.4650   -2.0100 c         1 TAA      0.641100
     14 O4         -6.9960    2.5720   -1.5190 o         1 TAA     -0.515100
     15 C9         -8.7140    1.1360   -2.4630 c3        1 TAA      0.553900
     16 F1         -9.5750    2.1710   -2.2480 f         1 TAA     -0.219967
     17 F2         -8.8150    0.8330   -3.7950 f         1 TAA     -0.219967
     18 F3         -9.2500    0.0580   -1.8100 f         1 TAA     -0.219967
     19 C10         1.9890   -0.0800    1.5360 c3        1 TAA      0.219400
     20 C11         2.9940   -1.2580    1.7370 c3        1 TAA      0.163500
     21 C12         3.4670   -1.1900    3.2060 c3        1 TAA      0.112400
     22 O5          4.4490   -2.1980    3.3740 oh        1 TAA     -0.604800
     23 N2          2.4020   -2.5500    1.4030 n3        1 TAA     -0.853200
     24 C13         2.7830   -3.0340    0.0780 c3        1 TAA      0.363300
     25 O6          4.1720   -3.2850   -0.0750 oh        1 TAA     -0.601800
     26 C14         1.9230   -4.2630   -0.3110 c3        1 TAA      0.110100
     27 CL1         2.2290   -4.7320   -1.9690 cl        1 TAA     -0.146400
     28 CL2         2.1920   -5.6130    0.7830 cl        1 TAA     -0.146400
     29 C15         2.7440    1.2260    1.5530 ca        1 TAA     -0.071300
     30 C16         3.5740    1.5740    0.4820 ca        1 TAA     -0.122000
     31 C20         2.6060    2.0960    2.6400 ca        1 TAA     -0.122000
     32 C17         4.2760    2.7760    0.4930 ca        1 TAA     -0.073500
     33 C18         4.1380    3.6370    1.5930 ca        1 TAA     -0.171200
     34 C19         3.3000    3.3030    2.6700 ca        1 TAA     -0.073500
     35 N3          4.8850    4.9230    1.6180 no        1 TAA      0.312200
     36 O7          5.5780    5.2100    0.6800 o         1 TAA     -0.206000
     37 O8          4.7760    5.6400    2.5760 o         1 TAA     -0.206000
     38 HC11       -0.3430    1.3410   -1.1950 hc        1 TAA      0.122200
     39 HC12       -0.2550   -0.2580   -1.9710 hc        1 TAA      0.122200
     40 HC3        -2.4920    2.2900   -0.4740 ha        1 TAA      0.145500
     41 HC7        -2.2550   -1.5990   -2.3680 ha        1 TAA      0.145500
     42 HC4        -4.8950    2.3980   -0.9430 ha        1 TAA      0.158000
     43 HC6        -4.6590   -1.5220   -2.8530 ha        1 TAA      0.158000
     44 HN1        -6.7020   -0.3950   -2.6480 hn        1 TAA      0.337500
     45 H10         1.2230   -0.0950    2.3700 h1        1 TAA      0.090700
     46 H11         3.8930   -1.0590    1.0770 h1        1 TAA      0.080700
     47 H121        3.9040   -0.1750    3.4030 h1        1 TAA      0.039700
     48 H122        2.6120   -1.3690    3.9130 h1        1 TAA      0.039700
     49 HO5         4.8100   -2.0880    4.2620 ho        1 TAA      0.413000
     50 HN2         2.6270   -3.2270    2.1110 hn        1 TAA      0.387800
     51 H13         2.5790   -2.2080   -0.6740 h2        1 TAA      0.118700
     52 HO6         4.4200   -4.0430    0.4730 ho        1 TAA      0.414000
     53 H14         0.8340   -4.0070   -0.2490 h2        1 TAA      0.121700
     54 H16         3.6630    0.8890   -0.3780 ha        1 TAA      0.159500
     55 H20         1.9350    1.8350    3.4750 ha        1 TAA      0.159500
     56 H17         4.9330    3.0500   -0.3510 ha        1 TAA      0.174000
     57 H19         3.1920    3.9900    3.5270 ha        1 TAA      0.174000
     58 H22        -0.3780   -2.4840    0.9310 ho        1 TAA      0.483000
@<TRIPOS>BOND
     1    1    2 1   
     2    1    3 2   
     3    1    4 1   
     4    1    5 1   
     5    2   19 1   
     6    4   58 1   
     7    5    6 1   
     8    5   38 1   
     9    5   39 1   
    10    6    7 ar  
    11    6    8 ar  
    12    7    9 ar  
    13    7   40 1   
    14    8   11 ar  
    15    8   41 1   
    16    9   10 ar  
    17    9   42 1   
    18   10   11 ar  
    19   10   12 1   
    20   11   43 1   
    21   12   13 1   
    22   12   44 1   
    23   13   14 2   
    24   13   15 1   
    25   15   16 1   
    26   15   17 1   
    27   15   18 1   
    28   19   20 1   
    29   19   29 1   
    30   19   45 1   
    31   20   21 1   
    32   20   23 1   
    33   20   46 1   
    34   21   22 1   
    35   21   47 1   
    36   21   48 1   
    37   22   49 1   
    38   23   24 1   
    39   23   50 1   
    40   24   25 1   
    41   24   26 1   
    42   24   51 1   
    43   25   52 1   
    44   26   27 1   
    45   26   28 1   
    46   26   53 1   
    47   29   30 ar  
    48   29   31 ar  
    49   30   32 ar  
    50   30   54 1   
    51   31   34 ar  
    52   31   55 1   
    53   32   33 ar  
    54   32   56 1   
    55   33   34 ar  
    56   33   35 1   
    57   34   57 1   
    58   35   36 1   
    59   35   37 1   
@<TRIPOS>SUBSTRUCTURE
     1 TAA         1 TEMP              0 ****  ****    0 ROOT
