@<TRIPOS>MOLECULE
TAB
   62    64     1     0     0
SMALL
bcc


@<TRIPOS>ATOM
      1 C1'        -0.7490   -0.8710   -0.1050 ca        1 TAB      0.107400
      2 C2'         0.5560   -1.4130   -0.1550 ca        1 TAB      0.074400
      3 C3'         1.3610   -1.3470    0.9940 ca        1 TAB     -0.099000
      4 C4'         0.8790   -0.7910    2.1720 ca        1 TAB     -0.049000
      5 C5'        -0.4340   -0.2860    2.2390 cp        1 TAB     -0.141000
      6 C6'        -1.2460   -0.3360    1.1010 ca        1 TAB     -0.084000
      7 CL8         1.1600   -2.1060   -1.5570 cl        1 TAB      0.045600
      8 N8'        -1.5990   -0.7190   -1.2460 ne        1 TAB     -0.209400
      9 C9'        -0.9490    0.2690    3.4840 cp        1 TAB     -0.150600
     10 C10        -0.8990   -0.4690    4.7280 ca        1 TAB      0.542600
     11 C11        -0.3570   -1.8720    4.7500 c3        1 TAB     -0.152700
     12 N17        -1.3290    0.0760    5.8830 nb        1 TAB     -0.630000
     13 C14        -1.8300    1.3560    5.8280 ca        1 TAB      0.757900
     14 N22        -2.2780    1.9390    7.1280 n4        1 TAB     -0.817300
     15 N15        -1.9590    2.1350    4.7200 nb        1 TAB     -0.671000
     16 C15        -1.5130    1.5660    3.5540 ca        1 TAB      0.514200
     17 N20        -1.6500    2.3990    2.3430 n4        1 TAB     -0.826300
     18 N18        -2.8270   -1.3510   -3.0690 n4        1 TAB     -0.445500
     19 C19        -2.3330   -0.3780   -4.1460 c3        1 TAB      0.190100
     20 C20        -1.0160   -2.7780    5.7600 c3        1 TAB     -0.104100
     21 C21        -4.2310   -0.9980   -2.6390 c3        1 TAB      0.092800
     22 C22        -4.3980    0.1220   -1.6130 c3        1 TAB      0.123400
     23 O23        -3.7670    1.3000   -2.1220 os        1 TAB     -0.430900
     24 C24        -3.1940    2.1960   -1.2700 c         1 TAB      0.706100
     25 C25        -2.8370    3.4740   -1.9440 c3        1 TAB     -0.167100
     26 O26        -3.0220    1.8690   -0.0830 o         1 TAB     -0.679000
     27 C27        -1.1500   -0.9090   -4.8670 ca        1 TAB     -0.199300
     28 C28        -1.3040   -1.9840   -5.7560 ca        1 TAB     -0.102500
     29 C29         0.0980   -0.2910   -4.7300 ca        1 TAB     -0.102500
     30 C30         1.1830   -0.7400   -5.4810 ca        1 TAB     -0.113000
     31 C31         1.0300   -1.8130   -6.3630 ca        1 TAB     -0.063000
     32 C32        -0.2140   -2.4350   -6.4970 ca        1 TAB     -0.113000
     33 N65        -1.9030   -1.6350   -1.9950 n2        1 TAB     -0.019700
     34 H3'1        2.3920   -1.7520    0.9590 ha        1 TAB      0.209000
     35 H4'1        1.5370   -0.7500    3.0580 ha        1 TAB      0.175000
     36 H6'1       -2.2950    0.0130    1.1430 ha        1 TAB      0.164000
     37 H111       -0.4710   -2.3120    3.7210 hc        1 TAB      0.098200
     38 H112        0.7470   -1.8040    4.9760 hc        1 TAB      0.098200
     39 HN21       -2.7000    2.8700    6.9890 hn        1 TAB      0.503800
     40 HN22       -1.4630    2.0220    7.7580 hn        1 TAB      0.503800
     41 HN11       -1.0200    2.0410    1.6070 hn        1 TAB      0.496800
     42 HN12       -2.6220    2.3450    1.9800 hn        1 TAB      0.496800
     43 H191       -2.1270    0.6140   -3.6530 hx        1 TAB      0.111200
     44 H192       -3.1960   -0.2520   -4.8650 hx        1 TAB      0.111200
     45 H201       -0.7910   -2.4610    6.8070 hc        1 TAB      0.072367
     46 H202       -2.1230   -2.8030    5.6200 hc        1 TAB      0.072367
     47 H203       -0.6220   -3.8180    5.6250 hc        1 TAB      0.072367
     48 H211       -4.7950   -0.7200   -3.5780 hx        1 TAB      0.128700
     49 H212       -4.7030   -1.9280   -2.2000 hx        1 TAB      0.128700
     50 H221       -5.5010    0.3500   -1.5400 h1        1 TAB      0.093200
     51 H222       -4.0130   -0.1470   -0.5970 h1        1 TAB      0.093200
     52 H251       -2.7050    3.3240   -3.0460 hc        1 TAB      0.105367
     53 H252       -1.8980    3.8880   -1.5050 hc        1 TAB      0.105367
     54 H253       -3.6740    4.2060   -1.7890 hc        1 TAB      0.105367
     55 H281       -2.2880   -2.4570   -5.8960 ha        1 TAB      0.131000
     56 H291        0.2210    0.5690   -4.0550 ha        1 TAB      0.131000
     57 H301        2.1600   -0.2380   -5.3920 ha        1 TAB      0.169000
     58 H311        1.8880   -2.1610   -6.9630 ha        1 TAB      0.175000
     59 H321       -0.3370   -3.2750   -7.2030 ha        1 TAB      0.169000
     60 H223       -2.9730    1.3080    7.5620 hn        1 TAB      0.503800
     61 H204       -1.4230    3.3840    2.5440 hn        1 TAB      0.496800
     62 H181       -2.8750   -2.2860   -3.5310 hn        1 TAB      0.490800
@<TRIPOS>BOND
     1    1    2 ar  
     2    1    6 ar  
     3    1    8 1   
     4    2    3 ar  
     5    2    7 1   
     6    3    4 ar  
     7    3   34 1   
     8    4    5 ar  
     9    4   35 1   
    10    5    6 ar  
    11    5    9 1   
    12    6   36 1   
    13    8   33 2   
    14    9   10 ar  
    15    9   16 ar  
    16   10   11 1   
    17   10   12 ar  
    18   11   20 1   
    19   11   37 1   
    20   11   38 1   
    21   12   13 ar  
    22   13   14 1   
    23   13   15 ar  
    24   14   39 1   
    25   14   40 1   
    26   14   60 1   
    27   15   16 ar  
    28   16   17 1   
    29   17   41 1   
    30   17   42 1   
    31   17   61 1   
    32   18   19 1   
    33   18   21 1   
    34   18   33 1   
    35   18   62 1   
    36   19   27 1   
    37   19   43 1   
    38   19   44 1   
    39   20   45 1   
    40   20   46 1   
    41   20   47 1   
    42   21   22 1   
    43   21   48 1   
    44   21   49 1   
    45   22   23 1   
    46   22   50 1   
    47   22   51 1   
    48   23   24 1   
    49   24   25 1   
    50   24   26 2   
    51   25   52 1   
    52   25   53 1   
    53   25   54 1   
    54   27   28 ar  
    55   27   29 ar  
    56   28   32 ar  
    57   28   55 1   
    58   29   30 ar  
    59   29   56 1   
    60   30   31 ar  
    61   30   57 1   
    62   31   32 ar  
    63   31   58 1   
    64   32   59 1   
@<TRIPOS>SUBSTRUCTURE
     1 TAB         1 TEMP              0 ****  ****    0 ROOT
