@<TRIPOS>MOLECULE
TAB
   59    52     1     0     0
SMALL
bcc


@<TRIPOS>ATOM
      1 C1'         0.8770    0.9270   -0.4500 c1        1 TAB     -0.054000
      2 C2'         2.2670    0.8970   -0.4900 c1        1 TAB     -0.068000
      3 C3'         3.0000    0.8840    0.6970 c1        1 TAB     -0.121000
      4 C4'         2.3390    0.9010    1.9240 c1        1 TAB     -0.113000
      5 C5'         0.9500    0.9310    1.9660 c1        1 TAB      0.000000
      6 C6'         0.2170    0.9440    0.7810 c1        1 TAB     -0.124000
      7 CL8         3.0960    0.9460   -2.0270 cl        1 TAB      0.002000
      8 N8'         0.1300    1.1730   -1.6670 n2        1 TAB     -0.103000
      9 C9'         0.2720    0.9790    3.2270 c1        1 TAB     -0.287000
     10 C10        -0.2820    2.1580    3.6650 c1        1 TAB      0.109000
     11 C11        -0.1240    3.4280    2.8390 c2        1 TAB     -0.123000
     12 N17        -0.9670    2.1880    4.8210 n2        1 TAB     -0.257000
     13 C14        -1.1140    1.0480    5.5600 c1        1 TAB      0.189000
     14 N22        -1.7840    1.0960    6.8210 n2        1 TAB     -0.327000
     15 N15        -0.5610   -0.1290    5.1230 n2        1 TAB     -0.298000
     16 C15         0.1250   -0.1630    3.9680 c1        1 TAB      0.201000
     17 N20         0.6980   -1.3800    3.5180 n3        1 TAB     -0.335000
     18 N18         0.5570   -1.0020   -2.3070 n3        1 TAB     -0.292000
     19 C19         1.4440   -1.5880   -3.3060 c3        1 TAB      0.025000
     20 C20        -0.7670    4.6020    3.5780 c3        1 TAB     -0.200000
     21 C21         0.1500   -1.7820   -1.1570 c3        1 TAB     -0.099000
     22 C22        -1.3410   -2.1130   -1.2650 c3        1 TAB     -0.045000
     23 O23        -1.7100   -2.9890   -0.2060 os        1 TAB     -0.296000
     24 C24        -3.0800   -3.3650   -0.2180 c2        1 TAB      0.306000
     25 C25        -3.7890   -3.6990    1.0890 c3        1 TAB     -0.221000
     26 O26        -3.6680   -3.4780   -1.2740 o         1 TAB     -0.346000
     27 C27         1.2580   -0.8560   -4.6560 c2        1 TAB     -0.081000
     28 C28         0.3860   -1.3670   -5.6080 c2        1 TAB     -0.114000
     29 C29         2.0060    0.2800   -4.9380 c1        1 TAB     -0.101000
     30 C30         1.8810    0.9050   -6.1730 c1        1 TAB     -0.127000
     31 C31         1.0080    0.3950   -7.1260 c1        1 TAB     -0.127000
     32 C32         0.2610   -0.7400   -6.8450 c1        1 TAB     -0.132000
     33 N65        -0.0080    0.2450   -2.5300 n2        1 TAB      0.124000
     34 H3'1        3.9780    0.8620    0.6680 ha        1 TAB      0.151000
     35 H4'1        2.8530    0.8920    2.7560 ha        1 TAB      0.147000
     36 H6'1       -0.7570    0.9650    0.8120 ha        1 TAB      0.149000
     37 H111        0.8270    3.6110    2.7010 ha        1 TAB      0.102500
     38 H112       -0.5610    3.3100    1.9720 ha        1 TAB      0.102500
     39 HN21       -2.0360    0.3190    7.2360 hn        1 TAB      0.223000
     40 HN22       -1.9150    1.9000    7.2390 hn        1 TAB      0.223000
     41 HN11        0.5860   -2.1470    4.0060 hn        1 TAB      0.219000
     42 HN12        1.1830   -1.3960    2.7460 hn        1 TAB      0.219000
     43 H191        1.2280   -2.5390   -3.4180 h1        1 TAB      0.090000
     44 H192        2.3730   -1.4980   -3.0110 h1        1 TAB      0.090000
     45 H201       -0.2560    4.7930    4.3940 hc        1 TAB      0.079667
     46 H202       -1.6910    4.3720    3.8170 hc        1 TAB      0.079667
     47 H203       -0.7660    5.3940    2.9980 hc        1 TAB      0.079667
     48 H211        0.6670   -2.6140   -1.1280 h1        1 TAB      0.119000
     49 H212        0.3120   -1.2680   -0.3400 h1        1 TAB      0.119000
     50 H221       -1.8640   -1.2880   -1.2040 h1        1 TAB      0.109500
     51 H222       -1.5180   -2.5480   -2.1260 h1        1 TAB      0.109500
     52 H251       -3.4440   -4.5460    1.4420 hc        1 TAB      0.120333
     53 H252       -4.7550   -3.7820    0.9270 hc        1 TAB      0.120333
     54 H253       -3.6270   -2.9830    1.7400 hc        1 TAB      0.120333
     55 H281       -0.1380   -2.1640   -5.4110 ha        1 TAB      0.130000
     56 H291        2.6180    0.6380   -4.2710 ha        1 TAB      0.139000
     57 H301        2.4070    1.7050   -6.3720 ha        1 TAB      0.131500
     58 H311        0.9200    0.8360   -7.9960 ha        1 TAB      0.131500
     59 H321       -0.3520   -1.0990   -7.5150 ha        1 TAB      0.131000
@<TRIPOS>BOND
     1    1    6 1   
     2    1    8 1   
     3    2    3 1   
     4    2    7 1   
     5    3   34 1   
     6    4    5 1   
     7    4   35 1   
     8    6   36 1   
     9    8   33 1   
    10    9   10 1   
    11   10   12 1   
    12   11   20 1   
    13   11   37 1   
    14   11   38 1   
    15   12   13 1   
    16   13   15 1   
    17   14   39 1   
    18   14   40 1   
    19   15   16 1   
    20   16   17 1   
    21   17   41 1   
    22   17   42 1   
    23   18   19 1   
    24   18   21 1   
    25   18   33 1   
    26   19   27 1   
    27   19   43 1   
    28   19   44 1   
    29   20   45 1   
    30   20   46 1   
    31   20   47 1   
    32   21   22 1   
    33   21   48 1   
    34   21   49 1   
    35   22   23 1   
    36   22   50 1   
    37   22   51 1   
    38   23   24 1   
    39   24   25 1   
    40   24   26 1   
    41   25   52 1   
    42   25   53 1   
    43   25   54 1   
    44   27   28 1   
    45   27   29 1   
    46   28   32 1   
    47   28   55 1   
    48   29   56 1   
    49   30   31 1   
    50   30   57 1   
    51   31   58 1   
    52   32   59 1   
@<TRIPOS>SUBSTRUCTURE
     1 TAB         1 TEMP              0 ****  ****    0 ROOT
