@<TRIPOS>MOLECULE
TAB
   59    61     1     0     0
SMALL
bcc


@<TRIPOS>ATOM
      1 C1'         0.4520   -1.3950   -0.6080 ca        1 TAB      0.151400
      2 C2'         1.0640   -2.6320   -0.9190 ca        1 TAB      0.031400
      3 C3'         1.2140   -3.0280   -2.2500 ca        1 TAB     -0.128000
      4 C4'         0.7590   -2.2150   -3.2830 ca        1 TAB     -0.121000
      5 C5'         0.1430   -0.9880   -2.9990 cp        1 TAB     -0.009000
      6 C6'        -0.0110   -0.5890   -1.6670 ca        1 TAB     -0.128000
      7 CL8         1.6240   -3.6710    0.3040 cl        1 TAB     -0.078400
      8 N8'         0.4220   -0.9860    0.7610 ne        1 TAB     -0.336400
      9 C9'        -0.3530   -0.1440   -4.0800 cp        1 TAB     -0.401600
     10 C10         0.4980    0.5150   -4.9940 ca        1 TAB      0.528600
     11 C11         1.9960    0.4160   -4.8470 c3        1 TAB     -0.139700
     12 N17         0.0310    1.2600   -6.0190 nb        1 TAB     -0.789000
     13 C14        -1.3470    1.3450   -6.1540 ca        1 TAB      0.904900
     14 N22        -1.8450    2.0020   -7.2860 nh        1 TAB     -0.927500
     15 N15        -2.2730    0.7830   -5.2940 nb        1 TAB     -0.824000
     16 C15        -1.7710    0.0520   -4.2520 ca        1 TAB      0.727200
     17 N20        -2.6610   -0.4560   -3.3200 nh        1 TAB     -0.950500
     18 N18        -0.6750   -0.0530    2.4630 nh        1 TAB     -0.479700
     19 C19         0.3720   -0.2010    3.4760 c3        1 TAB      0.234100
     20 C20         2.6080    1.7430   -4.4710 c3        1 TAB     -0.086100
     21 C21        -1.7520    0.8760    2.8120 c3        1 TAB      0.224800
     22 C22        -2.9130    0.2020    3.5510 c3        1 TAB      0.121400
     23 O23        -2.4690   -0.0140    4.9000 os        1 TAB     -0.452900
     24 C24        -3.3680   -0.5960    5.7550 c         1 TAB      0.633100
     25 C25        -2.8170   -0.8110    7.1210 c3        1 TAB     -0.150100
     26 O26        -4.4900   -0.8640    5.3230 o         1 TAB     -0.539000
     27 C27         1.4010    0.8910    3.4930 ca        1 TAB     -0.120300
     28 C28         1.2320    2.0000    4.3290 ca        1 TAB     -0.113500
     29 C29         2.5470    0.7940    2.6970 ca        1 TAB     -0.113500
     30 C30         3.5110    1.8010    2.7340 ca        1 TAB     -0.135000
     31 C31         3.3380    2.9070    3.5660 ca        1 TAB     -0.122000
     32 C32         2.1980    3.0040    4.3650 ca        1 TAB     -0.135000
     33 N65        -0.5860   -0.3840    1.1790 n2        1 TAB     -0.021700
     34 H3'1        1.6930   -3.9920   -2.4830 ha        1 TAB      0.149000
     35 H4'1        0.8820   -2.5360   -4.3290 ha        1 TAB      0.144000
     36 H6'1       -0.4930    0.3790   -1.4550 ha        1 TAB      0.156000
     37 H111        2.4380    0.0580   -5.8160 hc        1 TAB      0.061200
     38 H112        2.2430   -0.3480   -4.0630 hc        1 TAB      0.061200
     39 HN21       -2.7940    2.2910   -7.2510 hn        1 TAB      0.425300
     40 HN22       -1.2160    2.6130   -7.7530 hn        1 TAB      0.425300
     41 HN11       -3.6270   -0.4790   -3.5490 hn        1 TAB      0.429300
     42 HN12       -2.3200   -1.1730   -2.7240 hn        1 TAB      0.429300
     43 H191       -0.1600   -0.2320    4.4720 h1        1 TAB      0.078200
     44 H192        0.8890   -1.1940    3.3300 h1        1 TAB      0.078200
     45 H201        3.7090    1.6190   -4.3230 hc        1 TAB      0.040700
     46 H202        2.4410    2.5010   -5.2730 hc        1 TAB      0.040700
     47 H203        2.1650    2.1290   -3.5220 hc        1 TAB      0.040700
     48 H211       -1.3180    1.6850    3.4660 h1        1 TAB      0.071200
     49 H212       -2.1880    1.3590    1.8910 h1        1 TAB      0.071200
     50 H221       -3.8000    0.8890    3.5690 h1        1 TAB      0.065700
     51 H222       -3.2090   -0.7790    3.1000 h1        1 TAB      0.065700
     52 H251       -3.4370   -0.2410    7.8550 hc        1 TAB      0.077033
     53 H252       -2.8730   -1.9010    7.3640 hc        1 TAB      0.077033
     54 H253       -1.7560   -0.4690    7.1840 hc        1 TAB      0.077033
     55 H281        0.3390    2.0760    4.9670 ha        1 TAB      0.141500
     56 H291        2.6890   -0.0790    2.0410 ha        1 TAB      0.141500
     57 H301        4.4100    1.7210    2.1050 ha        1 TAB      0.132500
     58 H311        4.0990    3.7010    3.5940 ha        1 TAB      0.131000
     59 H321        2.0610    3.8730    5.0250 ha        1 TAB      0.132500
@<TRIPOS>BOND
     1    1    2 ar  
     2    1    6 ar  
     3    1    8 1   
     4    2    3 ar  
     5    2    7 1   
     6    3    4 ar  
     7    3   34 1   
     8    4    5 ar  
     9    4   35 1   
    10    5    6 ar  
    11    5    9 1   
    12    6   36 1   
    13    8   33 2   
    14    9   10 ar  
    15    9   16 ar  
    16   10   11 1   
    17   10   12 ar  
    18   11   20 1   
    19   11   37 1   
    20   11   38 1   
    21   12   13 ar  
    22   13   14 1   
    23   13   15 ar  
    24   14   39 1   
    25   14   40 1   
    26   15   16 ar  
    27   16   17 1   
    28   17   41 1   
    29   17   42 1   
    30   18   19 1   
    31   18   21 1   
    32   18   33 1   
    33   19   27 1   
    34   19   43 1   
    35   19   44 1   
    36   20   45 1   
    37   20   46 1   
    38   20   47 1   
    39   21   22 1   
    40   21   48 1   
    41   21   49 1   
    42   22   23 1   
    43   22   50 1   
    44   22   51 1   
    45   23   24 1   
    46   24   25 1   
    47   24   26 2   
    48   25   52 1   
    49   25   53 1   
    50   25   54 1   
    51   27   28 ar  
    52   27   29 ar  
    53   28   32 ar  
    54   28   55 1   
    55   29   30 ar  
    56   29   56 1   
    57   30   31 ar  
    58   30   57 1   
    59   31   32 ar  
    60   31   58 1   
    61   32   59 1   
@<TRIPOS>SUBSTRUCTURE
     1 TAB         1 TEMP              0 ****  ****    0 ROOT
