@<TRIPOS>MOLECULE
TAB
   60    62     1     0     0
SMALL
bcc


@<TRIPOS>ATOM
      1 C1'        -0.8750    0.8900    0.3400 ca        1 TAB      0.062400
      2 C2'         0.2910    1.7040    0.3120 ca        1 TAB      0.083400
      3 C3'         1.0420    1.8680    1.4780 ca        1 TAB     -0.142000
      4 C4'         0.6600    1.2420    2.6630 ca        1 TAB     -0.051000
      5 C5'        -0.4860    0.4330    2.7100 cp        1 TAB      0.006000
      6 C6'        -1.2490    0.2630    1.5500 ca        1 TAB     -0.065000
      7 CL8         0.7940    2.4870   -1.1010 cl        1 TAB     -0.038400
      8 N8'        -1.5870    0.7570   -0.8740 ne        1 TAB     -0.177400
      9 C9'        -0.8960   -0.2190    3.9440 cp        1 TAB     -0.448600
     10 C10        -0.1600   -1.2750    4.5400 ca        1 TAB      0.544600
     11 C11         1.1230   -1.7600    3.9130 c3        1 TAB     -0.140700
     12 N17        -0.5570   -1.8890    5.6670 nb        1 TAB     -0.782000
     13 C14        -1.7500   -1.4490    6.2430 ca        1 TAB      0.942900
     14 N22        -2.1940   -2.1050    7.3720 nh        1 TAB     -0.942500
     15 N15        -2.5330   -0.4110    5.7560 nb        1 TAB     -0.820000
     16 C15        -2.1120    0.1800    4.6030 ca        1 TAB      0.722200
     17 N20        -2.9240    1.1610    4.0260 nh        1 TAB     -0.933500
     18 N18        -3.2330    0.0480   -2.3140 n4        1 TAB     -0.429500
     19 C19        -2.3330   -0.2210   -3.5060 c3        1 TAB      0.169100
     20 C20         1.0120   -3.1880    3.4380 c3        1 TAB     -0.088100
     21 C21        -4.1560    1.2060   -2.6050 c3        1 TAB      0.107800
     22 C22        -3.4740    2.5060   -3.0160 c3        1 TAB      0.114400
     23 O23        -3.0230    2.3310   -4.3610 os        1 TAB     -0.485900
     24 C24        -2.8680    3.4770   -5.1240 c         1 TAB      0.643100
     25 C25        -2.4100    3.1880   -6.5070 c3        1 TAB     -0.150100
     26 O26        -3.1170    4.5460   -4.5760 o         1 TAB     -0.505000
     27 C27        -1.6950   -1.5630   -3.4230 ca        1 TAB     -0.169300
     28 C28        -2.4570   -2.7140   -3.6640 ca        1 TAB     -0.104000
     29 C29        -0.3280   -1.6760   -3.1500 ca        1 TAB     -0.104000
     30 C30         0.2720   -2.9350   -3.1190 ca        1 TAB     -0.120000
     31 C31        -0.4890   -4.0800   -3.3540 ca        1 TAB     -0.086000
     32 C32        -1.8540   -3.9690   -3.6270 ca        1 TAB     -0.120000
     33 N65        -2.6130    0.0990   -1.0000 n2        1 TAB     -0.102700
     34 H3'1        1.9460    2.5010    1.4610 ha        1 TAB      0.174000
     35 H4'1        1.2650    1.3820    3.5750 ha        1 TAB      0.169000
     36 H6'1       -2.1510   -0.3720    1.6040 ha        1 TAB      0.172000
     37 H111        1.3940   -1.0970    3.0500 hc        1 TAB      0.058700
     38 H112        1.9510   -1.6800    4.6690 hc        1 TAB      0.058700
     39 HN21       -2.9850   -1.7620    7.8590 hn        1 TAB      0.454800
     40 HN22       -1.6090   -2.7780    7.8050 hn        1 TAB      0.454800
     41 HN11       -2.4260    1.8620    3.5260 hn        1 TAB      0.413800
     42 HN12       -3.6690    1.5090    4.5920 hn        1 TAB      0.413800
     43 H191       -2.9900   -0.1500   -4.4230 hx        1 TAB      0.113700
     44 H192       -1.5670    0.6040   -3.5700 hx        1 TAB      0.113700
     45 H201        0.1730   -3.3010    2.7100 hc        1 TAB      0.045033
     46 H202        1.9620   -3.4910    2.9340 hc        1 TAB      0.045033
     47 H203        0.8310   -3.8810    4.2950 hc        1 TAB      0.045033
     48 H211       -4.7770    1.4040   -1.6830 hx        1 TAB      0.109200
     49 H212       -4.8370    0.8680   -3.4400 hx        1 TAB      0.109200
     50 H221       -4.2310    3.3390   -2.9620 h1        1 TAB      0.094700
     51 H222       -2.5920    2.7720   -2.3790 h1        1 TAB      0.094700
     52 H251       -3.1780    3.5710   -7.2270 hc        1 TAB      0.089033
     53 H252       -2.2620    2.0940   -6.6680 hc        1 TAB      0.089033
     54 H253       -1.4460    3.7270   -6.6880 hc        1 TAB      0.089033
     55 H281       -3.5290   -2.6300   -3.9010 ha        1 TAB      0.136500
     56 H291        0.2780   -0.7750   -2.9690 ha        1 TAB      0.136500
     57 H301        1.3500   -3.0220   -2.9110 ha        1 TAB      0.154500
     58 H311       -0.0130   -5.0740   -3.3300 ha        1 TAB      0.156000
     59 H321       -2.4540   -4.8730   -3.8190 ha        1 TAB      0.154500
     60 H181       -3.8330   -0.7920   -2.1980 hn        1 TAB      0.465800
@<TRIPOS>BOND
     1    1    2 ar  
     2    1    6 ar  
     3    1    8 1   
     4    2    3 ar  
     5    2    7 1   
     6    3    4 ar  
     7    3   34 1   
     8    4    5 ar  
     9    4   35 1   
    10    5    6 ar  
    11    5    9 1   
    12    6   36 1   
    13    8   33 2   
    14    9   10 ar  
    15    9   16 ar  
    16   10   11 1   
    17   10   12 ar  
    18   11   20 1   
    19   11   37 1   
    20   11   38 1   
    21   12   13 ar  
    22   13   14 1   
    23   13   15 ar  
    24   14   39 1   
    25   14   40 1   
    26   15   16 ar  
    27   16   17 1   
    28   17   41 1   
    29   17   42 1   
    30   18   19 1   
    31   18   21 1   
    32   18   33 1   
    33   18   60 1   
    34   19   27 1   
    35   19   43 1   
    36   19   44 1   
    37   20   45 1   
    38   20   46 1   
    39   20   47 1   
    40   21   22 1   
    41   21   48 1   
    42   21   49 1   
    43   22   23 1   
    44   22   50 1   
    45   22   51 1   
    46   23   24 1   
    47   24   25 1   
    48   24   26 2   
    49   25   52 1   
    50   25   53 1   
    51   25   54 1   
    52   27   28 ar  
    53   27   29 ar  
    54   28   32 ar  
    55   28   55 1   
    56   29   30 ar  
    57   29   56 1   
    58   30   31 ar  
    59   30   57 1   
    60   31   32 ar  
    61   31   58 1   
    62   32   59 1   
@<TRIPOS>SUBSTRUCTURE
     1 TAB         1 TEMP              0 ****  ****    0 ROOT
