@<TRIPOS>MOLECULE
TAB
   60    62     1     0     0
SMALL
bcc


@<TRIPOS>ATOM
      1 C1'        -0.8880    0.9020    0.3470 ca        1 TAB      0.062400
      2 C2'         0.2690    1.7290    0.3260 ca        1 TAB      0.083400
      3 C3'         1.0150    1.8940    1.4940 ca        1 TAB     -0.142000
      4 C4'         0.6380    1.2580    2.6740 ca        1 TAB     -0.051000
      5 C5'        -0.4990    0.4360    2.7150 cp        1 TAB      0.006000
      6 C6'        -1.2580    0.2650    1.5530 ca        1 TAB     -0.065000
      7 Cl8         0.7660    2.5240   -1.0820 cl        1 TAB     -0.038400
      8 N8'        -1.5960    0.7670   -0.8690 ne        1 TAB     -0.177400
      9 C9'        -0.9050   -0.2270    3.9450 cp        1 TAB     -0.448600
     10 C10        -0.1580   -1.2780    4.5360 ca        1 TAB      0.544600
     11 C11         1.1310   -1.7460    3.9080 c3        1 TAB     -0.140700
     12 N17        -0.5510   -1.9030    5.6590 nb        1 TAB     -0.782000
     13 C14        -1.7490   -1.4790    6.2350 ca        1 TAB      0.942900
     14 N22        -2.1880   -2.1460    7.3600 nv        1 TAB     -0.942500
     15 N15        -2.5420   -0.4470    5.7530 nb        1 TAB     -0.820000
     16 C15        -2.1250    0.1560    4.6040 ca        1 TAB      0.722200
     17 N20        -2.9470    1.1310    4.0310 nv        1 TAB     -0.933500
     18 N18        -3.2330    0.0500   -2.3160 nx        1 TAB     -0.429500
     19 C19        -2.3280   -0.2190   -3.5050 c3        1 TAB      0.169100
     20 C20         1.0360   -3.1730    3.4250 c3        1 TAB     -0.088100
     21 C21        -4.1560    1.2070   -2.6110 c3        1 TAB      0.107800
     22 C22        -3.4740    2.5070   -3.0230 c3        1 TAB      0.114400
     23 O23        -3.0210    2.3300   -4.3670 os        1 TAB     -0.485900
     24 C24        -2.8620    3.4740   -5.1310 c         1 TAB      0.643100
     25 C25        -2.4030    3.1840   -6.5130 c3        1 TAB     -0.150100
     26 O26        -3.1110    4.5450   -4.5840 o         1 TAB     -0.505000
     27 C27        -1.6890   -1.5600   -3.4190 ca        1 TAB     -0.169300
     28 C28        -2.4490   -2.7120   -3.6610 ca        1 TAB     -0.104000
     29 C29        -0.3220   -1.6720   -3.1410 ca        1 TAB     -0.104000
     30 C30         0.2790   -2.9300   -3.1070 ca        1 TAB     -0.120000
     31 C31        -0.4800   -4.0760   -3.3440 ca        1 TAB     -0.086000
     32 C32        -1.8450   -3.9660   -3.6210 ca        1 TAB     -0.120000
     33 N65        -2.6170    0.1020   -1.0000 n2        1 TAB     -0.102700
     34 H3'1        1.9120    2.5370    1.4820 ha        1 TAB      0.174000
     35 H4'1        1.2400    1.3990    3.5890 ha        1 TAB      0.169000
     36 H6'1       -2.1530   -0.3800    1.6020 ha        1 TAB      0.172000
     37 H111        1.9570   -1.6620    4.6670 hc        1 TAB      0.058700
     38 H112        1.3970   -1.0760    3.0500 hc        1 TAB      0.058700
     39 HN21       -2.9830   -1.8140    7.8470 hn        1 TAB      0.454800
     40 HN22       -1.5970   -2.8160    7.7900 hn        1 TAB      0.454800
     41 HN11       -2.4560    1.8400    3.5350 hn        1 TAB      0.413800
     42 HN12       -3.6960    1.4680    4.5980 hn        1 TAB      0.413800
     43 H191       -2.9810   -0.1490   -4.4230 hx        1 TAB      0.113700
     44 H192       -1.5620    0.6080   -3.5660 hx        1 TAB      0.113700
     45 H201        0.1990   -3.2910    2.6950 hc        1 TAB      0.045033
     46 H202        0.8610   -3.8720    4.2780 hc        1 TAB      0.045033
     47 H203        1.9900   -3.4620    2.9210 hc        1 TAB      0.045033
     48 H211       -4.7790    1.4060   -1.6920 hx        1 TAB      0.109200
     49 H212       -4.8340    0.8670   -3.4470 hx        1 TAB      0.109200
     50 H221       -2.5930    2.7750   -2.3850 h1        1 TAB      0.094700
     51 H222       -4.2320    3.3390   -2.9720 h1        1 TAB      0.094700
     52 H251       -3.1680    3.5690   -7.2340 hc        1 TAB      0.089033
     53 H252       -2.2580    2.0890   -6.6740 hc        1 TAB      0.089033
     54 H253       -1.4370    3.7200   -6.6920 hc        1 TAB      0.089033
     55 H281       -3.5200   -2.6290   -3.9010 ha        1 TAB      0.136500
     56 H291        0.2820   -0.7690   -2.9590 ha        1 TAB      0.136500
     57 H301        1.3570   -3.0160   -2.8960 ha        1 TAB      0.154500
     58 H311       -0.0030   -5.0690   -3.3170 ha        1 TAB      0.156000
     59 H321       -2.4430   -4.8700   -3.8140 ha        1 TAB      0.154500
     60 H181       -3.8320   -0.7900   -2.2010 hn        1 TAB      0.465800
@<TRIPOS>BOND
     1    1    2 ar  
     2    1    6 ar  
     3    1    8 1   
     4    2    3 ar  
     5    2    7 1   
     6    3    4 ar  
     7    3   34 1   
     8    4    5 ar  
     9    4   35 1   
    10    5    6 ar  
    11    5    9 1   
    12    6   36 1   
    13    8   33 2   
    14    9   10 ar  
    15    9   16 ar  
    16   10   11 1   
    17   10   12 ar  
    18   11   20 1   
    19   11   37 1   
    20   11   38 1   
    21   12   13 ar  
    22   13   14 1   
    23   13   15 ar  
    24   14   39 1   
    25   14   40 1   
    26   15   16 ar  
    27   16   17 1   
    28   17   41 1   
    29   17   42 1   
    30   18   19 1   
    31   18   21 1   
    32   18   33 1   
    33   18   60 1   
    34   19   27 1   
    35   19   43 1   
    36   19   44 1   
    37   20   45 1   
    38   20   46 1   
    39   20   47 1   
    40   21   22 1   
    41   21   48 1   
    42   21   49 1   
    43   22   23 1   
    44   22   50 1   
    45   22   51 1   
    46   23   24 1   
    47   24   25 1   
    48   24   26 2   
    49   25   52 1   
    50   25   53 1   
    51   25   54 1   
    52   27   28 ar  
    53   27   29 ar  
    54   28   32 ar  
    55   28   55 1   
    56   29   30 ar  
    57   29   56 1   
    58   30   31 ar  
    59   30   57 1   
    60   31   32 ar  
    61   31   58 1   
    62   32   59 1   
@<TRIPOS>SUBSTRUCTURE
     1 TAB         1 TEMP              0 ****  ****    0 ROOT
