@<TRIPOS>MOLECULE
TAC
   56    59     1     0     0
SMALL
bcc


@<TRIPOS>ATOM
      1 C1         20.1690   33.9370   34.1640 c         1 TAC      0.624300
      2 O1         19.8810   34.1740   32.9840 o         1 TAC     -0.542100
      3 C2         19.3830   33.0830   35.0410 ce        1 TAC     -0.330400
      4 C21        18.1990   32.3760   34.4610 c         1 TAC      0.684300
      5 O21        17.9940   31.1640   34.6700 o         1 TAC     -0.597100
      6 N21        17.3050   33.1230   33.7250 n         1 TAC     -0.644000
      7 C3         19.7360   32.8640   36.3390 c2        1 TAC      0.233900
      8 O3         18.9370   32.0650   37.0980 oh        1 TAC     -0.452100
      9 C4         20.9160   33.5130   37.0410 c3        1 TAC      0.189700
     10 N4         21.8780   32.5040   37.4680 n3        1 TAC     -0.758600
     11 C42        22.8410   32.9870   38.4310 c3        1 TAC      0.158100
     12 C43        22.4720   31.6910   36.4320 c3        1 TAC      0.158100
     13 C41        21.4380   34.7330   36.2530 c3        1 TAC     -0.103700
     14 C5         20.5790   35.9470   36.5820 c3        1 TAC     -0.078400
     15 C51        21.1710   37.2370   36.0270 c3        1 TAC      0.014500
     16 C6         20.1540   38.3970   36.1640 c3        1 TAC      0.208100
     17 C62        20.2110   38.9130   37.6080 c3        1 TAC     -0.121100
     18 O6         18.8590   37.8400   35.9240 oh        1 TAC     -0.594800
     19 C61        20.3930   39.5530   35.2140 ca        1 TAC     -0.031300
     20 C7         19.6000   40.6900   35.3760 ca        1 TAC     -0.192000
     21 C8         19.7610   41.8020   34.5460 ca        1 TAC     -0.066000
     22 C9         20.7150   41.7930   33.5450 ca        1 TAC     -0.175000
     23 C10        21.5200   40.6460   33.3640 ca        1 TAC      0.205100
     24 O10        22.4210   40.7640   32.3460 oh        1 TAC     -0.501100
     25 C1A        21.3560   39.5100   34.1870 ca        1 TAC     -0.232600
     26 C11        22.1490   38.2900   33.9660 c         1 TAC      0.612900
     27 O11        23.1750   38.2850   33.2660 o         1 TAC     -0.552100
     28 C1B        21.6730   37.0690   34.6380 ce        1 TAC     -0.236400
     29 C12        21.7770   35.8530   34.0500 c2        1 TAC      0.117900
     30 O12        22.2750   35.7520   32.7780 oh        1 TAC     -0.474100
     31 C1C        21.4680   34.5330   34.7350 c3        1 TAC      0.071000
     32 O1C        22.4780   33.5980   34.3540 oh        1 TAC     -0.581800
     33 HN21       17.5960   33.9940   33.3530 hn        1 TAC      0.308500
     34 HN22       16.5950   32.6330   33.2350 hn        1 TAC      0.308500
     35 HO3        19.4040   31.8280   37.9170 ho        1 TAC      0.447000
     36 H4         20.4900   33.9310   38.0140 h1        1 TAC      0.076700
     37 H421       23.3800   32.0990   38.8560 h1        1 TAC      0.042700
     38 H422       23.6050   33.6850   37.9890 h1        1 TAC      0.042700
     39 H423       22.3100   33.5200   39.2620 h1        1 TAC      0.042700
     40 H431       22.7640   30.7110   36.8960 h1        1 TAC      0.042700
     41 H432       21.7310   31.5050   35.6110 h1        1 TAC      0.042700
     42 H433       23.3890   32.1580   35.9780 h1        1 TAC      0.042700
     43 H41        22.4960   34.9420   36.5840 hc        1 TAC      0.070700
     44 H51A       19.5490   35.7830   36.1640 hc        1 TAC      0.069700
     45 H52        20.4790   36.0510   37.6940 hc        1 TAC      0.069700
     46 H51        22.0630   37.5200   36.6630 hc        1 TAC      0.060700
     47 H621       19.3430   39.5810   37.8200 hc        1 TAC      0.047367
     48 H622       20.1660   38.0560   38.3210 hc        1 TAC      0.047367
     49 H623       21.1560   39.4810   37.7760 hc        1 TAC      0.047367
     50 HO6        18.2420   38.5750   35.8150 ho        1 TAC      0.410000
     51 H7         18.8370   40.7260   36.1680 ha        1 TAC      0.133000
     52 H8         19.1250   42.6890   34.6930 ha        1 TAC      0.140000
     53 H9         20.8660   42.6570   32.8810 ha        1 TAC      0.158000
     54 HO1        22.9300   39.9430   32.2350 ho        1 TAC      0.463000
     55 HO2        21.9770   34.9010   32.4080 ho        1 TAC      0.450000
     56 HOC        23.3340   34.0220   34.5040 ho        1 TAC      0.422000
@<TRIPOS>BOND
     1    1    2 2   
     2    1    3 1   
     3    1   31 1   
     4    3    4 1   
     5    3    7 2   
     6    4    5 2   
     7    4    6 1   
     8    6   33 1   
     9    6   34 1   
    10    7    8 1   
    11    7    9 1   
    12    8   35 1   
    13    9   10 1   
    14    9   13 1   
    15    9   36 1   
    16   10   11 1   
    17   10   12 1   
    18   11   37 1   
    19   11   38 1   
    20   11   39 1   
    21   12   40 1   
    22   12   41 1   
    23   12   42 1   
    24   13   14 1   
    25   13   31 1   
    26   13   43 1   
    27   14   15 1   
    28   14   44 1   
    29   14   45 1   
    30   15   16 1   
    31   15   28 1   
    32   15   46 1   
    33   16   17 1   
    34   16   18 1   
    35   16   19 1   
    36   17   47 1   
    37   17   48 1   
    38   17   49 1   
    39   18   50 1   
    40   19   20 ar  
    41   19   25 ar  
    42   20   21 ar  
    43   20   51 1   
    44   21   22 ar  
    45   21   52 1   
    46   22   23 ar  
    47   22   53 1   
    48   23   24 1   
    49   23   25 ar  
    50   24   54 1   
    51   25   26 1   
    52   26   27 2   
    53   26   28 1   
    54   28   29 2   
    55   29   30 1   
    56   29   31 1   
    57   30   55 1   
    58   31   32 1   
    59   32   56 1   
@<TRIPOS>SUBSTRUCTURE
     1 TAC         1 TEMP              0 ****  ****    0 ROOT
