@<TRIPOS>MOLECULE
TAC
   58    61     1     0     0
SMALL
bcc


@<TRIPOS>ATOM
      1 C1         -0.0690    0.1300    0.1470 c         1 TAC      0.590300
      2 O1         -0.7750    0.1240   -0.8620 o         1 TAC     -0.502100
      3 C2          1.4000   -0.0400    0.0760 ce        1 TAC     -0.389400
      4 C21         2.0880    0.0230   -1.2120 c         1 TAC      0.578300
      5 O21         3.3060    0.0740   -1.3870 o         1 TAC     -0.463100
      6 N21         1.2840    0.0060   -2.4740 n4        1 TAC     -0.729400
      7 C3          2.1260   -0.2190    1.2310 c2        1 TAC      0.281900
      8 O3          3.4670   -0.2390    1.3450 oh        1 TAC     -0.487100
      9 C4          1.5070   -0.5680    2.5870 c3        1 TAC      0.166700
     10 N4          2.1270    0.2310    3.7160 n4        1 TAC     -0.675400
     11 C42         1.9070   -0.4490    5.0250 c3        1 TAC      0.081600
     12 C43         1.6830    1.6480    3.7860 c3        1 TAC      0.081600
     13 C41        -0.0320   -0.5820    2.5680 c3        1 TAC     -0.077700
     14 C5         -0.5120   -1.9980    2.2650 c3        1 TAC     -0.086400
     15 C51        -2.0300   -2.1370    2.3420 c3        1 TAC      0.004500
     16 C6         -2.4820   -3.4070    1.5740 c3        1 TAC      0.214100
     17 C62        -1.9090   -4.6440    2.2720 c3        1 TAC     -0.125100
     18 O6         -1.9160   -3.3140    0.2630 oh        1 TAC     -0.623800
     19 C61        -3.9900   -3.5020    1.5010 ca        1 TAC     -0.053300
     20 C7         -4.5760   -4.7350    1.2220 ca        1 TAC     -0.175000
     21 C8         -5.9690   -4.8750    1.1810 ca        1 TAC     -0.037000
     22 C9         -6.7910   -3.7860    1.4130 ca        1 TAC     -0.209000
     23 C10        -6.2100   -2.5280    1.6680 ca        1 TAC      0.206100
     24 O10        -6.9630   -1.4120    1.8880 oh        1 TAC     -0.453100
     25 C1A        -4.8040   -2.3690    1.6970 ca        1 TAC     -0.200600
     26 C11        -4.2430   -1.0300    1.8740 c         1 TAC      0.603900
     27 O11        -4.9350   -0.0070    1.9850 o         1 TAC     -0.520100
     28 C1B        -2.7610   -0.9230    1.8860 ce        1 TAC     -0.233400
     29 C12        -2.1410    0.2300    1.5520 c2        1 TAC      0.102900
     30 O12        -2.7170    1.4110    1.1810 oh        1 TAC     -0.522100
     31 C1C        -0.6330    0.3940    1.5460 c3        1 TAC      0.147000
     32 O1C        -0.2300    1.7020    1.9200 oh        1 TAC     -0.625800
     33 HN21        1.9080   -0.0040   -3.2930 hn        1 TAC      0.492133
     34 HN22        0.6710    0.8370   -2.5090 hn        1 TAC      0.492133
     35 HO3         3.9490   -0.0680    0.5070 ho        1 TAC      0.514000
     36 H4          1.8550   -1.6430    2.7730 hx        1 TAC      0.140700
     37 H421        0.8120   -0.4780    5.2680 hx        1 TAC      0.116700
     38 H422        2.3170   -1.4950    4.9840 hx        1 TAC      0.116700
     39 H423        2.4460    0.1310    5.8250 hx        1 TAC      0.116700
     40 H431        1.8470    2.1410    2.7900 hx        1 TAC      0.116700
     41 H432        2.2800    2.1750    4.5800 hx        1 TAC      0.116700
     42 H433        0.5880    1.7000    4.0400 hx        1 TAC      0.116700
     43 H41        -0.4330   -0.2790    3.5790 hc        1 TAC      0.110700
     44 H51A       -0.1610   -2.3000    1.2420 hc        1 TAC      0.071200
     45 H52        -0.0540   -2.7030    3.0090 hc        1 TAC      0.071200
     46 H51        -2.3190   -2.3060    3.4230 hc        1 TAC      0.087700
     47 H621       -2.4330   -4.8150    3.2420 hc        1 TAC      0.055033
     48 H622       -2.0350   -5.5470    1.6270 hc        1 TAC      0.055033
     49 H623       -0.8170   -4.5230    2.4570 hc        1 TAC      0.055033
     50 HO6        -2.3960   -3.9400   -0.2960 ho        1 TAC      0.430000
     51 H7         -3.9550   -5.6240    1.0360 ha        1 TAC      0.146000
     52 H8         -6.4090   -5.8640    0.9660 ha        1 TAC      0.162000
     53 H9         -7.8870   -3.8910    1.3940 ha        1 TAC      0.164000
     54 HO1        -7.9030   -1.6560    1.8420 ho        1 TAC      0.441000
     55 HO2        -3.6930    1.3460    1.2020 ho        1 TAC      0.500000
     56 HOC        -0.9190    2.3400    1.6660 ho        1 TAC      0.480000
     57 H213        0.6670   -0.8210   -2.4850 hn        1 TAC      0.492133
     58 H411        3.1480    0.2360    3.5390 hn        1 TAC      0.466800
@<TRIPOS>BOND
     1    1    2 2   
     2    1    3 1   
     3    1   31 1   
     4    3    4 1   
     5    3    7 2   
     6    4    5 2   
     7    4    6 1   
     8    6   33 1   
     9    6   34 1   
    10    6   57 1   
    11    7    8 1   
    12    7    9 1   
    13    8   35 1   
    14    9   10 1   
    15    9   13 1   
    16    9   36 1   
    17   10   11 1   
    18   10   12 1   
    19   10   58 1   
    20   11   37 1   
    21   11   38 1   
    22   11   39 1   
    23   12   40 1   
    24   12   41 1   
    25   12   42 1   
    26   13   14 1   
    27   13   31 1   
    28   13   43 1   
    29   14   15 1   
    30   14   44 1   
    31   14   45 1   
    32   15   16 1   
    33   15   28 1   
    34   15   46 1   
    35   16   17 1   
    36   16   18 1   
    37   16   19 1   
    38   17   47 1   
    39   17   48 1   
    40   17   49 1   
    41   18   50 1   
    42   19   20 ar  
    43   19   25 ar  
    44   20   21 ar  
    45   20   51 1   
    46   21   22 ar  
    47   21   52 1   
    48   22   23 ar  
    49   22   53 1   
    50   23   24 1   
    51   23   25 ar  
    52   24   54 1   
    53   25   26 1   
    54   26   27 2   
    55   26   28 1   
    56   28   29 2   
    57   29   30 1   
    58   29   31 1   
    59   30   55 1   
    60   31   32 1   
    61   32   56 1   
@<TRIPOS>SUBSTRUCTURE
     1 TAC         1 TEMP              0 ****  ****    0 ROOT
