@<TRIPOS>MOLECULE
TAC
   58    61     1     0     0
SMALL
bcc


@<TRIPOS>ATOM
      1 C1         -0.0620    0.1250    0.1420 c         1 TAC      0.590300
      2 O1         -0.7650    0.1180   -0.8690 o         1 TAC     -0.502100
      3 C2          1.4060   -0.0450    0.0770 ce        1 TAC     -0.389400
      4 C21         2.1000    0.0150   -1.2080 c         1 TAC      0.578300
      5 O21         3.3180    0.0650   -1.3780 o         1 TAC     -0.463100
      6 N21         1.3000   -0.0040   -2.4730 nz        1 TAC     -0.729400
      7 C3          2.1280   -0.2210    1.2360 c2        1 TAC      0.281900
      8 O3          3.4690   -0.2420    1.3540 oh        1 TAC     -0.487100
      9 C4          1.5040   -0.5670    2.5900 c3        1 TAC      0.166700
     10 N4          2.1200    0.2340    3.7200 nx        1 TAC     -0.675400
     11 C42         1.8950   -0.4430    5.0290 c3        1 TAC      0.081600
     12 C43         1.6760    1.6510    3.7850 c3        1 TAC      0.081600
     13 C41        -0.0350   -0.5810    2.5650 c3        1 TAC     -0.077700
     14 C5         -0.5150   -1.9970    2.2640 c3        1 TAC     -0.086400
     15 C51        -2.0330   -2.1350    2.3350 c3        1 TAC      0.004500
     16 C6         -2.4820   -3.4070    1.5690 c3        1 TAC      0.214100
     17 C62        -1.9130   -4.6430    2.2720 c3        1 TAC     -0.125100
     18 O6         -1.9120   -3.3180    0.2590 oh        1 TAC     -0.623800
     19 C61        -3.9900   -3.5020    1.4910 ca        1 TAC     -0.053300
     20 C7         -4.5750   -4.7350    1.2130 ca        1 TAC     -0.175000
     21 C8         -5.9680   -4.8760    1.1670 ca        1 TAC     -0.037000
     22 C9         -6.7900   -3.7850    1.3930 ca        1 TAC     -0.209000
     23 C10        -6.2100   -2.5270    1.6470 ca        1 TAC      0.206100
     24 O10        -6.9630   -1.4100    1.8620 oh        1 TAC     -0.453100
     25 C1A        -4.8040   -2.3680    1.6810 ca        1 TAC     -0.200600
     26 C11        -4.2430   -1.0290    1.8570 c         1 TAC      0.603900
     27 O11        -4.9360   -0.0050    1.9620 o         1 TAC     -0.520100
     28 C1B        -2.7620   -0.9230    1.8730 ce        1 TAC     -0.233400
     29 C12        -2.1400    0.2300    1.5390 c2        1 TAC      0.102900
     30 O12        -2.7140    1.4100    1.1630 oh        1 TAC     -0.522100
     31 C1C        -0.6320    0.3930    1.5390 c3        1 TAC      0.147000
     32 O1C        -0.2290    1.7020    1.9120 oh        1 TAC     -0.625800
     33 HN21        0.6830   -0.8310   -2.4840 hn        1 TAC      0.492133
     34 HN22        0.6880    0.8270   -2.5120 hn        1 TAC      0.492133
     35 HO3         3.9530   -0.0730    0.5180 ho        1 TAC      0.514000
     36 H4          1.8510   -1.6420    2.7800 hx        1 TAC      0.140700
     37 H421        2.3040   -1.4890    4.9920 hx        1 TAC      0.116700
     38 H422        2.4320    0.1380    5.8300 hx        1 TAC      0.116700
     39 H423        0.7990   -0.4710    5.2680 hx        1 TAC      0.116700
     40 H431        2.2710    2.1790    4.5800 hx        1 TAC      0.116700
     41 H432        1.8440    2.1420    2.7890 hx        1 TAC      0.116700
     42 H433        0.5800    1.7040    4.0350 hx        1 TAC      0.116700
     43 H41        -0.4400   -0.2760    3.5740 hc        1 TAC      0.110700
     44 H51A       -0.1600   -2.3010    1.2420 hc        1 TAC      0.071200
     45 H52        -0.0590   -2.7010    3.0110 hc        1 TAC      0.071200
     46 H51        -2.3260   -2.3020    3.4150 hc        1 TAC      0.087700
     47 H621       -0.8200   -4.5220    2.4600 hc        1 TAC      0.055033
     48 H622       -2.0360   -5.5470    1.6280 hc        1 TAC      0.055033
     49 H623       -2.4390   -4.8110    3.2400 hc        1 TAC      0.055033
     50 HO6        -2.3900   -3.9450   -0.3000 ho        1 TAC      0.430000
     51 H7         -3.9550   -5.6250    1.0320 ha        1 TAC      0.146000
     52 H8         -6.4080   -5.8640    0.9540 ha        1 TAC      0.162000
     53 H9         -7.8860   -3.8900    1.3720 ha        1 TAC      0.164000
     54 HO1        -7.9040   -1.6540    1.8140 ho        1 TAC      0.441000
     55 HO2        -3.6910    1.3450    1.1810 ho        1 TAC      0.500000
     56 HOC        -0.9170    2.3400    1.6530 ho        1 TAC      0.480000
     57 H213        1.9270   -0.0170   -3.2900 hn        1 TAC      0.492133
     58 H411        3.1410    0.2390    3.5470 hn        1 TAC      0.466800
@<TRIPOS>BOND
     1    1    2 2   
     2    1    3 1   
     3    1   31 1   
     4    3    4 1   
     5    3    7 2   
     6    4    5 2   
     7    4    6 1   
     8    6   33 1   
     9    6   34 1   
    10    6   57 1   
    11    7    8 1   
    12    7    9 1   
    13    8   35 1   
    14    9   10 1   
    15    9   13 1   
    16    9   36 1   
    17   10   11 1   
    18   10   12 1   
    19   10   58 1   
    20   11   37 1   
    21   11   38 1   
    22   11   39 1   
    23   12   40 1   
    24   12   41 1   
    25   12   42 1   
    26   13   14 1   
    27   13   31 1   
    28   13   43 1   
    29   14   15 1   
    30   14   44 1   
    31   14   45 1   
    32   15   16 1   
    33   15   28 1   
    34   15   46 1   
    35   16   17 1   
    36   16   18 1   
    37   16   19 1   
    38   17   47 1   
    39   17   48 1   
    40   17   49 1   
    41   18   50 1   
    42   19   20 ar  
    43   19   25 ar  
    44   20   21 ar  
    45   20   51 1   
    46   21   22 ar  
    47   21   52 1   
    48   22   23 ar  
    49   22   53 1   
    50   23   24 1   
    51   23   25 ar  
    52   24   54 1   
    53   25   26 1   
    54   26   27 2   
    55   26   28 1   
    56   28   29 2   
    57   29   30 1   
    58   29   31 1   
    59   30   55 1   
    60   31   32 1   
    61   32   56 1   
@<TRIPOS>SUBSTRUCTURE
     1 TAC         1 TEMP              0 ****  ****    0 ROOT
