@<TRIPOS>MOLECULE
TAC
   58    61     1     0     0
SMALL
bcc


@<TRIPOS>ATOM
      1 C1          1.4060    0.0600   -0.0390 c         1 TAC      0.590300
      2 O1          1.9620   -0.6420   -0.8850 o         1 TAC     -0.502100
      3 C2          2.1640    0.9870    0.8300 ce        1 TAC     -0.389400
      4 C21         3.5680    1.2800    0.5480 c         1 TAC      0.578300
      5 O21         4.2520    2.1570    1.0780 o         1 TAC     -0.463100
      6 N21         4.3010    0.4520   -0.4610 n4        1 TAC     -0.729400
      7 C3          1.5350    1.6080    1.8850 c2        1 TAC      0.281900
      8 O3          2.0420    2.5800    2.6660 oh        1 TAC     -0.487100
      9 C4          0.1710    1.1870    2.4370 c3        1 TAC      0.166700
     10 N4         -0.7140    2.3800    2.7340 n4        1 TAC     -0.675400
     11 C42        -1.7800    2.0150    3.7110 c3        1 TAC      0.081600
     12 C43        -1.3090    3.0220    1.5330 c3        1 TAC      0.081600
     13 C41        -0.4970    0.0680    1.6190 c3        1 TAC     -0.077700
     14 C5         -0.1150   -1.2820    2.2180 c3        1 TAC     -0.086400
     15 C51        -0.8270   -2.4520    1.5440 c3        1 TAC      0.004500
     16 C6         -0.0650   -3.7710    1.8370 c3        1 TAC      0.214100
     17 C62        -0.1170   -4.0560    3.3410 c3        1 TAC     -0.125100
     18 O6          1.2960   -3.5500    1.4570 oh        1 TAC     -0.623800
     19 C61        -0.6540   -4.9320    1.0670 ca        1 TAC     -0.053300
     20 C7         -0.3830   -6.2310    1.4920 ca        1 TAC     -0.175000
     21 C8         -0.9370   -7.3350    0.8300 ca        1 TAC     -0.037000
     22 C9         -1.7630   -7.1520   -0.2660 ca        1 TAC     -0.209000
     23 C10        -2.0220   -5.8450   -0.7220 ca        1 TAC      0.206100
     24 O10        -2.8130   -5.5980   -1.8060 oh        1 TAC     -0.453100
     25 C1A        -1.4560   -4.7230   -0.0720 ca        1 TAC     -0.200600
     26 C11        -1.6760   -3.3900   -0.6330 c         1 TAC      0.603900
     27 O11        -2.3240   -3.1820   -1.6700 o         1 TAC     -0.520100
     28 C1B        -1.0480   -2.2510    0.0860 ce        1 TAC     -0.233400
     29 C12        -0.7560   -1.0970   -0.5530 c2        1 TAC      0.102900
     30 O12        -0.9740   -0.7910   -1.8650 oh        1 TAC     -0.522100
     31 C1C        -0.1160    0.0950    0.1320 c3        1 TAC      0.147000
     32 O1C        -0.5680    1.3320   -0.4000 oh        1 TAC     -0.625800
     33 HN21        4.2310   -0.5460   -0.2100 hn        1 TAC      0.492133
     34 HN22        3.8610    0.5600   -1.3890 hn        1 TAC      0.492133
     35 HO3         2.9400    2.8820    2.4090 ho        1 TAC      0.514000
     36 H4          0.4210    0.7520    3.4680 hx        1 TAC      0.140700
     37 H421       -2.4730    1.2540    3.2620 hx        1 TAC      0.116700
     38 H422       -2.3660    2.9420    3.9650 hx        1 TAC      0.116700
     39 H423       -1.3140    1.6010    4.6460 hx        1 TAC      0.116700
     40 H431       -2.0300    2.3180    1.0330 hx        1 TAC      0.116700
     41 H432       -0.4930    3.2820    0.8050 hx        1 TAC      0.116700
     42 H433       -1.8510    3.9540    1.8530 hx        1 TAC      0.116700
     43 H41        -1.6200    0.1720    1.6670 hc        1 TAC      0.110700
     44 H51A        0.9960   -1.4250    2.1380 hc        1 TAC      0.071200
     45 H52        -0.3850   -1.2850    3.3080 hc        1 TAC      0.071200
     46 H51        -1.8480   -2.5690    2.0170 hc        1 TAC      0.087700
     47 H621        0.1830   -3.1550    3.9250 hc        1 TAC      0.055033
     48 H622       -1.1470   -4.3640    3.6390 hc        1 TAC      0.055033
     49 H623        0.5970   -4.8720    3.6070 hc        1 TAC      0.055033
     50 HO6         1.7120   -4.4190    1.3790 ho        1 TAC      0.430000
     51 H7          0.2660   -6.4160    2.3610 ha        1 TAC      0.146000
     52 H8         -0.7140   -8.3530    1.1900 ha        1 TAC      0.162000
     53 H9         -2.2120   -8.0140   -0.7840 ha        1 TAC      0.164000
     54 HO1        -3.1360   -6.4460   -2.1550 ho        1 TAC      0.441000
     55 HO2        -1.4140   -1.5320   -2.3290 ho        1 TAC      0.500000
     56 HOC        -0.8080    1.2150   -1.3350 ho        1 TAC      0.480000
     57 H213        5.2890    0.7390   -0.5050 hn        1 TAC      0.492133
     58 H411       -0.1060    3.0840    3.1910 hn        1 TAC      0.466800
@<TRIPOS>BOND
     1    1    2 2   
     2    1    3 1   
     3    1   31 1   
     4    3    4 1   
     5    3    7 2   
     6    4    5 2   
     7    4    6 1   
     8    6   33 1   
     9    6   34 1   
    10    6   57 1   
    11    7    8 1   
    12    7    9 1   
    13    8   35 1   
    14    9   10 1   
    15    9   13 1   
    16    9   36 1   
    17   10   11 1   
    18   10   12 1   
    19   10   58 1   
    20   11   37 1   
    21   11   38 1   
    22   11   39 1   
    23   12   40 1   
    24   12   41 1   
    25   12   42 1   
    26   13   14 1   
    27   13   31 1   
    28   13   43 1   
    29   14   15 1   
    30   14   44 1   
    31   14   45 1   
    32   15   16 1   
    33   15   28 1   
    34   15   46 1   
    35   16   17 1   
    36   16   18 1   
    37   16   19 1   
    38   17   47 1   
    39   17   48 1   
    40   17   49 1   
    41   18   50 1   
    42   19   20 ar  
    43   19   25 ar  
    44   20   21 ar  
    45   20   51 1   
    46   21   22 ar  
    47   21   52 1   
    48   22   23 ar  
    49   22   53 1   
    50   23   24 1   
    51   23   25 ar  
    52   24   54 1   
    53   25   26 1   
    54   26   27 2   
    55   26   28 1   
    56   28   29 2   
    57   29   30 1   
    58   29   31 1   
    59   30   55 1   
    60   31   32 1   
    61   32   56 1   
@<TRIPOS>SUBSTRUCTURE
     1 TAC         1 TEMP              0 ****  ****    0 ROOT
