@<TRIPOS>MOLECULE
TAE
   32    32     1     0     0
SMALL
bcc


@<TRIPOS>ATOM
      1 N1          0.1210   -0.4230    0.5150 n         1 TAE     -0.309400
      2 C2          0.8340    0.4900   -0.3020 c         1 TAE      0.706100
      3 O2          0.8310    0.4740   -1.5650 o         1 TAE     -0.708100
      4 N3          1.6090    1.4740    0.3360 n         1 TAE     -0.597500
      5 C4          1.7060    1.5800    1.7450 c         1 TAE      0.672300
      6 O4          2.4380    2.5120    2.1790 o         1 TAE     -0.748100
      7 C5          0.9600    0.6090    2.5020 ce        1 TAE     -0.519500
      8 C6          0.1840   -0.3670    1.8800 c1        1 TAE     -0.070900
      9 PA         -4.4270   -3.7230   -1.8170 p5        1 TAE      1.636300
     10 PB         -4.3400   -6.7640   -3.2280 p5        1 TAE      1.414900
     11 C1'        -0.6770   -1.4440   -0.1510 c3        1 TAE      0.161200
     12 O1A        -5.1990   -2.5590   -2.2910 o         1 TAE     -0.922300
     13 O1B        -5.1580   -6.7580   -4.4780 o         1 TAE     -0.925500
     14 C2'        -2.0070   -1.7160    0.4710 c2        1 TAE     -0.198200
     15 O2A        -5.1330   -4.3270   -0.4810 oh        1 TAE     -0.834400
     16 O2B        -2.8830   -7.0510   -3.3830 o         1 TAE     -0.925500
     17 C3'        -2.9410   -2.5160   -0.0560 c2        1 TAE     -0.130200
     18 O3A        -4.3170   -4.9850   -2.6670 os        1 TAE     -0.792800
     19 O3B        -5.0050   -7.2710   -1.9830 o         1 TAE     -0.925500
     20 C4'        -2.8830   -3.2650   -1.3180 c3        1 TAE     -0.342400
     21 C5M         1.0360    0.6710    3.9710 c3        1 TAE      0.054100
     22 HN3         2.0990    2.1140   -0.2420 hn        1 TAE      0.295500
     23 H6         -5.3020   -5.2700   -0.5350 ho        1 TAE      0.480000
     24 H1'        -0.8230   -1.1410   -1.2300 h1        1 TAE      0.052700
     25 H1'A       -0.0790   -2.4040   -0.1450 h1        1 TAE      0.052700
     26 H2'        -2.1820   -1.2300    1.4460 ha        1 TAE      0.135000
     27 H3'        -3.8850   -2.6670    0.5040 ha        1 TAE      0.128000
     28 H4'        -2.3850   -2.6510   -2.1120 hc        1 TAE      0.092200
     29 H4'A       -2.2360   -4.1730   -1.1870 hc        1 TAE      0.092200
     30 H5M         2.0890    0.5270    4.3270 hc        1 TAE     -0.006967
     31 H5MA        0.3960   -0.1230    4.4290 hc        1 TAE     -0.006967
     32 H5MB        0.6940    1.6680    4.3500 hc        1 TAE     -0.006967
@<TRIPOS>BOND
     1    1    2 1   
     2    1    8 2   
     3    1   11 1   
     4    2    3 2   
     5    2    4 1   
     6    4    5 1   
     7    4   22 1   
     8    5    6 2   
     9    5    7 1   
    10    7    8 2   
    11    7   21 1   
    12    9   12 2   
    13    9   15 1   
    14    9   18 1   
    15    9   20 1   
    16   10   13 1   
    17   10   16 1   
    18   10   18 1   
    19   10   19 1   
    20   11   14 1   
    21   11   24 1   
    22   11   25 1   
    23   14   17 2   
    24   14   26 1   
    25   15   23 1   
    26   17   20 1   
    27   17   27 1   
    28   20   28 1   
    29   20   29 1   
    30   21   30 1   
    31   21   31 1   
    32   21   32 1   
@<TRIPOS>SUBSTRUCTURE
     1 TAE         1 TEMP              0 ****  ****    0 ROOT
