@<TRIPOS>MOLECULE
TAE
   32    32     1     0     0
SMALL
bcc


@<TRIPOS>ATOM
      1 N1          0.5920   -0.9730   -0.1450 n         1 TAE     -0.221000
      2 C2          1.6140   -0.0180   -0.0280 c2        1 TAE      0.366000
      3 O2          2.7200   -0.0940   -0.6310 o         1 TAE     -0.460000
      4 N3          1.4020    1.1030    0.7990 n         1 TAE     -0.382000
      5 C4          0.2080    1.3100    1.5190 c2        1 TAE      0.354000
      6 O4          0.1520    2.3430    2.2310 o         1 TAE     -0.453000
      7 C5         -0.8200    0.2980    1.3510 c2        1 TAE     -0.309000
      8 C6         -0.5890   -0.7980    0.5460 c2        1 TAE      0.096000
      9 PA         -3.2860   -3.5830   -0.1400 p5        1 TAE      2.840000
     10 PB         -5.9960   -4.3340   -1.9820 p5        1 TAE      1.666500
     11 C1'         0.8130   -2.2020   -0.9370 c3        1 TAE      0.013000
     12 O1A        -3.2170   -2.3210    0.6440 o         1 TAE     -1.233000
     13 O1B        -6.0000   -3.1710   -2.9260 o         1 TAE     -0.936167
     14 C2'         0.3580   -3.4430   -0.2510 c2        1 TAE     -0.347000
     15 O2A        -3.1040   -4.8070    0.9190 oh        1 TAE     -0.838000
     16 O2B        -5.5330   -5.6360   -2.5610 o         1 TAE     -0.936167
     17 C3'        -0.8210   -4.0350   -0.3890 c1        1 TAE     -0.453000
     18 O3A        -4.5660   -3.9030   -0.9060 os        1 TAE     -1.259000
     19 O3B        -7.1450   -4.4110   -1.0260 o         1 TAE     -0.936167
     20 C4'        -1.9770   -3.6620   -1.1820 c3        1 TAE     -0.815000
     21 C5M        -2.1140    0.4540    2.0430 c3        1 TAE     -0.151000
     22 HN3         2.1410    1.7620    0.8680 hn        1 TAE      0.221000
     23 H6         -1.3830   -1.6040    0.4200 h4        1 TAE      0.288000
     24 H1'         1.9140   -2.2400   -1.1700 h1        1 TAE      0.066500
     25 H1'A        0.2470   -2.0510   -1.9000 h1        1 TAE      0.066500
     26 H2'         1.1080   -3.8490    0.4450 ha        1 TAE      0.058000
     27 H3'        -2.2170   -5.1640    0.9110 ho        1 TAE      0.251000
     28 H4'        -2.1360   -4.4620   -1.9520 hc        1 TAE      0.090500
     29 H4'A       -1.8700   -2.7040   -1.7590 hc        1 TAE      0.090500
     30 H5M        -2.8040   -0.3930    1.7610 hc        1 TAE      0.087667
     31 H5MA       -2.5900    1.4260    1.7620 hc        1 TAE      0.087667
     32 H5MB       -1.9640    0.4550    3.1510 hc        1 TAE      0.087667
@<TRIPOS>BOND
     1    1    2 1   
     2    1    8 1   
     3    1   11 1   
     4    2    3 1   
     5    2    4 1   
     6    4    5 1   
     7    4   22 1   
     8    5    6 1   
     9    5    7 1   
    10    7    8 1   
    11    7   21 1   
    12    8   23 1   
    13    9   12 1   
    14    9   15 1   
    15    9   18 1   
    16    9   20 1   
    17   10   13 1   
    18   10   16 1   
    19   10   18 1   
    20   10   19 1   
    21   11   14 1   
    22   11   24 1   
    23   11   25 1   
    24   14   17 1   
    25   14   26 1   
    26   15   27 1   
    27   17   20 1   
    28   20   28 1   
    29   20   29 1   
    30   21   30 1   
    31   21   31 1   
    32   21   32 1   
@<TRIPOS>SUBSTRUCTURE
     1 TAE         1 TEMP              0 ****  ****    0 ROOT
