@<TRIPOS>MOLECULE
TAE
   32    32     1     0     0
SMALL
bcc


@<TRIPOS>ATOM
      1 N1          0.1740   -0.4740    0.4940 n         1 TAE     -0.309400
      2 C2          0.9280    0.3910   -0.3380 c         1 TAE      0.706100
      3 O2          0.9360    0.3430   -1.6000 o         1 TAE     -0.708100
      4 N3          1.7350    1.3600    0.2830 ns        1 TAE     -0.597500
      5 C4          1.8230    1.4980    1.6890 c         1 TAE      0.672300
      6 O4          2.5860    2.4130    2.1080 o         1 TAE     -0.748100
      7 C5          1.0340    0.5750    2.4640 ce        1 TAE     -0.519500
      8 C6          0.2260   -0.3850    1.8580 c1        1 TAE     -0.070900
      9 PA         -4.4790   -3.6510   -1.8030 p5        1 TAE      1.636300
     10 PB         -4.4980   -6.7310   -3.1320 p5        1 TAE      1.414900
     11 C1'        -0.6570   -1.4800   -0.1530 c3        1 TAE      0.160200
     12 O1A        -5.1990   -2.4710   -2.3170 o         1 TAE     -0.922300
     13 O1B        -5.3020   -6.7250   -4.3900 o         1 TAE     -0.925500
     14 C2'        -2.0050   -1.6810    0.4590 c2        1 TAE     -0.198200
     15 O2A        -5.2220   -4.1910   -0.4590 oh        1 TAE     -0.834400
     16 O2B        -3.0520   -7.0790   -3.2610 o         1 TAE     -0.925500
     17 C3'        -2.9650   -2.4560   -0.0580 c2        1 TAE     -0.130200
     18 O3A        -4.4100   -4.9390   -2.6180 os        1 TAE     -0.792800
     19 O3B        -5.1960   -7.1770   -1.8820 o         1 TAE     -0.925500
     20 C4'        -2.9230   -3.2410   -1.2980 c3        1 TAE     -0.342400
     21 C5M         1.0990    0.6710    3.9310 c3        1 TAE      0.054100
     22 HN3         2.2540    1.9660   -0.3060 hn        1 TAE      0.295500
     23 H6         -5.4280   -5.1270   -0.4900 ho        1 TAE      0.480000
     24 H1'        -0.1000   -2.4630   -0.1130 h1        1 TAE      0.052700
     25 H1'A       -0.7790   -1.2010   -1.2420 h1        1 TAE      0.052700
     26 H2'        -2.1710   -1.1610    1.4190 ha        1 TAE      0.134000
     27 H3'        -3.9210   -2.5530    0.4940 ha        1 TAE      0.128000
     28 H4'        -2.3140   -4.1700   -1.1350 hc        1 TAE      0.092200
     29 H4'A       -2.3920   -2.6700   -2.1030 hc        1 TAE      0.092200
     30 H5M         0.4240   -0.0850    4.4020 hc        1 TAE     -0.006967
     31 H5MA        0.7910    1.6900    4.2820 hc        1 TAE     -0.006967
     32 H5MB        2.1420    0.4970    4.3000 hc        1 TAE     -0.006967
@<TRIPOS>BOND
     1    1    2 1   
     2    1    8 2   
     3    1   11 1   
     4    2    3 2   
     5    2    4 1   
     6    4    5 1   
     7    4   22 1   
     8    5    6 2   
     9    5    7 1   
    10    7    8 2   
    11    7   21 1   
    12    9   12 2   
    13    9   15 1   
    14    9   18 1   
    15    9   20 1   
    16   10   13 1   
    17   10   16 1   
    18   10   18 1   
    19   10   19 1   
    20   11   14 1   
    21   11   24 1   
    22   11   25 1   
    23   14   17 2   
    24   14   26 1   
    25   15   23 1   
    26   17   20 1   
    27   17   27 1   
    28   20   28 1   
    29   20   29 1   
    30   21   30 1   
    31   21   31 1   
    32   21   32 1   
@<TRIPOS>SUBSTRUCTURE
     1 TAE         1 TEMP              0 ****  ****    0 ROOT
