@<TRIPOS>MOLECULE
TAE
   32    32     1     0     0
SMALL
bcc


@<TRIPOS>ATOM
      1 N1         -3.3350   -1.1020   -0.0420 n         1 TAE     -0.346000
      2 C2         -4.7350   -1.1840   -0.1400 c         1 TAE      0.776500
      3 O2         -5.3480   -2.2680   -0.3500 o         1 TAE     -0.740500
      4 N3         -5.4910   -0.0080    0.0010 n         1 TAE     -0.599500
      5 C4         -4.9040    1.2560    0.2390 c         1 TAE      0.714700
      6 O4         -5.6940    2.2230    0.3380 o         1 TAE     -0.716500
      7 C5         -3.4540    1.2750    0.3390 cc        1 TAE     -0.320400
      8 C6         -2.7230    0.1170    0.2000 cd        1 TAE      0.064600
      9 PA          1.2050    0.0890    1.0190 p5        1 TAE      1.475600
     10 PB          4.3050    1.0100    0.1850 p5        1 TAE      1.445900
     11 C1'        -2.5690   -2.3440   -0.2070 c3        1 TAE      0.180200
     12 O1A         0.9770   -0.3970    2.4120 o         1 TAE     -0.927500
     13 O1B         5.0220   -0.2570    0.5520 o         1 TAE     -0.950500
     14 C2'        -1.1640   -2.1180   -0.6140 c2        1 TAE     -0.390200
     15 O2A         0.0470    0.8980    0.4860 o         1 TAE     -0.927500
     16 O2B         4.1710    1.2480   -1.2920 o         1 TAE     -0.950500
     17 C3'        -0.1740   -1.9640    0.2920 c2        1 TAE      0.027800
     18 O3A         2.6110    0.6320    0.6790 os        1 TAE     -0.800800
     19 O3B         4.6550    2.2170    1.0060 o         1 TAE     -0.950500
     20 C4'         1.1410   -1.4460    0.0350 c3        1 TAE     -0.298400
     21 C5M        -2.7620    2.5550    0.5940 c3        1 TAE     -0.032900
     22 HN3        -6.4770   -0.0920   -0.0730 hn        1 TAE      0.309500
     23 H6         -1.5570    0.1630    0.2880 h4        1 TAE      0.334000
     24 H1'        -2.6230   -2.8930    0.7780 h1        1 TAE      0.028700
     25 H1'A       -3.1110   -2.9640   -0.9790 h1        1 TAE      0.028700
     26 H2'        -0.9890   -1.9580   -1.6850 ha        1 TAE      0.115000
     27 H3'        -0.3760   -2.1220    1.3730 ha        1 TAE      0.128000
     28 H4'         1.3610   -1.2090   -1.0240 hc        1 TAE      0.084200
     29 H4'A        1.9620   -2.0660    0.4580 hc        1 TAE      0.084200
     30 H5M        -3.0030    3.2930   -0.2100 hc        1 TAE      0.053033
     31 H5MA       -3.0950    2.9880    1.5690 hc        1 TAE      0.053033
     32 H5MB       -1.6450    2.3840    0.6230 hc        1 TAE      0.053033
@<TRIPOS>BOND
     1    1    2 1   
     2    1    8 1   
     3    1   11 1   
     4    2    3 2   
     5    2    4 1   
     6    4    5 1   
     7    4   22 1   
     8    5    6 2   
     9    5    7 1   
    10    7    8 2   
    11    7   21 1   
    12    8   23 1   
    13    9   12 1   
    14    9   15 1   
    15    9   18 1   
    16    9   20 1   
    17   10   13 1   
    18   10   16 1   
    19   10   18 1   
    20   10   19 1   
    21   11   14 1   
    22   11   24 1   
    23   11   25 1   
    24   14   17 2   
    25   14   26 1   
    26   17   20 1   
    27   17   27 1   
    28   20   28 1   
    29   20   29 1   
    30   21   30 1   
    31   21   31 1   
    32   21   32 1   
@<TRIPOS>SUBSTRUCTURE
     1 TAE         1 TEMP              0 ****  ****    0 ROOT
