@<TRIPOS>MOLECULE
TAF
   34    35     1     0     0
SMALL
bcc


@<TRIPOS>ATOM
      1 P           0.2940    0.4180   -4.0540 p5        1 TAF      1.336900
      2 OP1         0.4500   -0.2900   -5.3640 o         1 TAF     -0.930500
      3 OP2        -1.1250    0.7300   -3.6200 o         1 TAF     -0.930500
      4 OP3         1.3040    1.4640   -3.6880 o         1 TAF     -0.930500
      5 O5'         0.6370   -0.8310   -2.8820 os        1 TAF     -0.558200
      6 N1         -0.7110   -0.3530    2.3210 n         1 TAF     -0.360000
      7 C6          0.0050   -1.1630    3.1840 cc        1 TAF      0.075600
      8 C2         -0.3740    1.0300    2.2580 c         1 TAF      0.800500
      9 O2         -0.8810    1.8260    1.4500 o         1 TAF     -0.576500
     10 N3          0.5310    1.5400    3.2230 n         1 TAF     -0.590500
     11 C4          1.1900    0.7430    4.1610 c         1 TAF      0.726700
     12 O4          1.9780    1.2810    4.9680 o         1 TAF     -0.673500
     13 C5          0.8850   -0.6930    4.1170 cd        1 TAF     -0.311400
     14 C5M         1.5710   -1.5750    5.0790 c3        1 TAF     -0.012900
     15 F2'        -3.0790    0.8560    1.1910 f         1 TAF     -0.229300
     16 C2'        -2.6030   -0.2450    0.5220 c3        1 TAF      0.138600
     17 C5'         0.4690   -0.4240   -1.5880 c3        1 TAF      0.235400
     18 C4'        -0.8580   -0.9880   -1.0210 c3        1 TAF      0.061100
     19 O4'        -0.6210   -1.5770    0.2890 os        1 TAF     -0.440600
     20 C1'        -1.4850   -1.0420    1.2690 c3        1 TAF      0.277500
     21 C3'        -1.9830    0.0520   -0.8760 c3        1 TAF      0.155100
     22 O3'        -2.9990   -0.1500   -1.8240 oh        1 TAF     -0.679800
     23 H6         -0.1940   -2.2490    3.0890 h4        1 TAF      0.156000
     24 H3          0.7740    2.5020    3.1330 hn        1 TAF      0.341500
     25 H71         2.6110   -1.2070    5.2630 hc        1 TAF      0.033700
     26 H72         1.0290   -1.5780    6.0590 hc        1 TAF      0.033700
     27 H73         1.6200   -2.6250    4.6990 hc        1 TAF      0.033700
     28 H2'        -3.4650   -0.9630    0.3840 h1        1 TAF      0.055700
     29 H5'         0.4680    0.7000   -1.5100 h1        1 TAF      0.004200
     30 H5''        1.3010   -0.8390   -0.9450 h1        1 TAF      0.004200
     31 H4'        -1.2000   -1.8440   -1.6650 h1        1 TAF      0.082700
     32 H1'        -1.9530   -1.9260    1.8030 h2        1 TAF      0.042700
     33 H3'        -1.5860    1.1020   -0.9320 h1        1 TAF      0.105700
     34 HO'3       -2.6110    0.1170   -2.6970 ho        1 TAF      0.519000
@<TRIPOS>BOND
     1    1    2 1   
     2    1    3 1   
     3    1    4 1   
     4    1    5 1   
     5    5   17 1   
     6    6    7 1   
     7    6    8 1   
     8    6   20 1   
     9    7   13 2   
    10    7   23 1   
    11    8    9 2   
    12    8   10 1   
    13   10   11 1   
    14   10   24 1   
    15   11   12 2   
    16   11   13 1   
    17   13   14 1   
    18   14   25 1   
    19   14   26 1   
    20   14   27 1   
    21   15   16 1   
    22   16   20 1   
    23   16   21 1   
    24   16   28 1   
    25   17   18 1   
    26   17   29 1   
    27   17   30 1   
    28   18   19 1   
    29   18   21 1   
    30   18   31 1   
    31   19   20 1   
    32   20   32 1   
    33   21   22 1   
    34   21   33 1   
    35   22   34 1   
@<TRIPOS>SUBSTRUCTURE
     1 TAF         1 TEMP              0 ****  ****    0 ROOT
