@<TRIPOS>MOLECULE
TAG
   24    23     1     0     0
SMALL
bcc


@<TRIPOS>ATOM
      1 C1         -2.6620   -0.8700   -0.7120 c3        1 TAG      0.035400
      2 O1         -4.0430   -1.0230   -0.4740 oh        1 TAG     -0.585800
      3 C2         -2.0310    0.1920    0.1450 c         1 TAG      0.517100
      4 O2         -2.6040    0.6730    1.1290 o         1 TAG     -0.534100
      5 C3         -0.6340    0.6410   -0.2370 c3        1 TAG      0.016100
      6 O3         -0.3950    1.9710    0.1800 oh        1 TAG     -0.580800
      7 C4          0.4260   -0.3000    0.3770 c3        1 TAG      0.123100
      8 O4          0.1550   -1.6480    0.0520 oh        1 TAG     -0.600800
      9 C5          1.8250    0.1270   -0.0980 c3        1 TAG      0.112100
     10 O5          1.9250   -0.2790   -1.4560 oh        1 TAG     -0.620800
     11 C6          2.9000   -0.5540    0.7540 c3        1 TAG      0.093400
     12 O6          4.1420   -0.2450    0.1430 oh        1 TAG     -0.612800
     13 H11        -2.1230   -1.8410   -0.5190 h1        1 TAG      0.081200
     14 H12        -2.5790   -0.6020   -1.8000 h1        1 TAG      0.081200
     15 HO1        -4.1890   -0.9480    0.4800 ho        1 TAG      0.419000
     16 H3         -0.5120    0.6610   -1.3580 h1        1 TAG      0.108700
     17 HO3        -0.7550    2.0690    1.0730 ho        1 TAG      0.420000
     18 H4          0.3730   -0.2510    1.5010 h1        1 TAG      0.083700
     19 HO4         0.4260   -1.7890   -0.8660 ho        1 TAG      0.427000
     20 H5          1.9250    1.2470   -0.0330 h1        1 TAG      0.080700
     21 HO5         2.8450   -0.1470   -1.7200 ho        1 TAG      0.436000
     22 H61         2.8750   -0.1550    1.8020 h1        1 TAG      0.042700
     23 H62         2.7330   -1.6640    0.7660 h1        1 TAG      0.042700
     24 HO6         4.8180   -0.7480    0.6130 ho        1 TAG      0.414000
@<TRIPOS>BOND
     1    1    2 1   
     2    1    3 1   
     3    1   13 1   
     4    1   14 1   
     5    2   15 1   
     6    3    4 2   
     7    3    5 1   
     8    5    6 1   
     9    5    7 1   
    10    5   16 1   
    11    6   17 1   
    12    7    8 1   
    13    7    9 1   
    14    7   18 1   
    15    8   19 1   
    16    9   10 1   
    17    9   11 1   
    18    9   20 1   
    19   10   21 1   
    20   11   12 1   
    21   11   22 1   
    22   11   23 1   
    23   12   24 1   
@<TRIPOS>SUBSTRUCTURE
     1 TAG         1 TEMP              0 ****  ****    0 ROOT
