@<TRIPOS>MOLECULE
TAK
   55    59     1     0     0
SMALL
bcc


@<TRIPOS>ATOM
      1 C1          0.5190    0.5800   -0.1500 c3        1 TAK      0.176300
      2 C2          1.9200    0.2840    0.3820 c3        1 TAK     -0.077900
      3 C3          1.8650   -0.5840    1.6200 c3        1 TAK     -0.078400
      4 C4          0.9620    0.0400    2.6610 c3        1 TAK     -0.077900
      5 C5         -0.4190    0.3350    2.0800 c3        1 TAK      0.176300
      6 N1         -0.3730    1.1290    0.8610 n3        1 TAK     -0.738600
      7 C6         -1.6950    1.4360    0.3430 c3        1 TAK      0.173800
      8 C7         -2.3190    2.6810    0.9930 c3        1 TAK      0.126400
      9 O1         -1.8920    3.7880    0.1890 os        1 TAK     -0.320900
     10 C8         -2.2470    5.0380    0.6430 ca        1 TAK      0.145100
     11 C9         -1.7020    6.1110   -0.0930 ca        1 TAK     -0.181000
     12 C10        -2.0120    7.4130    0.2700 ca        1 TAK     -0.082000
     13 C11        -3.0930    5.2830    1.7320 ca        1 TAK     -0.181000
     14 C12        -3.3920    6.5980    2.0830 ca        1 TAK     -0.082000
     15 C13        -2.8590    7.6730    1.3610 ca        1 TAK     -0.079000
     16 C14        -3.1740    9.0430    1.7330 cc        1 TAK     -0.190300
     17 C15        -4.4500    9.4000    2.1360 cd        1 TAK     -0.000300
     18 C16        -2.1530   10.0660    1.6880 cc        1 TAK      0.442200
     19 N2         -2.3510   11.3300    2.0110 nd        1 TAK     -0.630000
     20 C17        -3.6190   11.6840    2.4140 cd        1 TAK      0.371500
     21 N3         -4.7030   10.7150    2.4860 na        1 TAK      0.044200
     22 N4         -5.8520   11.2770    2.8940 nd        1 TAK     -0.555100
     23 C18        -5.5830   12.5930    3.0950 cc        1 TAK      0.394500
     24 C19        -4.2030   12.9180    2.8140 cc        1 TAK     -0.214800
     25 C20        -3.6000   14.2170    2.9190 ca        1 TAK      0.039200
     26 C21        -4.3980   15.3730    2.8350 ca        1 TAK     -0.239800
     27 C22        -3.7860   16.6310    2.9480 ca        1 TAK      0.391200
     28 N5         -2.4630   16.8050    3.1340 nb        1 TAK     -0.669000
     29 C23        -1.7080   15.6930    3.2130 ca        1 TAK      0.391200
     30 C24        -2.2200   14.3870    3.1160 ca        1 TAK     -0.239800
     31 H1          0.0990   -0.3700   -0.5970 h1        1 TAK      0.028200
     32 H1A         0.6020    1.3410   -0.9770 h1        1 TAK      0.028200
     33 H2          2.5010   -0.2310   -0.4260 hc        1 TAK      0.048700
     34 H2A         2.4430    1.2460    0.6200 hc        1 TAK      0.048700
     35 H3          2.8970   -0.7140    2.0390 hc        1 TAK      0.040700
     36 H3A         1.4820   -1.6030    1.3490 hc        1 TAK      0.040700
     37 H4          1.4230    0.9890    3.0400 hc        1 TAK      0.048700
     38 H4A         0.8380   -0.6540    3.5320 hc        1 TAK      0.048700
     39 H5         -1.0170    0.9160    2.8390 h1        1 TAK      0.028200
     40 H5A        -0.9520   -0.6490    1.9110 h1        1 TAK      0.028200
     41 H6         -1.6290    1.6290   -0.7660 h1        1 TAK      0.049200
     42 H6A        -2.4180    0.5830    0.5020 h1        1 TAK      0.049200
     43 H7         -3.4380    2.6090    0.9460 h1        1 TAK      0.045700
     44 H7A        -1.9890    2.8280    2.0540 h1        1 TAK      0.045700
     45 H9         -1.0410    5.8980   -0.9450 ha        1 TAK      0.148000
     46 H10        -1.5940    8.2510   -0.3090 ha        1 TAK      0.136000
     47 H11        -3.5220    4.4570    2.3140 ha        1 TAK      0.148000
     48 H12        -4.0490    6.7890    2.9450 ha        1 TAK      0.136000
     49 H15        -5.2920    8.6870    2.1920 h4        1 TAK      0.185000
     50 H16        -1.1290    9.7910    1.3720 h4        1 TAK      0.040100
     51 H18        -6.3590   13.2820    3.4390 h4        1 TAK      0.059800
     52 H21        -5.4810   15.2970    2.6750 ha        1 TAK      0.149000
     53 H22        -4.3870   17.5550    2.8840 h4        1 TAK      0.019600
     54 H23        -0.6260   15.8580    3.3660 h4        1 TAK      0.019600
     55 H24        -1.5440   13.5260    3.1950 ha        1 TAK      0.149000
@<TRIPOS>BOND
     1    1    2 1   
     2    1    6 1   
     3    1   31 1   
     4    1   32 1   
     5    2    3 1   
     6    2   33 1   
     7    2   34 1   
     8    3    4 1   
     9    3   35 1   
    10    3   36 1   
    11    4    5 1   
    12    4   37 1   
    13    4   38 1   
    14    5    6 1   
    15    5   39 1   
    16    5   40 1   
    17    6    7 1   
    18    7    8 1   
    19    7   41 1   
    20    7   42 1   
    21    8    9 1   
    22    8   43 1   
    23    8   44 1   
    24    9   10 1   
    25   10   11 ar  
    26   10   13 ar  
    27   11   12 ar  
    28   11   45 1   
    29   12   15 ar  
    30   12   46 1   
    31   13   14 ar  
    32   13   47 1   
    33   14   15 ar  
    34   14   48 1   
    35   15   16 1   
    36   16   17 2   
    37   16   18 1   
    38   17   21 1   
    39   17   49 1   
    40   18   19 2   
    41   18   50 1   
    42   19   20 1   
    43   20   21 1   
    44   20   24 2   
    45   21   22 1   
    46   22   23 2   
    47   23   24 1   
    48   23   51 1   
    49   24   25 1   
    50   25   26 ar  
    51   25   30 ar  
    52   26   27 ar  
    53   26   52 1   
    54   27   28 ar  
    55   27   53 1   
    56   28   29 ar  
    57   29   30 ar  
    58   29   54 1   
    59   30   55 1   
@<TRIPOS>SUBSTRUCTURE
     1 TAK         1 TEMP              0 ****  ****    0 ROOT
