@<TRIPOS>MOLECULE
TAK
   55    59     1     0     0
SMALL
bcc


@<TRIPOS>ATOM
      1 C1          0.5350    0.5810   -0.1280 c3        1 TAK      0.176300
      2 C2          1.9260    0.2820    0.4290 c3        1 TAK     -0.077900
      3 C3          1.8480   -0.5890    1.6640 c3        1 TAK     -0.078400
      4 C4          0.9260    0.0340    2.6900 c3        1 TAK     -0.077900
      5 C5         -0.4440    0.3320    2.0850 c3        1 TAK      0.176300
      6 N1         -0.3740    1.1290    0.8690 n3        1 TAK     -0.738600
      7 C6         -1.6860    1.4390    0.3270 c3        1 TAK      0.173800
      8 C7         -2.3200    2.6830    0.9690 c3        1 TAK      0.126400
      9 O1         -1.8750    3.7920    0.1770 os        1 TAK     -0.320900
     10 C8         -2.2340    5.0420    0.6290 ca        1 TAK      0.145100
     11 C9         -1.6710    6.1150   -0.0920 ca        1 TAK     -0.181000
     12 C10        -1.9830    7.4170    0.2700 ca        1 TAK     -0.082000
     13 C11        -3.1010    5.2850    1.7010 ca        1 TAK     -0.181000
     14 C12        -3.4030    6.6000    2.0510 ca        1 TAK     -0.082000
     15 C13        -2.8520    7.6760    1.3450 ca        1 TAK     -0.079000
     16 C14        -3.1690    9.0450    1.7160 cc        1 TAK     -0.190300
     17 C15        -4.4520    9.4060    2.0950 cd        1 TAK     -0.000300
     18 C16        -2.1440   10.0640    1.6980 cc        1 TAK      0.442200
     19 N2         -2.3430   11.3270    2.0220 nd        1 TAK     -0.630000
     20 C17        -3.6180   11.6850    2.4000 cd        1 TAK      0.371500
     21 N3         -4.7070   10.7200    2.4450 na        1 TAK      0.044200
     22 N4         -5.8620   11.2860    2.8310 nd        1 TAK     -0.555100
     23 C18        -5.5920   12.5990    3.0440 cc        1 TAK      0.394500
     24 C19        -4.2050   12.9200    2.7940 cc        1 TAK     -0.214800
     25 C20        -3.5990   14.2150    2.9170 ca        1 TAK      0.039200
     26 C21        -4.3910   15.3750    2.8220 ca        1 TAK     -0.239800
     27 C22        -3.7760   16.6300    2.9540 ca        1 TAK      0.391200
     28 N5         -2.4560   16.7970    3.1680 nb        1 TAK     -0.669000
     29 C23        -1.7070   15.6820    3.2580 ca        1 TAK      0.391200
     30 C24        -2.2230   14.3790    3.1440 ca        1 TAK     -0.239800
     31 H1          0.1220   -0.3670   -0.5840 h1        1 TAK      0.028200
     32 H1A         0.6340    1.3430   -0.9510 h1        1 TAK      0.028200
     33 H2          2.4460    1.2430    0.6790 hc        1 TAK      0.048700
     34 H2A         2.5210   -0.2320   -0.3690 hc        1 TAK      0.048700
     35 H3          1.4680   -1.6070    1.3840 hc        1 TAK      0.040700
     36 H3A         2.8710   -0.7210    2.1020 hc        1 TAK      0.040700
     37 H4          1.3820    0.9810    3.0790 hc        1 TAK      0.048700
     38 H4A         0.7860   -0.6610    3.5570 hc        1 TAK      0.048700
     39 H5         -1.0540    0.9130    2.8340 h1        1 TAK      0.028200
     40 H5A        -0.9740   -0.6500    1.9040 h1        1 TAK      0.028200
     41 H6         -2.4130    0.5870    0.4710 h1        1 TAK      0.049200
     42 H6A        -1.6000    1.6340   -0.7800 h1        1 TAK      0.049200
     43 H7         -2.0100    2.8260    2.0360 h1        1 TAK      0.045700
     44 H7A        -3.4380    2.6150    0.9000 h1        1 TAK      0.045700
     45 H9         -0.9930    5.9040   -0.9310 ha        1 TAK      0.148000
     46 H10        -1.5510    8.2560   -0.2970 ha        1 TAK      0.136000
     47 H11        -3.5460    4.4580    2.2710 ha        1 TAK      0.148000
     48 H12        -4.0770    6.7900    2.9000 ha        1 TAK      0.136000
     49 H15        -5.2980    8.6950    2.1290 h4        1 TAK      0.185000
     50 H16        -1.1140    9.7860    1.4010 h4        1 TAK      0.040100
     51 H18        -6.3720   13.2890    3.3750 h4        1 TAK      0.059800
     52 H21        -5.4710   15.3040    2.6390 ha        1 TAK      0.149000
     53 H22        -4.3720   17.5570    2.8820 h4        1 TAK      0.019600
     54 H23        -0.6280   15.8420    3.4340 h4        1 TAK      0.019600
     55 H24        -1.5520   13.5140    3.2320 ha        1 TAK      0.149000
@<TRIPOS>BOND
     1    1    2 1   
     2    1    6 1   
     3    1   31 1   
     4    1   32 1   
     5    2    3 1   
     6    2   33 1   
     7    2   34 1   
     8    3    4 1   
     9    3   35 1   
    10    3   36 1   
    11    4    5 1   
    12    4   37 1   
    13    4   38 1   
    14    5    6 1   
    15    5   39 1   
    16    5   40 1   
    17    6    7 1   
    18    7    8 1   
    19    7   41 1   
    20    7   42 1   
    21    8    9 1   
    22    8   43 1   
    23    8   44 1   
    24    9   10 1   
    25   10   11 ar  
    26   10   13 ar  
    27   11   12 ar  
    28   11   45 1   
    29   12   15 ar  
    30   12   46 1   
    31   13   14 ar  
    32   13   47 1   
    33   14   15 ar  
    34   14   48 1   
    35   15   16 1   
    36   16   17 2   
    37   16   18 1   
    38   17   21 1   
    39   17   49 1   
    40   18   19 2   
    41   18   50 1   
    42   19   20 1   
    43   20   21 1   
    44   20   24 2   
    45   21   22 1   
    46   22   23 2   
    47   23   24 1   
    48   23   51 1   
    49   24   25 1   
    50   25   26 ar  
    51   25   30 ar  
    52   26   27 ar  
    53   26   52 1   
    54   27   28 ar  
    55   27   53 1   
    56   28   29 ar  
    57   29   30 ar  
    58   29   54 1   
    59   30   55 1   
@<TRIPOS>SUBSTRUCTURE
     1 TAK         1 TEMP              0 ****  ****    0 ROOT
