@<TRIPOS>MOLECULE
TAK
   55    59     1     0     0
SMALL
bcc


@<TRIPOS>ATOM
      1 C1          0.5420    0.5800   -0.1170 c3        1 TAK      0.176300
      2 C2          1.9250    0.2740    0.4550 c3        1 TAK     -0.077900
      3 C3          1.8290   -0.6010    1.6850 c3        1 TAK     -0.078400
      4 C4          0.8980    0.0210    2.7030 c3        1 TAK     -0.077900
      5 C5         -0.4640    0.3260    2.0830 c3        1 TAK      0.176300
      6 N1         -0.3780    1.1270    0.8710 n3        1 TAK     -0.738600
      7 C6         -1.6820    1.4430    0.3150 c3        1 TAK      0.173800
      8 C7         -2.3200    2.6870    0.9540 c3        1 TAK      0.126400
      9 O1         -1.8620    3.7970    0.1700 os        1 TAK     -0.320900
     10 C8         -2.2240    5.0460    0.6220 ca        1 TAK      0.145100
     11 C9         -1.6520    6.1210   -0.0900 ca        1 TAK     -0.181000
     12 C10        -1.9650    7.4220    0.2720 ca        1 TAK     -0.082000
     13 C11        -3.1020    5.2890    1.6850 ca        1 TAK     -0.181000
     14 C12        -3.4040    6.6030    2.0360 ca        1 TAK     -0.082000
     15 C13        -2.8440    7.6800    1.3380 ca        1 TAK     -0.079000
     16 C14        -3.1630    9.0490    1.7090 cc        1 TAK     -0.190300
     17 C15        -4.4490    9.4110    2.0760 cd        1 TAK     -0.000300
     18 C16        -2.1350   10.0660    1.7040 cc        1 TAK      0.442200
     19 N2         -2.3350   11.3290    2.0290 nd        1 TAK     -0.630000
     20 C17        -3.6140   11.6880    2.3950 cd        1 TAK      0.371500
     21 N3         -4.7050   10.7250    2.4270 na        1 TAK      0.044200
     22 N4         -5.8630   11.2910    2.8030 nd        1 TAK     -0.555100
     23 C18        -5.5920   12.6040    3.0210 cc        1 TAK      0.394500
     24 C19        -4.2030   12.9230    2.7860 cc        1 TAK     -0.214800
     25 C20        -3.5960   14.2170    2.9180 ca        1 TAK      0.039200
     26 C21        -4.3850   15.3780    2.8180 ca        1 TAK     -0.239800
     27 C22        -3.7690   16.6320    2.9590 ca        1 TAK      0.391200
     28 N5         -2.4510   16.7970    3.1860 nb        1 TAK     -0.669000
     29 C23        -1.7050   15.6800    3.2810 ca        1 TAK      0.391200
     30 C24        -2.2220   14.3780    3.1580 ca        1 TAK     -0.239800
     31 H1          0.6530    1.3450   -0.9360 h1        1 TAK      0.028200
     32 H1A         0.1310   -0.3650   -0.5820 h1        1 TAK      0.028200
     33 H2          2.5280   -0.2390   -0.3380 hc        1 TAK      0.048700
     34 H2A         2.4450    1.2330    0.7150 hc        1 TAK      0.048700
     35 H3          1.4490   -1.6170    1.3970 hc        1 TAK      0.040700
     36 H3A         2.8470   -0.7380    2.1350 hc        1 TAK      0.040700
     37 H4          0.7450   -0.6770    3.5650 hc        1 TAK      0.048700
     38 H4A         1.3520    0.9650    3.1020 hc        1 TAK      0.048700
     39 H5         -1.0810    0.9050    2.8270 h1        1 TAK      0.028200
     40 H5A        -0.9960   -0.6540    1.8920 h1        1 TAK      0.028200
     41 H6         -2.4130    0.5930    0.4470 h1        1 TAK      0.049200
     42 H6A        -1.5830    1.6420   -0.7910 h1        1 TAK      0.049200
     43 H7         -3.4370    2.6220    0.8720 h1        1 TAK      0.045700
     44 H7A        -2.0210    2.8260    2.0250 h1        1 TAK      0.045700
     45 H9         -0.9660    5.9100   -0.9230 ha        1 TAK      0.148000
     46 H10        -1.5250    8.2620   -0.2880 ha        1 TAK      0.136000
     47 H11        -3.5540    4.4610    2.2480 ha        1 TAK      0.148000
     48 H12        -4.0870    6.7920    2.8780 ha        1 TAK      0.136000
     49 H15        -5.2960    8.7020    2.1010 h4        1 TAK      0.185000
     50 H16        -1.1030    9.7870    1.4170 h4        1 TAK      0.040100
     51 H18        -6.3740   13.2950    3.3460 h4        1 TAK      0.059800
     52 H21        -5.4630   15.3100    2.6250 ha        1 TAK      0.149000
     53 H22        -4.3630   17.5600    2.8830 h4        1 TAK      0.019600
     54 H23        -0.6270   15.8380    3.4670 h4        1 TAK      0.019600
     55 H24        -1.5540   13.5120    3.2510 ha        1 TAK      0.149000
@<TRIPOS>BOND
     1    1    2 1   
     2    1    6 1   
     3    1   31 1   
     4    1   32 1   
     5    2    3 1   
     6    2   33 1   
     7    2   34 1   
     8    3    4 1   
     9    3   35 1   
    10    3   36 1   
    11    4    5 1   
    12    4   37 1   
    13    4   38 1   
    14    5    6 1   
    15    5   39 1   
    16    5   40 1   
    17    6    7 1   
    18    7    8 1   
    19    7   41 1   
    20    7   42 1   
    21    8    9 1   
    22    8   43 1   
    23    8   44 1   
    24    9   10 1   
    25   10   11 ar  
    26   10   13 ar  
    27   11   12 ar  
    28   11   45 1   
    29   12   15 ar  
    30   12   46 1   
    31   13   14 ar  
    32   13   47 1   
    33   14   15 ar  
    34   14   48 1   
    35   15   16 1   
    36   16   17 2   
    37   16   18 1   
    38   17   21 1   
    39   17   49 1   
    40   18   19 2   
    41   18   50 1   
    42   19   20 1   
    43   20   21 1   
    44   20   24 2   
    45   21   22 1   
    46   22   23 2   
    47   23   24 1   
    48   23   51 1   
    49   24   25 1   
    50   25   26 ar  
    51   25   30 ar  
    52   26   27 ar  
    53   26   52 1   
    54   27   28 ar  
    55   27   53 1   
    56   28   29 ar  
    57   29   30 ar  
    58   29   54 1   
    59   30   55 1   
@<TRIPOS>SUBSTRUCTURE
     1 TAK         1 TEMP              0 ****  ****    0 ROOT
