@<TRIPOS>MOLECULE
TAK
   55    47     1     0     0
SMALL
bcc


@<TRIPOS>ATOM
      1 C1          4.8520   -3.6170    3.7670 c3        1 TAK     -0.064500
      2 C2          5.8560   -3.1690    4.8310 c3        1 TAK     -0.156500
      3 C3          5.2280   -3.0180    6.1680 c3        1 TAK     -0.158000
      4 C4          4.0200   -2.1690    6.1270 c3        1 TAK     -0.156500
      5 C5          3.0340   -2.6170    5.0690 c3        1 TAK     -0.064500
      6 N1          3.6590   -2.7750    3.7390 n3        1 TAK     -0.261000
      7 C6          2.6800   -3.3480    2.8100 c3        1 TAK     -0.070000
      8 C7          2.2450   -2.2640    1.7730 c3        1 TAK     -0.024000
      9 O1          1.1140   -2.7290    1.0510 os        1 TAK     -0.215000
     10 C8          0.4320   -1.7300    0.3630 c2        1 TAK      0.098000
     11 C9         -0.6010   -1.0470    0.9820 c2        1 TAK     -0.203000
     12 C10        -1.2940   -0.0760    0.2930 c1        1 TAK     -0.081000
     13 C11         0.7700   -1.4380   -0.9470 c1        1 TAK     -0.156000
     14 C12         0.0710   -0.4570   -1.6450 c1        1 TAK     -0.053500
     15 C13        -0.9530    0.2210   -1.0340 c1        1 TAK     -0.101500
     16 C14        -1.6940    1.2150   -1.7620 c1        1 TAK     -0.101500
     17 C15        -1.4560    2.5710   -1.7540 c1        1 TAK     -0.024500
     18 C16        -2.7680    0.7070   -2.4730 c1        1 TAK     -0.053500
     19 N2         -3.5890    1.5490   -3.1630 n1        1 TAK     -0.104000
     20 C17        -3.3500    2.9190   -3.1560 c1        1 TAK      0.020000
     21 N3         -2.2910    3.4250   -2.4570 n1        1 TAK     -0.107000
     22 N4         -2.2390    4.8090   -2.6910 n1        1 TAK     -0.087000
     23 C18        -3.2510    5.1320   -3.5190 c1        1 TAK     -0.109000
     24 C19        -3.9560    3.9560   -3.8190 c1        1 TAK     -0.140000
     25 C20        -4.7230    4.0380   -5.0180 c1        1 TAK      0.050000
     26 C21        -6.0810    4.0410   -4.9500 c1        1 TAK     -0.128000
     27 C22        -6.8340    3.9280   -6.1080 c1        1 TAK     -0.128000
     28 N5         -6.2160    3.8130   -7.3130 n1        1 TAK     -0.107000
     29 C23        -4.8580    3.8090   -7.3850 c1        1 TAK     -0.024500
     30 C24        -4.1030    3.9220   -6.2310 c1        1 TAK     -0.165000
     31 H1          4.5860   -4.5350    3.9480 h1        1 TAK      0.069500
     32 H1A         5.2950   -3.5790    2.8650 h1        1 TAK      0.069500
     33 H2          6.2480   -2.2900    4.5560 hc        1 TAK      0.087500
     34 H2A         6.5960   -3.8500    4.8940 hc        1 TAK      0.087500
     35 H3          5.8640   -2.6220    6.7680 hc        1 TAK      0.081000
     36 H3A         4.9820   -3.9040    6.5040 hc        1 TAK      0.081000
     37 H4          4.2850   -1.2550    5.9410 hc        1 TAK      0.087500
     38 H4A         3.5690   -2.2010    7.0300 hc        1 TAK      0.087500
     39 H5          2.6540   -3.4560    5.3350 h1        1 TAK      0.069500
     40 H5A         2.3250   -1.9600    5.0040 h1        1 TAK      0.069500
     41 H6          1.8730   -3.6600    3.3250 h1        1 TAK      0.088000
     42 H6A         3.0890   -4.1230    2.3310 h1        1 TAK      0.088000
     43 H7          2.0110   -1.4230    2.2510 h1        1 TAK      0.088500
     44 H7A         2.9730   -2.0940    1.1600 h1        1 TAK      0.088500
     45 H9         -0.8410   -1.2570    1.9150 ha        1 TAK      0.145000
     46 H10        -2.0140    0.4000    0.7230 ha        1 TAK      0.135000
     47 H11         1.4750   -1.9060   -1.3680 ha        1 TAK      0.154000
     48 H12         0.3040   -0.2540   -2.5520 ha        1 TAK      0.157000
     49 H15        -0.6860    2.9400   -1.2380 ha        1 TAK      0.171500
     50 H16        -2.9490   -0.2840   -2.4730 ha        1 TAK      0.157000
     51 H18        -3.4960    6.0110   -3.7830 DU        1 TAK      0.189000
     52 H21        -6.5230    4.1250   -4.0920 ha        1 TAK      0.147500
     53 H22        -7.7910    3.9290   -6.0600 ha        1 TAK      0.147500
     54 H23        -4.4190    3.7280   -8.2460 ha        1 TAK      0.171500
     55 H24        -3.1160    3.9200   -6.2840 ha        1 TAK      0.159000
@<TRIPOS>BOND
     1    1    2 1   
     2    1    6 1   
     3    1   31 1   
     4    1   32 1   
     5    2    3 1   
     6    2   33 1   
     7    2   34 1   
     8    3    4 1   
     9    3   35 1   
    10    3   36 1   
    11    4    5 1   
    12    4   37 1   
    13    4   38 1   
    14    5    6 1   
    15    5   39 1   
    16    5   40 1   
    17    6    7 1   
    18    7    8 1   
    19    7   41 1   
    20    7   42 1   
    21    8    9 1   
    22    8   43 1   
    23    8   44 1   
    24    9   10 1   
    25   10   11 1   
    26   10   13 1   
    27   11   12 1   
    28   11   45 1   
    29   12   46 1   
    30   13   47 1   
    31   14   15 1   
    32   14   48 1   
    33   16   18 1   
    34   17   21 1   
    35   17   49 1   
    36   18   50 1   
    37   19   20 1   
    38   22   23 1   
    39   23   24 1   
    40   24   25 1   
    41   25   30 1   
    42   26   27 1   
    43   26   52 1   
    44   27   53 1   
    45   28   29 1   
    46   29   54 1   
    47   30   55 1   
@<TRIPOS>SUBSTRUCTURE
     1 TAK         1 TEMP              0 ****  ****    0 ROOT
