@<TRIPOS>MOLECULE
TAK
   55    59     1     0     0
SMALL
bcc


@<TRIPOS>ATOM
      1 C1         -7.9030   -0.5510   -0.9640 c3        1 TAK      0.176300
      2 C2         -8.4630   -1.9670   -0.8390 c3        1 TAK     -0.077900
      3 C3         -9.0830   -2.1950    0.5230 c3        1 TAK     -0.078400
      4 C4         -8.0920   -1.8570    1.6150 c3        1 TAK     -0.077900
      5 C5         -7.5460   -0.4410    1.4400 c3        1 TAK      0.176300
      6 N1         -6.9920   -0.1990    0.1160 n3        1 TAK     -0.738600
      7 C6         -6.4400    1.1380   -0.0230 c3        1 TAK      0.173800
      8 C7         -4.9910    1.2420    0.4770 c3        1 TAK      0.126400
      9 O1         -4.1700    0.9290   -0.6560 os        1 TAK     -0.320900
     10 C8         -2.8160    0.8570   -0.4220 ca        1 TAK      0.145100
     11 C9         -2.0490    0.4190   -1.5210 ca        1 TAK     -0.181000
     12 C10        -0.6710    0.3270   -1.3960 ca        1 TAK     -0.082000
     13 C11        -2.1940    1.1960    0.7860 ca        1 TAK     -0.181000
     14 C12        -0.8090    1.0960    0.8930 ca        1 TAK     -0.082000
     15 C13        -0.0340    0.6630   -0.1890 ca        1 TAK     -0.079000
     16 C14         1.4120    0.5600   -0.0710 cc        1 TAK     -0.190300
     17 C15         2.1450    1.5170    0.6130 cd        1 TAK     -0.000300
     18 C16         2.1170   -0.5510   -0.6690 cc        1 TAK      0.442200
     19 N2          3.4240   -0.7240   -0.6080 nd        1 TAK     -0.630000
     20 C17         4.1510    0.2260    0.0750 cd        1 TAK      0.371500
     21 N3          3.5180    1.3750    0.7050 na        1 TAK      0.044200
     22 N4          4.4140    2.1750    1.3060 nd        1 TAK     -0.555100
     23 C18         5.6310    1.6080    1.0980 cc        1 TAK      0.394500
     24 C19         5.5410    0.3840    0.3350 cc        1 TAK     -0.214800
     25 C20         6.6400   -0.4500   -0.0610 ca        1 TAK      0.039200
     26 C21         7.9350    0.0920   -0.1620 ca        1 TAK     -0.239800
     27 C22         8.9940   -0.7460   -0.5430 ca        1 TAK      0.391200
     28 N5          8.8480   -2.0560   -0.8240 nb        1 TAK     -0.669000
     29 C23         7.6060   -2.5650   -0.7250 ca        1 TAK      0.391200
     30 C24         6.4780   -1.8150   -0.3490 ca        1 TAK     -0.239800
     31 H1         -7.3280   -0.4750   -1.9300 h1        1 TAK      0.028200
     32 H1A        -8.7700    0.1720   -1.0220 h1        1 TAK      0.028200
     33 H2         -9.2300   -2.1140   -1.6420 hc        1 TAK      0.048700
     34 H2A        -7.6420   -2.7120   -1.0080 hc        1 TAK      0.048700
     35 H3         -9.9980   -1.5550    0.6320 hc        1 TAK      0.040700
     36 H3A        -9.4060   -3.2630    0.6200 hc        1 TAK      0.040700
     37 H4         -8.5850   -1.9230    2.6190 hc        1 TAK      0.048700
     38 H4A        -7.2470   -2.5930    1.5990 hc        1 TAK      0.048700
     39 H5         -8.3730    0.2920    1.6810 h1        1 TAK      0.028200
     40 H5A        -6.7190   -0.2750    2.1870 h1        1 TAK      0.028200
     41 H6         -6.4470    1.4370   -1.1110 h1        1 TAK      0.049200
     42 H6A        -7.0420    1.9030    0.5480 h1        1 TAK      0.049200
     43 H7         -4.7780    2.2960    0.7980 h1        1 TAK      0.045700
     44 H7A        -4.7690    0.5340    1.3170 h1        1 TAK      0.045700
     45 H9         -2.5550    0.1580   -2.4610 ha        1 TAK      0.148000
     46 H10        -0.0690   -0.0070   -2.2560 ha        1 TAK      0.136000
     47 H11        -2.7810    1.5380    1.6500 ha        1 TAK      0.148000
     48 H12        -0.3220    1.3550    1.8470 ha        1 TAK      0.136000
     49 H15         1.6900    2.4020    1.0940 h4        1 TAK      0.185000
     50 H16         1.5410   -1.3230   -1.2140 h4        1 TAK      0.040100
     51 H18         6.5410    2.0650    1.4940 h4        1 TAK      0.059800
     52 H21         8.1170    1.1540    0.0450 ha        1 TAK      0.149000
     53 H22        10.0210   -0.3480   -0.6320 h4        1 TAK      0.019600
     54 H23         7.5080   -3.6400   -0.9600 h4        1 TAK      0.019600
     55 H24         5.4950   -2.2990   -0.2840 ha        1 TAK      0.149000
@<TRIPOS>BOND
     1    1    2 1   
     2    1    6 1   
     3    1   31 1   
     4    1   32 1   
     5    2    3 1   
     6    2   33 1   
     7    2   34 1   
     8    3    4 1   
     9    3   35 1   
    10    3   36 1   
    11    4    5 1   
    12    4   37 1   
    13    4   38 1   
    14    5    6 1   
    15    5   39 1   
    16    5   40 1   
    17    6    7 1   
    18    7    8 1   
    19    7   41 1   
    20    7   42 1   
    21    8    9 1   
    22    8   43 1   
    23    8   44 1   
    24    9   10 1   
    25   10   11 ar  
    26   10   13 ar  
    27   11   12 ar  
    28   11   45 1   
    29   12   15 ar  
    30   12   46 1   
    31   13   14 ar  
    32   13   47 1   
    33   14   15 ar  
    34   14   48 1   
    35   15   16 1   
    36   16   17 2   
    37   16   18 1   
    38   17   21 1   
    39   17   49 1   
    40   18   19 2   
    41   18   50 1   
    42   19   20 1   
    43   20   21 1   
    44   20   24 2   
    45   21   22 1   
    46   22   23 2   
    47   23   24 1   
    48   23   51 1   
    49   24   25 1   
    50   25   26 ar  
    51   25   30 ar  
    52   26   27 ar  
    53   26   52 1   
    54   27   28 ar  
    55   27   53 1   
    56   28   29 ar  
    57   29   30 ar  
    58   29   54 1   
    59   30   55 1   
@<TRIPOS>SUBSTRUCTURE
     1 TAK         1 TEMP              0 ****  ****    0 ROOT
