@<TRIPOS>MOLECULE
TAL
   36    38     1     0     0
SMALL
bcc


@<TRIPOS>ATOM
      1 O5'         1.9930   -0.3300    2.1440 oh        1 TAL     -0.608800
      2 C5'         1.2930    0.2840    3.2110 c3        1 TAL      0.135100
      3 C6'         1.9010    1.6270    3.5720 c3        1 TAL     -0.131100
      4 C4'        -0.1960    0.4420    2.8640 c3        1 TAL      0.070100
      5 O4'        -0.3180    1.0060    1.5530 os        1 TAL     -0.418600
      6 C1'        -1.0460    0.1450    0.6580 c3        1 TAL      0.256800
      7 N9         -0.2170   -0.2510   -0.4500 na        1 TAL     -0.289000
      8 C8          0.8890   -1.1400   -0.4520 cc        1 TAL      0.420700
      9 N7          1.5020   -1.2430   -1.6380 nd        1 TAL     -0.538100
     10 C5          0.8050   -0.3720   -2.4930 ca        1 TAL     -0.169200
     11 C4         -0.2820    0.2770   -1.7530 ca        1 TAL      0.435800
     12 N3         -1.1360    1.1780   -2.3160 nb        1 TAL     -0.690000
     13 C2         -0.8710    1.4070   -3.6240 ca        1 TAL      0.648900
     14 N1          0.1040    0.8680   -4.4150 nb        1 TAL     -0.716000
     15 C6          0.9510   -0.0270   -3.8620 ca        1 TAL      0.515600
     16 C7          2.0370   -0.6610   -4.6610 c3        1 TAL     -0.155400
     17 C2'        -1.5780   -1.0580    1.4960 c3        1 TAL      0.076100
     18 O2'        -2.9850   -0.9100    1.5370 oh        1 TAL     -0.588800
     19 C3'        -0.9670   -0.8880    2.9030 c3        1 TAL      0.087100
     20 O3'        -1.9680   -0.9020    3.8960 oh        1 TAL     -0.585800
     21 H5'         2.0270    0.3110    1.4200 ho        1 TAL      0.417000
     22 H1          1.3980   -0.4410    4.0690 h1        1 TAL      0.082700
     23 H6'1        3.0030    1.5170    3.7090 hc        1 TAL      0.052367
     24 H6'2        1.7110    2.3660    2.7570 hc        1 TAL      0.052367
     25 H6'3        1.4530    2.0100    4.5180 hc        1 TAL      0.052367
     26 H4'        -0.6640    1.1910    3.5630 h1        1 TAL      0.081700
     27 H1'        -1.9020    0.7730    0.2610 h2        1 TAL      0.138700
     28 H8          1.1870   -1.6740    0.4640 h5        1 TAL      0.091800
     29 H2         -1.5400    2.1380   -4.1260 h5        1 TAL      0.057100
     30 H71         1.8960   -1.7700   -4.6530 hc        1 TAL      0.065367
     31 H72         2.0490   -0.3030   -5.7190 hc        1 TAL      0.065367
     32 H73         3.0230   -0.4270   -4.1870 hc        1 TAL      0.065367
     33 H2'        -1.3050   -2.0500    1.0510 h1        1 TAL      0.073700
     34 H3         -3.3260   -1.6550    2.0510 ho        1 TAL      0.425000
     35 H3'        -0.2920   -1.7480    3.1640 h1        1 TAL      0.105700
     36 H4         -2.5800   -0.1760    3.7080 ho        1 TAL      0.418000
@<TRIPOS>BOND
     1    1    2 1   
     2    1   21 1   
     3    2    3 1   
     4    2    4 1   
     5    2   22 1   
     6    3   23 1   
     7    3   24 1   
     8    3   25 1   
     9    4    5 1   
    10    4   19 1   
    11    4   26 1   
    12    5    6 1   
    13    6    7 1   
    14    6   17 1   
    15    6   27 1   
    16    7    8 1   
    17    7   11 1   
    18    8    9 2   
    19    8   28 1   
    20    9   10 1   
    21   10   11 ar  
    22   10   15 ar  
    23   11   12 ar  
    24   12   13 ar  
    25   13   14 ar  
    26   13   29 1   
    27   14   15 ar  
    28   15   16 1   
    29   16   30 1   
    30   16   31 1   
    31   16   32 1   
    32   17   18 1   
    33   17   19 1   
    34   17   33 1   
    35   18   34 1   
    36   19   20 1   
    37   19   35 1   
    38   20   36 1   
@<TRIPOS>SUBSTRUCTURE
     1 TAL         1 TEMP              0 ****  ****    0 ROOT
