@<TRIPOS>MOLECULE
TAM
   29    28     1     0     0
SMALL
bcc


@<TRIPOS>ATOM
      1 C           0.0850    0.1630    0.1660 c3        1 TAM      0.165200
      2 C1          1.6000    0.4520    0.1560 c3        1 TAM     -0.117733
      3 C2         -0.4140    0.4000    1.6070 c3        1 TAM     -0.117733
      4 C3         -0.6680    1.0340   -0.8520 c3        1 TAM     -0.117733
      5 C4          2.2960    0.2670   -1.1820 c3        1 TAM      0.125733
      6 C5         -1.8770    0.0820    1.8690 c3        1 TAM      0.125733
      7 C6         -0.3950    2.5250   -0.6940 c3        1 TAM      0.125733
      8 N          -0.1450   -1.2950   -0.2020 n4        1 TAM     -0.837600
      9 O4          2.2740   -1.1170   -1.5040 oh        1 TAM     -0.637133
     10 O5         -2.0540   -1.3230    1.7480 oh        1 TAM     -0.637133
     11 O6         -1.3100    3.1630   -1.5660 oh        1 TAM     -0.637133
     12 H11         1.7380    1.5200    0.4760 hc        1 TAM      0.087033
     13 H12         2.1070   -0.1980    0.9210 hc        1 TAM      0.087033
     14 H21        -0.2490    1.4840    1.8460 hc        1 TAM      0.087033
     15 H22         0.2170   -0.2020    2.3160 hc        1 TAM      0.087033
     16 H31        -1.7760    0.8700   -0.7550 hc        1 TAM      0.087033
     17 H32        -0.3830    0.7440   -1.9000 hc        1 TAM      0.087033
     18 H41         3.3560    0.6310   -1.0950 h1        1 TAM      0.052033
     19 H42         1.7780    0.8420   -1.9970 h1        1 TAM      0.052033
     20 H51        -2.5530    0.6000    1.1360 h1        1 TAM      0.052033
     21 H52        -2.1400    0.4210    2.9080 h1        1 TAM      0.052033
     22 H61         0.6610    2.7700   -0.9900 h1        1 TAM      0.052033
     23 H62        -0.5710    2.8640    0.3620 h1        1 TAM      0.052033
     24 HN1         0.3330   -1.8890    0.4790 hn        1 TAM      0.466800
     25 HN2         0.2350   -1.4800   -1.1380 hn        1 TAM      0.466800
     26 HO4         2.9540   -1.2760   -2.1700 ho        1 TAM      0.441333
     27 HO5        -2.8620   -1.5600    2.2200 ho        1 TAM      0.441333
     28 HO6        -1.1310    4.1110   -1.5210 ho        1 TAM      0.441333
     29 HN3        -1.1510   -1.5000   -0.1740 hn        1 TAM      0.466800
@<TRIPOS>BOND
     1    1    2 1   
     2    1    3 1   
     3    1    4 1   
     4    1    8 1   
     5    2    5 1   
     6    2   12 1   
     7    2   13 1   
     8    3    6 1   
     9    3   14 1   
    10    3   15 1   
    11    4    7 1   
    12    4   16 1   
    13    4   17 1   
    14    5    9 1   
    15    5   18 1   
    16    5   19 1   
    17    6   10 1   
    18    6   20 1   
    19    6   21 1   
    20    7   11 1   
    21    7   22 1   
    22    7   23 1   
    23    8   24 1   
    24    8   25 1   
    25    8   29 1   
    26    9   26 1   
    27   10   27 1   
    28   11   28 1   
@<TRIPOS>SUBSTRUCTURE
     1 TAM         1 TEMP              0 ****  ****    0 ROOT
