@<TRIPOS>MOLECULE
TAM
   29    28     1     0     0
SMALL
bcc


@<TRIPOS>ATOM
      1 C           0.1270    0.1680    0.1450 c3        1 TAM      0.165200
      2 C1          1.6390    0.4720    0.1100 c3        1 TAM     -0.117400
      3 C2         -0.3570    0.4350    1.5850 c3        1 TAM     -0.117400
      4 C3         -0.6510    1.0040   -0.8830 c3        1 TAM     -0.117400
      5 C4          2.3480    0.1900   -1.2040 c3        1 TAM      0.125733
      6 C5         -1.8340    0.1850    1.8400 c3        1 TAM      0.125733
      7 C6         -0.6450    2.4970   -0.5780 c3        1 TAM      0.125733
      8 N          -0.0870   -1.3020   -0.1860 nz        1 TAM     -0.837600
      9 O4          2.3480   -1.2150   -1.4160 oh        1 TAM     -0.637133
     10 O5         -2.0720   -1.2110    1.7190 oh        1 TAM     -0.637133
     11 O6         -1.2340    3.1070   -1.7120 oh        1 TAM     -0.637133
     12 H11         1.7680    1.5630    0.3440 hc        1 TAM      0.086867
     13 H12         2.1490   -0.1100    0.9250 hc        1 TAM      0.086867
     14 H21         0.2450   -0.1890    2.3010 hc        1 TAM      0.086867
     15 H22        -0.1420    1.5140    1.8140 hc        1 TAM      0.086867
     16 H31        -1.7230    0.6680   -0.9270 hc        1 TAM      0.086867
     17 H32        -0.2160    0.8560   -1.9090 hc        1 TAM      0.086867
     18 H41         1.8350    0.6900   -2.0700 h1        1 TAM      0.051867
     19 H42         3.4020    0.5750   -1.1370 h1        1 TAM      0.051867
     20 H51        -2.4770    0.7340    1.0990 h1        1 TAM      0.051867
     21 H52        -2.0900    0.5360    2.8760 h1        1 TAM      0.051867
     22 H61        -1.2510    2.7180    0.3420 h1        1 TAM      0.051867
     23 H62         0.4000    2.8820   -0.4340 h1        1 TAM      0.051867
     24 HN1         0.4410   -1.8730    0.4780 hn        1 TAM      0.466800
     25 HN2        -1.0850   -1.5310   -0.1100 hn        1 TAM      0.466800
     26 HO4         3.0520   -1.4190   -2.0450 ho        1 TAM      0.441333
     27 HO5        -2.9080   -1.4060    2.1620 ho        1 TAM      0.441333
     28 HO6        -1.2840    4.0550   -1.5300 ho        1 TAM      0.441333
     29 HN3         0.2560   -1.4920   -1.1350 hn        1 TAM      0.466800
@<TRIPOS>BOND
     1    1    2 1   
     2    1    3 1   
     3    1    4 1   
     4    1    8 1   
     5    2    5 1   
     6    2   12 1   
     7    2   13 1   
     8    3    6 1   
     9    3   14 1   
    10    3   15 1   
    11    4    7 1   
    12    4   16 1   
    13    4   17 1   
    14    5    9 1   
    15    5   18 1   
    16    5   19 1   
    17    6   10 1   
    18    6   20 1   
    19    6   21 1   
    20    7   11 1   
    21    7   22 1   
    22    7   23 1   
    23    8   24 1   
    24    8   25 1   
    25    8   29 1   
    26    9   26 1   
    27   10   27 1   
    28   11   28 1   
@<TRIPOS>SUBSTRUCTURE
     1 TAM         1 TEMP              0 ****  ****    0 ROOT
