@<TRIPOS>MOLECULE
TAM
   28    27     1     0     0
SMALL
bcc


@<TRIPOS>ATOM
      1 C           1.8360   -0.1840   -1.2630 c3        1 TAM      0.189200
      2 C1          1.0080    0.1940   -0.0140 c3        1 TAM     -0.104067
      3 C2          1.5530   -1.6850   -1.5180 c3        1 TAM     -0.104067
      4 C3          1.3610    0.6300   -2.4920 c3        1 TAM     -0.104067
      5 C4          1.1590    1.6480    0.3960 c3        1 TAM      0.129400
      6 C5          2.5090   -2.3390   -2.5000 c3        1 TAM      0.129400
      7 C6         -0.1460    0.7620   -2.6240 c3        1 TAM      0.129400
      8 N           3.2630    0.0220   -0.9930 n3        1 TAM     -0.900800
      9 O4          0.0520    1.9460    1.2360 oh        1 TAM     -0.601467
     10 O5          1.8620   -3.5120   -2.9730 oh        1 TAM     -0.601467
     11 O6         -0.4900    1.4280   -3.8250 oh        1 TAM     -0.601467
     12 H11         1.3210   -0.4550    0.8470 hc        1 TAM      0.058200
     13 H12        -0.0720   -0.0270   -0.2160 hc        1 TAM      0.058200
     14 H21         0.5050   -1.7930   -1.9000 hc        1 TAM      0.058200
     15 H22         1.6140   -2.2400   -0.5450 hc        1 TAM      0.058200
     16 H31         1.7950    1.6650   -2.4550 hc        1 TAM      0.058200
     17 H32         1.7610    0.1460   -3.4230 hc        1 TAM      0.058200
     18 H41         1.1440    2.3300   -0.4970 h1        1 TAM      0.033533
     19 H42         2.1180    1.8090    0.9590 h1        1 TAM      0.033533
     20 H51         3.4770   -2.6080   -1.9970 h1        1 TAM      0.033533
     21 H52         2.7330   -1.6670   -3.3730 h1        1 TAM      0.033533
     22 H61        -0.5670    1.4210   -1.8140 h1        1 TAM      0.033533
     23 H62        -0.6480   -0.2410   -2.5830 h1        1 TAM      0.033533
     24 HN1         3.4280    0.9770   -0.7420 hn        1 TAM      0.346800
     25 HN2         3.8000   -0.1970   -1.8080 hn        1 TAM      0.346800
     26 HO4         0.1800    2.8490    1.5490 ho        1 TAM      0.399000
     27 HO5         2.5210   -4.0100   -3.4700 ho        1 TAM      0.399000
     28 HO6        -0.1920    0.8750   -4.5560 ho        1 TAM      0.399000
@<TRIPOS>BOND
     1    1    2 1   
     2    1    3 1   
     3    1    4 1   
     4    1    8 1   
     5    2    5 1   
     6    2   12 1   
     7    2   13 1   
     8    3    6 1   
     9    3   14 1   
    10    3   15 1   
    11    4    7 1   
    12    4   16 1   
    13    4   17 1   
    14    5    9 1   
    15    5   18 1   
    16    5   19 1   
    17    6   10 1   
    18    6   20 1   
    19    6   21 1   
    20    7   11 1   
    21    7   22 1   
    22    7   23 1   
    23    8   24 1   
    24    8   25 1   
    25    9   26 1   
    26   10   27 1   
    27   11   28 1   
@<TRIPOS>SUBSTRUCTURE
     1 TAM         1 TEMP              0 ****  ****    0 ROOT
