@<TRIPOS>MOLECULE
TAM
   29    28     1     0     0
SMALL
bcc


@<TRIPOS>ATOM
      1 C           0.1260    0.1650    0.1390 c3        1 TAM      0.165200
      2 C1          1.6400    0.4630    0.1020 c3        1 TAM     -0.117400
      3 C2         -0.3500    0.4080    1.5860 c3        1 TAM     -0.117400
      4 C3         -0.6520    1.0240   -0.8700 c3        1 TAM     -0.117400
      5 C4          2.3420    0.2000   -1.2200 c3        1 TAM      0.125733
      6 C5         -1.8270    0.1600    1.8420 c3        1 TAM      0.125733
      7 C6         -0.6400    2.5110   -0.5360 c3        1 TAM      0.125733
      8 N          -0.0970   -1.2970   -0.2180 n4        1 TAM     -0.837600
      9 O4          2.3350   -1.2020   -1.4540 oh        1 TAM     -0.637133
     10 O5         -2.0720   -1.2320    1.6970 oh        1 TAM     -0.637133
     11 O6         -1.2260    3.1460   -1.6570 oh        1 TAM     -0.637133
     12 H11         1.7750    1.5490    0.3540 hc        1 TAM      0.086867
     13 H12         2.1500   -0.1360    0.9050 hc        1 TAM      0.086867
     14 H21         0.2520   -0.2320    2.2870 hc        1 TAM      0.086867
     15 H22        -0.1290    1.4810    1.8340 hc        1 TAM      0.086867
     16 H31        -1.7250    0.6940   -0.9180 hc        1 TAM      0.086867
     17 H32        -0.2210    0.8950   -1.9000 hc        1 TAM      0.086867
     18 H41         1.8270    0.7160   -2.0740 h1        1 TAM      0.052033
     19 H42         3.3970    0.5790   -1.1500 h1        1 TAM      0.052033
     20 H51        -2.4700    0.7250    1.1140 h1        1 TAM      0.052033
     21 H52        -2.0770    0.4940    2.8860 h1        1 TAM      0.052033
     22 H61        -1.2450    2.7170    0.3890 h1        1 TAM      0.052033
     23 H62         0.4070    2.8890   -0.3850 h1        1 TAM      0.052033
     24 HN1         0.4310   -1.8830    0.4320 hn        1 TAM      0.466800
     25 HN2        -1.0960   -1.5230   -0.1420 hn        1 TAM      0.466800
     26 HO4         3.0360   -1.3980   -2.0880 ho        1 TAM      0.441333
     27 HO5        -2.9060   -1.4320    2.1420 ho        1 TAM      0.441333
     28 HO6        -1.2730    4.0900   -1.4560 ho        1 TAM      0.441333
     29 HN3         0.2410   -1.4710   -1.1720 hn        1 TAM      0.466800
@<TRIPOS>BOND
     1    1    2 1   
     2    1    3 1   
     3    1    4 1   
     4    1    8 1   
     5    2    5 1   
     6    2   12 1   
     7    2   13 1   
     8    3    6 1   
     9    3   14 1   
    10    3   15 1   
    11    4    7 1   
    12    4   16 1   
    13    4   17 1   
    14    5    9 1   
    15    5   18 1   
    16    5   19 1   
    17    6   10 1   
    18    6   20 1   
    19    6   21 1   
    20    7   11 1   
    21    7   22 1   
    22    7   23 1   
    23    8   24 1   
    24    8   25 1   
    25    8   29 1   
    26    9   26 1   
    27   10   27 1   
    28   11   28 1   
@<TRIPOS>SUBSTRUCTURE
     1 TAM         1 TEMP              0 ****  ****    0 ROOT
