@<TRIPOS>MOLECULE
TAN
   15    14     1     0     0
SMALL
bcc


@<TRIPOS>ATOM
      1 C           2.0330   -1.1880   -0.6290 c1        1 TAN      0.217700
      2 N           2.4080   -2.1600   -1.1420 n1        1 TAN     -0.378800
      3 C1          0.0410    0.0990   -0.0770 c3        1 TAN     -0.089100
      4 C2          1.5620    0.0350    0.0160 c3        1 TAN      0.011100
      5 C3          1.9870    0.0270    1.4820 c3        1 TAN     -0.089100
      6 C4          2.1720    1.2430   -0.6890 c3        1 TAN     -0.089100
      7 H1         -0.2840    0.1050   -1.1450 hc        1 TAN      0.046033
      8 H1A        -0.3230    1.0330    0.4140 hc        1 TAN      0.046033
      9 H1B        -0.4190   -0.7790    0.4350 hc        1 TAN      0.046033
     10 H3          1.5490   -0.8530    2.0100 hc        1 TAN      0.046033
     11 H3A         1.6280    0.9600    1.9780 hc        1 TAN      0.046033
     12 H3B         3.0990   -0.0200    1.5650 hc        1 TAN      0.046033
     13 H4          1.8140    2.1800   -0.1980 hc        1 TAN      0.046033
     14 H4A         3.2860    1.2080   -0.6290 hc        1 TAN      0.046033
     15 H4B         1.8690    1.2610   -1.7630 hc        1 TAN      0.046033
@<TRIPOS>BOND
     1    1    2 3   
     2    1    4 1   
     3    3    4 1   
     4    3    7 1   
     5    3    8 1   
     6    3    9 1   
     7    4    5 1   
     8    4    6 1   
     9    5   10 1   
    10    5   11 1   
    11    5   12 1   
    12    6   13 1   
    13    6   14 1   
    14    6   15 1   
@<TRIPOS>SUBSTRUCTURE
     1 TAN         1 TEMP              0 ****  ****    0 ROOT
