@<TRIPOS>MOLECULE
TAN
   15    14     1     0     0
SMALL
bcc


@<TRIPOS>ATOM
      1 C           1.0990    0.0000    0.0000 c1        1 TAN      0.217700
      2 N           2.2610    0.0000    0.0000 n1        1 TAN     -0.378800
      3 C1         -0.8650   -0.0010    1.4400 c3        1 TAN     -0.089100
      4 C2         -0.3610   -0.0000    0.0000 c3        1 TAN      0.011100
      5 C3         -0.8650    1.2480   -0.7190 c3        1 TAN     -0.089100
      6 C4         -0.8650   -1.2470   -0.7210 c3        1 TAN     -0.089100
      7 H1         -0.5040    0.9060    1.9800 hc        1 TAN      0.046033
      8 H1A        -1.9810   -0.0010    1.4440 hc        1 TAN      0.046033
      9 H1B        -0.5040   -0.9090    1.9790 hc        1 TAN      0.046033
     10 H3         -0.5030    1.2620   -1.7750 hc        1 TAN      0.046033
     11 H3A        -1.9810    1.2510   -0.7210 hc        1 TAN      0.046033
     12 H3B        -0.5040    2.1680   -0.2020 hc        1 TAN      0.046033
     13 H4         -0.5030   -2.1680   -0.2050 hc        1 TAN      0.046033
     14 H4A        -1.9810   -1.2510   -0.7230 hc        1 TAN      0.046033
     15 H4B        -0.5030   -1.2590   -1.7770 hc        1 TAN      0.046033
@<TRIPOS>BOND
     1    1    2 3   
     2    1    4 1   
     3    3    4 1   
     4    3    7 1   
     5    3    8 1   
     6    3    9 1   
     7    4    5 1   
     8    4    6 1   
     9    5   10 1   
    10    5   11 1   
    11    5   12 1   
    12    6   13 1   
    13    6   14 1   
    14    6   15 1   
@<TRIPOS>SUBSTRUCTURE
     1 TAN         1 TEMP              0 ****  ****    0 ROOT
