@<TRIPOS>MOLECULE
TAN
   15    14     1     0     0
SMALL
bcc


@<TRIPOS>ATOM
      1 C           2.0380   -1.1890   -0.6230 c1        1 TAN      0.217700
      2 N           2.4160   -2.1630   -1.1320 n1        1 TAN     -0.378800
      3 C1          0.0420    0.0960   -0.0800 c3        1 TAN     -0.089100
      4 C2          1.5630    0.0350    0.0170 c3        1 TAN      0.011100
      5 C3          1.9840    0.0320    1.4830 c3        1 TAN     -0.089100
      6 C4          2.1710    1.2420   -0.6910 c3        1 TAN     -0.089100
      7 H1         -0.2810    0.0970   -1.1490 hc        1 TAN      0.046033
      8 H1A        -0.3260    1.0300    0.4080 hc        1 TAN      0.046033
      9 H1B        -0.4170   -0.7820    0.4330 hc        1 TAN      0.046033
     10 H3          1.5460   -0.8460    2.0140 hc        1 TAN      0.046033
     11 H3A         1.6230    0.9670    1.9760 hc        1 TAN      0.046033
     12 H3B         3.0960   -0.0130    1.5690 hc        1 TAN      0.046033
     13 H4          1.8110    2.1790   -0.2040 hc        1 TAN      0.046033
     14 H4A         3.2850    1.2100   -0.6280 hc        1 TAN      0.046033
     15 H4B         1.8720    1.2560   -1.7660 hc        1 TAN      0.046033
@<TRIPOS>BOND
     1    1    2 3   
     2    1    4 1   
     3    3    4 1   
     4    3    7 1   
     5    3    8 1   
     6    3    9 1   
     7    4    5 1   
     8    4    6 1   
     9    5   10 1   
    10    5   11 1   
    11    5   12 1   
    12    6   13 1   
    13    6   14 1   
    14    6   15 1   
@<TRIPOS>SUBSTRUCTURE
     1 TAN         1 TEMP              0 ****  ****    0 ROOT
