@<TRIPOS>MOLECULE
TAN
   15    13     1     0     0
SMALL
bcc


@<TRIPOS>ATOM
      1 C           0.5210    1.4090   -0.8210 c1        1 TAN     -0.135000
      2 N           0.8830    2.3430   -1.3650 n1        1 TAN     -0.053000
      3 C1         -1.4960    0.1740   -0.1080 c3        1 TAN     -0.207000
      4 C2          0.0170    0.1740   -0.1080 c2        1 TAN      0.038000
      5 C3          0.5210    0.1740    1.3190 c3        1 TAN     -0.207000
      6 C4          0.5210   -1.0620   -0.8210 c3        1 TAN     -0.207000
      7 H1         -1.5450    1.0830    0.2440 hc        1 TAN      0.085333
      8 H1A        -1.4730    0.1770   -1.0840 hc        1 TAN      0.085333
      9 H1B        -1.6090   -0.6720    0.3670 hc        1 TAN      0.085333
     10 H3          0.2960    0.9190    1.9070 hc        1 TAN      0.085333
     11 H3A         0.2320   -0.6610    1.7330 hc        1 TAN      0.085333
     12 H3B         1.4820    0.0550    1.1920 hc        1 TAN      0.085333
     13 H4          1.4480   -1.2450   -0.5760 hc        1 TAN      0.085333
     14 H4A         0.2270   -1.7970   -0.2500 hc        1 TAN      0.085333
     15 H4B        -0.0230   -1.0710   -1.6310 hc        1 TAN      0.085333
@<TRIPOS>BOND
     1    1    2 1   
     2    3    4 1   
     3    3    7 1   
     4    3    8 1   
     5    3    9 1   
     6    4    5 1   
     7    4    6 1   
     8    5   10 1   
     9    5   11 1   
    10    5   12 1   
    11    6   13 1   
    12    6   14 1   
    13    6   15 1   
@<TRIPOS>SUBSTRUCTURE
     1 TAN         1 TEMP              0 ****  ****    0 ROOT
