@<TRIPOS>MOLECULE
TAQ
   22    23     1     0     0
SMALL
bcc


@<TRIPOS>ATOM
      1 C6         -0.0230    0.0730   -0.0660 ca        1 TAQ      0.100600
      2 N4         -0.6930    0.2000   -1.2920 nv        1 TAQ     -0.809200
      3 C1          1.4090    0.0370   -0.0380 ca        1 TAQ     -0.134000
      4 C2          2.0940    0.0180    1.1450 ca        1 TAQ     -0.166300
      5 C3          1.4010    0.0240    2.4000 ca        1 TAQ      0.449600
      6 N3          2.1280    0.0160    3.5660 nb        1 TAQ     -0.780000
      7 C8          1.4160    0.0390    4.7280 ca        1 TAQ      0.889900
      8 N2          2.1220    0.1660    5.9370 nv        1 TAQ     -0.919500
      9 N1          0.0160   -0.0060    4.8300 nb        1 TAQ     -0.818000
     10 C7         -0.6860    0.0200    3.6800 ca        1 TAQ      0.715200
     11 C4         -0.0250    0.0380    2.3740 ca        1 TAQ     -0.289600
     12 C5         -0.7140    0.0670    1.1450 ca        1 TAQ     -0.154000
     13 NAA        -2.0720    0.0750    3.7560 nv        1 TAQ     -0.944500
     14 H4N1       -0.1870   -0.1790   -2.0640 hn        1 TAQ      0.382800
     15 H4N2       -1.6390   -0.1110   -1.2670 hn        1 TAQ      0.382800
     16 H1          1.9650    0.0400   -0.9900 ha        1 TAQ      0.135000
     17 H2          3.1960    0.0010    1.1500 ha        1 TAQ      0.152000
     18 H2N1        1.6330   -0.1120    6.7560 hn        1 TAQ      0.418800
     19 H2N2        3.0820   -0.0900    5.9040 hn        1 TAQ      0.418800
     20 H5         -1.8130    0.1110    1.1300 ha        1 TAQ      0.125000
     21 HAA1       -2.4950   -0.0650    4.6450 hn        1 TAQ      0.421300
     22 HAA2       -2.5720   -0.2770    2.9760 hn        1 TAQ      0.421300
@<TRIPOS>BOND
     1    1    2 1   
     2    1    3 ar  
     3    1   12 ar  
     4    2   14 1   
     5    2   15 1   
     6    3    4 ar  
     7    3   16 1   
     8    4    5 ar  
     9    4   17 1   
    10    5    6 ar  
    11    5   11 ar  
    12    6    7 ar  
    13    7    8 1   
    14    7    9 ar  
    15    8   18 1   
    16    8   19 1   
    17    9   10 ar  
    18   10   11 ar  
    19   10   13 1   
    20   11   12 ar  
    21   12   20 1   
    22   13   21 1   
    23   13   22 1   
@<TRIPOS>SUBSTRUCTURE
     1 TAQ         1 TEMP              0 ****  ****    0 ROOT
