@<TRIPOS>MOLECULE
TAQ
   22    23     1     0     0
SMALL
bcc


@<TRIPOS>ATOM
      1 C6         -0.0280    0.0100   -0.0650 ca        1 TAQ      0.099600
      2 N4         -0.7040   -0.0770   -1.2930 nh        1 TAQ     -0.808200
      3 C1          1.4030    0.0170   -0.0390 ca        1 TAQ     -0.133000
      4 C2          2.0900    0.0250    1.1440 ca        1 TAQ     -0.166300
      5 C3          1.3980    0.0250    2.4000 ca        1 TAQ      0.448600
      6 N3          2.1240    0.0560    3.5660 nb        1 TAQ     -0.778000
      7 C8          1.4120    0.0670    4.7270 ca        1 TAQ      0.887900
      8 N2          2.1120    0.2360    5.9350 nh        1 TAQ     -0.918500
      9 N1          0.0150   -0.0310    4.8300 nb        1 TAQ     -0.815000
     10 C7         -0.6870   -0.0430    3.6800 ca        1 TAQ      0.709200
     11 C4         -0.0270   -0.0040    2.3740 ca        1 TAQ     -0.288600
     12 C5         -0.7190    0.0080    1.1460 ca        1 TAQ     -0.152000
     13 NAA        -2.0780   -0.0440    3.7520 nh        1 TAQ     -0.938500
     14 H4N1       -0.1860    0.2990   -2.0580 hn        1 TAQ      0.382800
     15 H4N2       -1.6370    0.2730   -1.2600 hn        1 TAQ      0.382800
     16 H1          1.9580    0.0120   -0.9910 ha        1 TAQ      0.136000
     17 H2          3.1920    0.0360    1.1480 ha        1 TAQ      0.153000
     18 H2N1        3.0810    0.0110    5.9040 hn        1 TAQ      0.417800
     19 H2N2        1.6330   -0.0540    6.7570 hn        1 TAQ      0.417800
     20 H5         -1.8190    0.0250    1.1330 ha        1 TAQ      0.127000
     21 HAA1       -2.4880   -0.2000    4.6450 hn        1 TAQ      0.418300
     22 HAA2       -2.5480   -0.4680    2.9870 hn        1 TAQ      0.418300
@<TRIPOS>BOND
     1    1    2 1   
     2    1    3 ar  
     3    1   12 ar  
     4    2   14 1   
     5    2   15 1   
     6    3    4 ar  
     7    3   16 1   
     8    4    5 ar  
     9    4   17 1   
    10    5    6 ar  
    11    5   11 ar  
    12    6    7 ar  
    13    7    8 1   
    14    7    9 ar  
    15    8   18 1   
    16    8   19 1   
    17    9   10 ar  
    18   10   11 ar  
    19   10   13 1   
    20   11   12 ar  
    21   12   20 1   
    22   13   21 1   
    23   13   22 1   
@<TRIPOS>SUBSTRUCTURE
     1 TAQ         1 TEMP              0 ****  ****    0 ROOT
