@<TRIPOS>MOLECULE
TAQ
   22    23     1     0     0
SMALL
bcc


@<TRIPOS>ATOM
      1 C6          0.0410   -0.0330    2.6140 ca        1 TAQ      0.099600
      2 N4         -0.3750   -0.1200    3.9530 nh        1 TAQ     -0.808200
      3 C1          1.4370   -0.0800    2.2970 ca        1 TAQ     -0.133000
      4 C2          1.8690   -0.0730    1.0000 ca        1 TAQ     -0.166300
      5 C3          0.9360   -0.0210   -0.0890 ca        1 TAQ      0.448600
      6 N3          1.4120    0.0070   -1.3780 nb        1 TAQ     -0.778000
      7 C8          0.4800    0.0690   -2.3700 ca        1 TAQ      0.887900
      8 N2          0.9270    0.2370   -3.6920 nh        1 TAQ     -0.918500
      9 N1         -0.9120    0.0260   -2.1870 nb        1 TAQ     -0.815000
     10 C7         -1.3650    0.0160   -0.9190 ca        1 TAQ      0.709200
     11 C4         -0.4540    0.0030    0.2260 ca        1 TAQ     -0.288600
     12 C5         -0.8800    0.0150    1.5690 ca        1 TAQ     -0.152000
     13 NAA        -2.7400    0.0680   -0.7060 nh        1 TAQ     -0.938500
     14 H4N1        0.3030    0.2200    4.6010 hn        1 TAQ      0.382800
     15 H4N2       -1.2800    0.2650    4.1150 hn        1 TAQ      0.382800
     16 H1          2.1720   -0.1260    3.1160 ha        1 TAQ      0.136000
     17 H2          2.9460   -0.1030    0.7720 ha        1 TAQ      0.153000
     18 H2N1        0.2800   -0.0170   -4.4030 hn        1 TAQ      0.417800
     19 H2N2        1.8710   -0.0250   -3.8620 hn        1 TAQ      0.417800
     20 H5         -1.9530    0.0730    1.8060 ha        1 TAQ      0.127000
     21 HAA1       -3.3300   -0.0540   -1.4990 hn        1 TAQ      0.418300
     22 HAA2       -3.0630   -0.3540    0.1330 hn        1 TAQ      0.418300
@<TRIPOS>BOND
     1    1    2 1   
     2    1    3 ar  
     3    1   12 ar  
     4    2   14 1   
     5    2   15 1   
     6    3    4 ar  
     7    3   16 1   
     8    4    5 ar  
     9    4   17 1   
    10    5    6 ar  
    11    5   11 ar  
    12    6    7 ar  
    13    7    8 1   
    14    7    9 ar  
    15    8   18 1   
    16    8   19 1   
    17    9   10 ar  
    18   10   11 ar  
    19   10   13 1   
    20   11   12 ar  
    21   12   20 1   
    22   13   21 1   
    23   13   22 1   
@<TRIPOS>SUBSTRUCTURE
     1 TAQ         1 TEMP              0 ****  ****    0 ROOT
