@<TRIPOS>MOLECULE
TAQ
   25    26     1     0     0
SMALL
bcc


@<TRIPOS>ATOM
      1 C6          0.0030    0.0050   -0.0500 ca        1 TAQ      0.042600
      2 N4         -0.6710    0.0260   -1.3520 n4        1 TAQ     -0.725000
      3 C1          1.4270   -0.0440   -0.0410 ca        1 TAQ     -0.070000
      4 C2          2.1110   -0.0660    1.1530 ca        1 TAQ     -0.075300
      5 C3          1.3990   -0.0380    2.3940 ca        1 TAQ      0.457600
      6 N3          2.1190   -0.0610    3.5730 nb        1 TAQ     -0.557000
      7 C8          1.4200   -0.0350    4.7180 ca        1 TAQ      0.765900
      8 N2          2.1770   -0.0580    6.0030 n4        1 TAQ     -0.817300
      9 N1          0.0240    0.0140    4.8310 nb        1 TAQ     -0.643000
     10 C7         -0.6650    0.0350    3.6880 ca        1 TAQ      0.596200
     11 C4         -0.0420    0.0110    2.3770 ca        1 TAQ     -0.225600
     12 C5         -0.7240    0.0320    1.1380 ca        1 TAQ     -0.089000
     13 NAA        -2.1400    0.0860    3.8190 n4        1 TAQ     -0.842300
     14 H4N1       -1.6950    0.0610   -1.2490 hn        1 TAQ      0.497467
     15 H4N2       -0.4210   -0.8240   -1.8880 hn        1 TAQ      0.497467
     16 H1          2.0050   -0.0660   -0.9900 ha        1 TAQ      0.221000
     17 H2          3.2240   -0.1040    1.1580 ha        1 TAQ      0.241000
     18 H2N1        3.1980   -0.0940    5.8190 hn        1 TAQ      0.514467
     19 H2N2        1.9630    0.7940    6.5490 hn        1 TAQ      0.514467
     20 H5         -1.8270    0.0700    1.1160 ha        1 TAQ      0.165000
     21 HAA1       -2.4950    0.9440    3.3680 hn        1 TAQ      0.506133
     22 HAA2       -2.5530   -0.7460    3.3710 hn        1 TAQ      0.506133
     23 H43        -0.3630    0.8550   -1.8910 hn        1 TAQ      0.497467
     24 H23         1.9040   -0.8920    6.5520 hn        1 TAQ      0.514467
     25 HAA3       -2.4350    0.0990    4.8170 hn        1 TAQ      0.506133
@<TRIPOS>BOND
     1    1    2 1   
     2    1    3 ar  
     3    1   12 ar  
     4    2   14 1   
     5    2   15 1   
     6    2   23 1   
     7    3    4 ar  
     8    3   16 1   
     9    4    5 ar  
    10    4   17 1   
    11    5    6 ar  
    12    5   11 ar  
    13    6    7 ar  
    14    7    8 1   
    15    7    9 ar  
    16    8   18 1   
    17    8   19 1   
    18    8   24 1   
    19    9   10 ar  
    20   10   11 ar  
    21   10   13 1   
    22   11   12 ar  
    23   12   20 1   
    24   13   21 1   
    25   13   22 1   
    26   13   25 1   
@<TRIPOS>SUBSTRUCTURE
     1 TAQ         1 TEMP              0 ****  ****    0 ROOT
