@<TRIPOS>MOLECULE
TAQ
   22    18     1     0     0
SMALL
bcc


@<TRIPOS>ATOM
      1 C6         -0.3440    0.0140   -2.3920 c1        1 TAQ      0.020000
      2 N4         -1.0220   -0.0220   -3.6380 n2        1 TAQ     -0.316500
      3 C1          1.0400    0.0140   -2.3920 c1        1 TAQ     -0.134000
      4 C2          1.7330    0.0140   -1.1930 c1        1 TAQ     -0.100000
      5 C3          1.0270    0.0140    0.0310 c1        1 TAQ      0.055000
      6 N3          1.7070    0.0140    1.2120 n1        1 TAQ     -0.252000
      7 C8          1.0230    0.0140    2.3950 c1        1 TAQ      0.168000
      8 N2          1.7510    0.0110    3.6130 n2        1 TAQ     -0.316500
      9 N1         -0.3470    0.0140    2.3960 n2        1 TAQ     -0.289000
     10 C7         -1.0220    0.0140    1.2320 c1        1 TAQ      0.190000
     11 C4         -0.3310    0.0140    0.0310 c1        1 TAQ     -0.157000
     12 C5         -1.0370    0.0140   -1.1920 c2        1 TAQ     -0.154000
     13 NAA        -2.3430   -0.0290    1.7490 n3        1 TAQ     -0.339000
     14 H4N1       -1.3780   -0.8050   -3.9410 hn        1 TAQ      0.195250
     15 H4N2       -1.1150    0.7410   -4.1290 hn        1 TAQ      0.195250
     16 H1          1.5280    0.0180   -3.2370 ha        1 TAQ      0.136000
     17 H2          2.7090    0.0140   -1.1930 ha        1 TAQ      0.153000
     18 H2N1        2.6630    0.0130    3.5990 hn        1 TAQ      0.195250
     19 H2N2        1.3070    0.0160    4.4090 hn        1 TAQ      0.195250
     20 H5         -2.0130   -0.0140   -1.1930 ha        1 TAQ      0.125000
     21 HAA1       -2.4800   -0.0290    2.6510 hn        1 TAQ      0.215500
     22 HAA2       -3.0550   -0.0560    1.1790 hn        1 TAQ      0.215500
@<TRIPOS>BOND
     1    1    3 1   
     2    1   12 1   
     3    2   14 1   
     4    2   15 1   
     5    3   16 1   
     6    4    5 1   
     7    4   17 1   
     8    5   11 1   
     9    6    7 1   
    10    7    9 1   
    11    8   18 1   
    12    8   19 1   
    13    9   10 1   
    14   10   13 1   
    15   11   12 1   
    16   12   20 1   
    17   13   21 1   
    18   13   22 1   
@<TRIPOS>SUBSTRUCTURE
     1 TAQ         1 TEMP              0 ****  ****    0 ROOT
