@<TRIPOS>MOLECULE
TAR
   14    13     1     0     0
SMALL
bcc


@<TRIPOS>ATOM
      1 O1          2.7850   -0.5430   -0.2580 o         1 TAR     -0.870800
      2 O11         2.2630    1.5810    0.1440 o         1 TAR     -0.870800
      3 C1          1.9420    0.4060   -0.1960 c         1 TAR      0.891600
      4 C2          0.4840    0.0890   -0.6000 c3        1 TAR      0.021100
      5 O2          0.4280   -1.1780   -1.2440 oh        1 TAR     -0.639800
      6 C3         -0.4830    0.1110    0.5950 c3        1 TAR      0.021100
      7 O3         -0.4350   -1.1380    1.2770 oh        1 TAR     -0.639800
      8 C4         -1.9380    0.4250    0.1820 c         1 TAR      0.891600
      9 O4         -2.7880   -0.5170    0.2720 o         1 TAR     -0.870800
     10 O41        -2.2520    1.5910   -0.1930 o         1 TAR     -0.870800
     11 H2          0.1320    0.8340   -1.3640 h1        1 TAR      0.062700
     12 HO2         1.0690   -1.7350   -0.7790 ho        1 TAR      0.406000
     13 H3         -0.1260    0.8750    1.3360 h1        1 TAR      0.062700
     14 HO3        -1.0800   -1.7040    0.8290 ho        1 TAR      0.406000
@<TRIPOS>BOND
     1    1    3 1   
     2    2    3 1   
     3    3    4 1   
     4    4    5 1   
     5    4    6 1   
     6    4   11 1   
     7    5   12 1   
     8    6    7 1   
     9    6    8 1   
    10    6   13 1   
    11    7   14 1   
    12    8    9 1   
    13    8   10 1   
@<TRIPOS>SUBSTRUCTURE
     1 TAR         1 TEMP              0 ****  ****    0 ROOT
