@<TRIPOS>MOLECULE
TAR
   14    13     1     0     0
SMALL
bcc


@<TRIPOS>ATOM
      1 O1          0.1570    0.4880   -0.0870 o         1 TAR     -0.870800
      2 O11         2.2090    0.8250   -0.8780 o         1 TAR     -0.870800
      3 C1          1.4220    0.4670    0.0450 c         1 TAR      0.891600
      4 C2          1.9860    0.0200    1.4130 c3        1 TAR      0.021100
      5 O2          0.9380   -0.0180    2.3760 oh        1 TAR     -0.639800
      6 C3          2.6870   -1.3460    1.3500 c3        1 TAR      0.021100
      7 O3          1.7230   -2.3890    1.4440 oh        1 TAR     -0.639800
      8 C4          3.7560   -1.5220    2.4530 c         1 TAR      0.891600
      9 O4          3.5080   -2.3560    3.3800 o         1 TAR     -0.870800
     10 O41         4.8400   -0.8740    2.3920 o         1 TAR     -0.870800
     11 H2          2.7160    0.7850    1.7900 h1        1 TAR      0.062700
     12 HO2         0.1590   -0.3410    1.9000 ho        1 TAR      0.406000
     13 H3          3.1630   -1.4630    0.3400 h1        1 TAR      0.062700
     14 HO3         1.6040   -2.5490    2.3910 ho        1 TAR      0.406000
@<TRIPOS>BOND
     1    1    3 1   
     2    2    3 1   
     3    3    4 1   
     4    4    5 1   
     5    4    6 1   
     6    4   11 1   
     7    5   12 1   
     8    6    7 1   
     9    6    8 1   
    10    6   13 1   
    11    7   14 1   
    12    8    9 1   
    13    8   10 1   
@<TRIPOS>SUBSTRUCTURE
     1 TAR         1 TEMP              0 ****  ****    0 ROOT
