@<TRIPOS>MOLECULE
TAT
   44    46     1     0     0
SMALL
bcc


@<TRIPOS>ATOM
      1 N1          0.0000    0.0000    0.0000 nb        1 TAT     -0.726000
      2 C2          1.3200    0.0000    0.0000 ca        1 TAT      0.547900
      3 N3          2.0260    0.0000    1.1110 nb        1 TAT     -0.699000
      4 C4          1.4260    0.0020    2.2960 ca        1 TAT      0.273800
      5 C5          0.0210    0.0020    2.3490 ca        1 TAT     -0.247200
      6 C6         -0.6890    0.0010    1.1370 ca        1 TAT      0.484200
      7 N6         -2.0720    0.0020    1.1260 nv        1 TAT     -0.535500
      8 N7         -0.3290    0.0040    3.6580 nc        1 TAT     -0.522100
      9 C8          0.7450    0.0030    4.3930 cd        1 TAT      0.182700
     10 N9          1.8520    0.0020    3.6000 na        1 TAT      0.194000
     11 PA          3.9870   -0.8020    9.7770 p5        1 TAT      0.950500
     12 PB          3.6960   -2.9970   11.7470 p5        1 TAT      0.937800
     13 PG          2.5940   -5.6400   12.5130 p5        1 TAT      0.817900
     14 C1'         3.2450    0.0010    4.0550 c3        1 TAT      0.158800
     15 O1A         2.9400   -7.1190   11.9800 o         1 TAT     -0.665167
     16 O1B         2.6150   -2.2950   12.4730 o         1 TAT     -0.649000
     17 S1G         2.1920    0.2190   10.2580 sh        1 TAT     -0.352200
     18 C2'         3.8050    1.4460    4.1030 c3        1 TAT      0.118100
     19 O2'         4.3250    1.8340    2.8310 oh        1 TAT     -0.541800
     20 O2A         5.1290   -0.1240   10.4280 o         1 TAT     -0.645300
     21 O2B         5.0660   -2.8870   12.5840 o         1 TAT     -0.649000
     22 O2G         3.0910   -5.4860   13.8990 o         1 TAT     -0.665167
     23 C3'         4.9400    1.3190    5.1490 c3        1 TAT      0.121100
     24 O3'         6.2020    1.1550    4.5000 oh        1 TAT     -0.559800
     25 O3A         3.8960   -2.3230   10.2990 os        1 TAT     -0.383800
     26 O3B         3.3010   -4.5480   11.5650 os        1 TAT     -0.475800
     27 O3G         0.9980   -5.4220   12.4880 o         1 TAT     -0.665167
     28 C4'         4.5770    0.0530    5.9490 c3        1 TAT      0.146100
     29 O4'         3.3310   -0.4400    5.4270 os        1 TAT     -0.365600
     30 C5'         4.4180    0.4020    7.4310 c3        1 TAT      0.286400
     31 O5'         4.1970   -0.7940    8.1800 os        1 TAT     -0.451200
     32 H1          1.8410   -0.0010   -0.9500 h5        1 TAT     -0.029900
     33 H2         -2.5790    0.0020    1.9890 hn        1 TAT      0.256800
     34 H3         -2.5660    0.0010    0.2560 hn        1 TAT      0.256800
     35 H4          0.7560    0.0040    5.4770 h5        1 TAT      0.048800
     36 H5          3.8610   -0.6230    3.4170 h2        1 TAT      0.056700
     37 H7          2.4380    1.1310   11.1910 hs        1 TAT      0.194800
     38 H8          3.0450    2.1390    4.4450 h1        1 TAT      0.020700
     39 H9          4.2420    2.7680    2.7290 ho        1 TAT      0.370000
     40 H11         4.9510    2.1850    5.7990 h1        1 TAT      0.005700
     41 H12         6.8030    1.8120    4.8100 ho        1 TAT      0.375000
     42 H14         5.3500   -0.6950    5.8220 h1        1 TAT      0.046700
     43 H15         3.5730    1.0680    7.5570 h1        1 TAT     -0.013300
     44 H16         5.3180    0.8890    7.7860 h1        1 TAT     -0.013300
@<TRIPOS>BOND
     1    1    2 ar  
     2    1    6 ar  
     3    2    3 ar  
     4    2   32 1   
     5    3    4 ar  
     6    4    5 ar  
     7    4   10 1   
     8    5    6 ar  
     9    5    8 1   
    10    6    7 1   
    11    7   33 1   
    12    7   34 1   
    13    8    9 2   
    14    9   10 1   
    15    9   35 1   
    16   10   14 1   
    17   11   17 1   
    18   11   20 2   
    19   11   25 1   
    20   11   31 1   
    21   12   16 1   
    22   12   21 1   
    23   12   25 1   
    24   12   26 1   
    25   13   15 1   
    26   13   22 1   
    27   13   26 1   
    28   13   27 1   
    29   14   18 1   
    30   14   29 1   
    31   14   36 1   
    32   17   37 1   
    33   18   19 1   
    34   18   23 1   
    35   18   38 1   
    36   19   39 1   
    37   23   24 1   
    38   23   28 1   
    39   23   40 1   
    40   24   41 1   
    41   28   29 1   
    42   28   30 1   
    43   28   42 1   
    44   30   31 1   
    45   30   43 1   
    46   30   44 1   
@<TRIPOS>SUBSTRUCTURE
     1 TAT         1 TEMP              0 ****  ****    0 ROOT
