@<TRIPOS>MOLECULE
TAU
   13    11     1     0     0
SMALL
bcc


@<TRIPOS>ATOM
      1 C1         -1.0270   -0.0310    0.1550 c3        1 TAU      0.174800
      2 C2          0.5190   -0.0210    0.3100 c3        1 TAU     -0.364100
      3 N1         -1.6410   -0.0540    1.4640 n3        1 TAU     -0.904800
      4 S           1.2900    0.0360   -1.3220 s4        1 TAU      1.650500
      5 O1          2.7950    0.1530   -1.2130 o         1 TAU     -0.683400
      6 O2          0.8960   -1.1620   -2.1260 os        1 TAU     -1.074000
      7 O3          0.9480    1.3160   -2.0430 o         1 TAU     -0.683400
      8 H1C1       -1.3120    0.7750   -0.3260 h1        1 TAU      0.059700
      9 H1C2       -1.3040   -0.8330   -0.3520 h1        1 TAU      0.059700
     10 H2C1        0.7890    0.7670    0.8240 h1        1 TAU      0.060700
     11 H2C2        0.8090   -0.8390    0.7840 h1        1 TAU      0.060700
     12 H1N1       -1.3940    0.6910    1.9290 hn        1 TAU      0.321800
     13 H1N2       -1.3670   -0.7980    1.9140 hn        1 TAU      0.321800
@<TRIPOS>BOND
     1    1    2 1   
     2    1    3 1   
     3    1    8 1   
     4    1    9 1   
     5    2    4 1   
     6    2   10 1   
     7    2   11 1   
     8    3   12 1   
     9    3   13 1   
    10    4    5 1   
    11    4    7 1   
@<TRIPOS>SUBSTRUCTURE
     1 TAU         1 TEMP              0 ****  ****    0 ROOT
