@<TRIPOS>MOLECULE
TAU
   13    12     1     0     0
SMALL
bcc


@<TRIPOS>ATOM
      1 C1          0.1830    0.4570    1.8810 c3        1 TAU      0.174800
      2 C2         -0.3180   -0.5330    0.8510 c3        1 TAU     -0.329600
      3 N1         -0.0350    0.1150    3.2700 n3        1 TAU     -0.904800
      4 S           0.0090   -0.0020   -0.8180 s6        1 TAU      1.430800
      5 O1         -0.6780    1.2280   -0.9550 o         1 TAU     -0.751867
      6 O2         -0.5270   -1.0460   -1.6110 o         1 TAU     -0.751867
      7 O3          1.4170    0.1130   -0.9000 o         1 TAU     -0.751867
      8 H1C1       -0.3150    1.4520    1.6910 h1        1 TAU      0.059700
      9 H1C2        1.2930    0.5960    1.7320 h1        1 TAU      0.059700
     10 H2C1        0.1670   -1.5270    1.0020 h1        1 TAU      0.060700
     11 H2C2       -1.4180   -0.6830    0.9610 h1        1 TAU      0.060700
     12 H1N1       -1.0170   -0.0020    3.4400 hn        1 TAU      0.321800
     13 H1N2        0.4080   -0.7600    3.4770 hn        1 TAU      0.321800
@<TRIPOS>BOND
     1    1    2 1   
     2    1    3 1   
     3    1    8 1   
     4    1    9 1   
     5    2    4 1   
     6    2   10 1   
     7    2   11 1   
     8    3   12 1   
     9    3   13 1   
    10    4    5 1   
    11    4    6 1   
    12    4    7 1   
@<TRIPOS>SUBSTRUCTURE
     1 TAU         1 TEMP              0 ****  ****    0 ROOT
