@<TRIPOS>MOLECULE
TAV
   70    74     1     0     0
SMALL
bcc


@<TRIPOS>ATOM
      1 C1          3.2250    0.3840   -0.4160 ca        1 TAV     -0.350500
      2 C2          3.8790    0.0710    0.7590 ca        1 TAV     -0.003000
      3 C3          4.2230   -1.2650    1.0830 ca        1 TAV     -0.079000
      4 C4          3.8730   -2.3030    0.1810 ca        1 TAV      0.006000
      5 C5          3.1930   -1.9710   -1.0170 ca        1 TAV     -0.138000
      6 C6          2.8800   -0.6630   -1.3080 ca        1 TAV     -0.024000
      7 C9          4.9060   -1.5910    2.2890 ca        1 TAV     -0.102000
      8 C10         4.2120   -3.6470    0.5120 ca        1 TAV     -0.121000
      9 C13         4.8690   -3.9330    1.6810 ca        1 TAV     -0.129000
     10 C14         5.2220   -2.8940    2.5790 ca        1 TAV     -0.157000
     11 S18         2.8910    2.0150   -0.7700 sy        1 TAV      1.498200
     12 O19         3.8510    2.4860   -1.6960 o         1 TAV     -0.665800
     13 N20         1.4360    2.0130   -1.4600 nh        1 TAV     -0.761500
     14 C21        -1.2280    1.5750    1.0930 ca        1 TAV     -0.147000
     15 C22        -0.0440    1.9800    0.4930 ca        1 TAV     -0.186000
     16 C23         0.2150    1.6550   -0.8580 ca        1 TAV      0.169600
     17 C24        -0.7760    0.9670   -1.6010 ca        1 TAV     -0.124600
     18 C25        -1.9570    0.5350   -0.9950 ca        1 TAV     -0.061000
     19 C26        -2.1660    0.8330    0.3590 ca        1 TAV      0.082100
     20 C29        -0.5320    0.6230   -3.0510 c         1 TAV      0.657700
     21 C32         0.9050   -0.0420    6.8890 ca        1 TAV     -0.110000
     22 C33        -0.3590    0.4790    6.7510 ca        1 TAV     -0.140000
     23 C34        -1.1390    0.1800    5.6010 ca        1 TAV      0.011000
     24 C35        -0.5950   -0.6660    4.6010 ca        1 TAV     -0.075000
     25 C36         0.7170   -1.1890    4.7680 ca        1 TAV     -0.083000
     26 C37         1.4490   -0.8830    5.8890 ca        1 TAV     -0.150000
     27 C41        -2.4480    0.7050    5.4220 ca        1 TAV     -0.155000
     28 C42        -1.3730   -0.9660    3.4510 ca        1 TAV      0.036000
     29 C45        -2.6420   -0.4490    3.2890 ca        1 TAV     -0.394500
     30 C46        -3.1720    0.3990    4.2980 ca        1 TAV     -0.030000
     31 N49        -1.3840    1.1140   -3.9980 n         1 TAV     -0.354800
     32 O50         0.5180   -0.0230   -3.3210 o         1 TAV     -0.694100
     33 O51        -3.3600    0.5070    0.9550 os        1 TAV     -0.447800
     34 O52        -4.9240   -0.7300    2.2740 o         1 TAV     -0.641800
     35 O53        -3.0680   -1.9660    1.3520 o         1 TAV     -0.641800
     36 O54         2.9040    2.7140    0.4660 o         1 TAV     -0.665800
     37 C56        -2.5060    1.9380   -3.6240 c3        1 TAV      0.029300
     38 C57        -1.4640    0.4800   -5.3170 c3        1 TAV     -0.014300
     39 C61        -1.2940    1.5190   -6.4790 c         1 TAV      0.912600
     40 O62        -2.0340    2.5450   -6.5250 o         1 TAV     -0.850800
     41 O63        -0.4150    1.2580   -7.3480 o         1 TAV     -0.850800
     42 O65        -3.1080   -2.5300   -4.7400 o         1 TAV     -0.877800
     43 O66        -3.5380   -0.8860   -3.3170 o         1 TAV     -0.877800
     44 C67        -2.7750   -0.2800   -5.5400 c3        1 TAV     -0.191400
     45 H2          4.1380    0.8720    1.4750 ha        1 TAV      0.148000
     46 H5          2.9030   -2.7760   -1.7110 ha        1 TAV      0.153000
     47 H6          2.3250   -0.4380   -2.2450 ha        1 TAV      0.208000
     48 H9          5.1730   -0.7760    2.9780 ha        1 TAV      0.126000
     49 H10         3.9280   -4.4450   -0.1920 ha        1 TAV      0.138000
     50 H13         5.1300   -4.9690    1.9380 ha        1 TAV      0.121000
     51 H14         5.7500   -3.1510    3.5090 ha        1 TAV      0.118000
     52 H20         1.3710    2.0230   -2.4650 hn        1 TAV      0.492800
     53 H21        -1.4330    1.8380    2.1410 ha        1 TAV      0.128000
     54 H22         0.6880    2.5570    1.0820 ha        1 TAV      0.156000
     55 H25        -2.7070   -0.0350   -1.5990 ha        1 TAV      0.256000
     56 H36         1.1320   -1.8350    3.9780 ha        1 TAV      0.148000
     57 H37         2.4650   -1.2800    6.0190 ha        1 TAV      0.131000
     58 H41        -2.8650    1.3630    6.1990 ha        1 TAV      0.130000
     59 H42        -0.9440   -1.6320    2.6780 ha        1 TAV      0.170000
     60 H46        -4.1910    0.8000    4.1560 ha        1 TAV      0.156000
     61 H561       -2.2190    2.6320   -2.7910 h1        1 TAV      0.060033
     62 H562       -2.7980    2.5430   -4.5300 h1        1 TAV      0.060033
     63 H563       -3.3780    1.3000   -3.3040 h1        1 TAV      0.060033
     64 H57        -0.6040   -0.2480   -5.3930 h1        1 TAV      0.078700
     65 H671       -3.6140    0.4570   -5.6320 hc        1 TAV      0.041200
     66 H672       -2.6710   -0.8160   -6.5190 hc        1 TAV      0.041200
     67 C64        -3.1440   -1.2960   -4.4580 c         1 TAV      0.906600
     68 S31        -3.5810   -0.8300    1.9430 sy        1 TAV      1.612800
     69 H32         1.5120    0.1930    7.7760 ha        1 TAV      0.123000
     70 H33        -0.7860    1.1380    7.5210 ha        1 TAV      0.128000
@<TRIPOS>BOND
     1    1    2 ar  
     2    1    6 ar  
     3    1   11 1   
     4    2    3 ar  
     5    2   45 1   
     6    3    4 ar  
     7    3    7 ar  
     8    4    5 ar  
     9    4    8 ar  
    10    5    6 ar  
    11    5   46 1   
    12    6   47 1   
    13    7   10 ar  
    14    7   48 1   
    15    8    9 ar  
    16    8   49 1   
    17    9   10 ar  
    18    9   50 1   
    19   10   51 1   
    20   11   12 2   
    21   11   13 1   
    22   11   36 2   
    23   13   16 1   
    24   13   52 1   
    25   14   15 ar  
    26   14   19 ar  
    27   14   53 1   
    28   15   16 ar  
    29   15   54 1   
    30   16   17 ar  
    31   17   18 ar  
    32   17   20 1   
    33   18   19 ar  
    34   18   55 1   
    35   19   33 1   
    36   20   31 1   
    37   20   32 2   
    38   21   22 ar  
    39   21   26 ar  
    40   21   69 1   
    41   22   23 ar  
    42   22   70 1   
    43   23   24 ar  
    44   23   27 ar  
    45   24   25 ar  
    46   24   28 ar  
    47   25   26 ar  
    48   25   56 1   
    49   26   57 1   
    50   27   30 ar  
    51   27   58 1   
    52   28   29 ar  
    53   28   59 1   
    54   29   30 ar  
    55   29   68 1   
    56   30   60 1   
    57   31   37 1   
    58   31   38 1   
    59   33   68 1   
    60   34   68 2   
    61   35   68 2   
    62   37   61 1   
    63   37   62 1   
    64   37   63 1   
    65   38   39 1   
    66   38   44 1   
    67   38   64 1   
    68   39   40 1   
    69   39   41 1   
    70   42   67 1   
    71   43   67 1   
    72   44   65 1   
    73   44   66 1   
    74   44   67 1   
@<TRIPOS>SUBSTRUCTURE
     1 TAV         1 TEMP              0 ****  ****    0 ROOT
