@<TRIPOS>MOLECULE
TAV
   70    58     1     0     0
SMALL
bcc


@<TRIPOS>ATOM
      1 C1         -3.7970   -3.5450    1.1220 c1        1 TAV     -0.836000
      2 C2         -4.8720   -4.2770    0.6020 c1        1 TAV     -0.076875
      3 C3         -5.8700   -4.7960    1.4770 c1        1 TAV     -0.035500
      4 C4         -5.7750   -4.5750    2.8370 c1        1 TAV     -0.035500
      5 C5         -4.6790   -3.8290    3.3620 c1        1 TAV     -0.076875
      6 C6         -3.7000   -3.3210    2.5020 c1        1 TAV     -0.076000
      7 C9         -6.9640   -5.5260    0.9540 c1        1 TAV     -0.076875
      8 C10        -6.7750   -5.0810    3.7080 c1        1 TAV     -0.076875
      9 C13        -7.8520   -5.8000    3.1920 c1        1 TAV     -0.146250
     10 C14        -7.9490   -6.0240    1.8160 c1        1 TAV     -0.146250
     11 S18        -2.6520   -2.6030    0.0280 s4        1 TAV      2.065800
     12 O19        -3.0140   -1.2180   -0.0360 o         1 TAV     -0.565900
     13 N20        -1.0910   -2.7920    0.5370 n2        1 TAV     -0.826000
     14 C21         2.0610   -1.7940   -1.0790 c1        1 TAV     -0.128000
     15 C22         0.9220   -2.5290   -0.7670 c1        1 TAV     -0.142000
     16 C23        -0.0750   -1.9680    0.0180 c2        1 TAV      0.089000
     17 C24         0.0670   -0.6600    0.4950 c2        1 TAV     -0.104000
     18 C25         1.2050    0.0720    0.1820 c1        1 TAV     -0.120000
     19 C26         2.2020   -0.4960   -0.6050 c1        1 TAV      0.077000
     20 C29        -1.0930    0.0080    1.2580 c2        1 TAV      0.343000
     21 S31         3.9650    0.0490   -2.3270 ss        1 TAV      2.846000
     22 C32         8.1060    5.3420   -3.4430 c1        1 TAV     -0.146250
     23 C33         7.1650    4.7670   -4.2800 c1        1 TAV     -0.076875
     24 C34         6.3990    3.6770   -3.8330 c1        1 TAV     -0.035500
     25 C35         6.5850    3.1790   -2.5580 c1        1 TAV     -0.035500
     26 C36         7.5380    3.7620   -1.7110 c1        1 TAV     -0.076875
     27 C37         8.2950    4.8410   -2.1550 c1        1 TAV     -0.146250
     28 C41         5.4230    3.1160   -4.6690 c1        1 TAV     -0.076875
     29 C42         5.7910    2.1040   -2.0950 c1        1 TAV     -0.076875
     30 C45         4.8320    1.5530   -2.9170 c1        1 TAV     -0.868000
     31 C46         4.6420    2.0580   -4.2130 c1        1 TAV     -0.022000
     32 N49        -0.9490    1.3600    1.7530 n         1 TAV     -0.235000
     33 O50        -2.1700   -0.5650    1.3560 o         1 TAV     -0.400000
     34 O51         3.3940    0.2820   -0.9490 o         1 TAV     -0.641000
     35 O52         4.8680   -1.1490   -2.3460 o         1 TAV     -0.947000
     36 O53         2.9040   -0.3760   -3.2910 o         1 TAV     -0.947000
     37 O54        -2.8060   -3.0000   -1.3600 o         1 TAV     -0.565900
     38 C56         0.1250    1.6780    2.6970 c3        1 TAV     -0.125000
     39 C57        -1.9870    2.3570    1.4640 c3        1 TAV     -0.032000
     40 C61        -2.1130    2.5260   -0.0090 c2        1 TAV      0.318000
     41 O62        -3.2600    2.6940   -0.5360 o         1 TAV     -0.606000
     42 O63        -1.0940    2.4790   -0.7310 o         1 TAV     -0.606000
     43 C64        -2.5160    4.7720    1.5390 c1        1 TAV      0.325000
     44 O65        -3.1300    5.5390    2.3370 os        1 TAV     -0.625000
     45 O66        -2.6470    4.9240    0.2830 o         1 TAV     -0.599000
     46 C67        -1.6110    3.6660    2.0860 c3        1 TAV     -0.193000
     47 H2         -4.9370   -4.4310   -0.3510 ha        1 TAV      0.170125
     48 H5         -4.5900   -3.7100    4.3060 ha        1 TAV      0.170125
     49 H6         -2.9350   -2.7990    2.8690 ha        1 TAV      0.145000
     50 H9         -7.0300   -5.6820   -0.0010 ha        1 TAV      0.170125
     51 H10        -6.6920   -4.9490    4.6760 ha        1 TAV      0.170125
     52 H13        -8.5270   -6.1420    3.7830 ha        1 TAV      0.115000
     53 H14        -8.7160   -6.5350    1.4490 ha        1 TAV      0.115000
     54 H20        -0.8790   -3.4700    1.0770 hn        1 TAV      0.280000
     55 H21         2.8040   -2.2250   -1.5410 ha        1 TAV      0.133000
     56 H22         0.8660   -3.4680   -1.0230 ha        1 TAV      0.138000
     57 H25         1.2810    0.9930    0.4690 ha        1 TAV      0.212000
     58 H32         8.6360    6.0980   -3.7540 ha        1 TAV      0.115000
     59 H33         7.0330    5.1200   -5.1850 ha        1 TAV      0.170125
     60 H36         7.6700    3.4110   -0.8120 ha        1 TAV      0.170125
     61 H37         8.9630    5.2260   -1.5830 ha        1 TAV      0.115000
     62 H41         5.2920    3.4620   -5.5610 ha        1 TAV      0.170125
     63 H42         5.8590    1.8150   -1.1710 ha        1 TAV      0.170125
     64 H46         3.9940    1.6340   -4.8130 ha        1 TAV      0.196000
     65 H561        0.6480    0.8710    2.8790 h1        1 TAV      0.091000
     66 H562       -0.2580    2.0070    3.5220 h1        1 TAV      0.091000
     67 H563        0.7020    2.3570    2.3150 h1        1 TAV      0.091000
     68 H57        -2.8200    2.0620    1.8220 h1        1 TAV      0.121000
     69 H671       -1.7190    3.6080    3.0570 hc        1 TAV      0.084000
     70 H672       -0.6930    3.8680    1.8760 hc        1 TAV      0.084000
@<TRIPOS>BOND
     1    1    6 1   
     2    1   11 1   
     3    2    3 1   
     4    2   47 1   
     5    3    7 1   
     6    4    5 1   
     7    4    8 1   
     8    5   48 1   
     9    6   49 1   
    10    7   50 1   
    11    8   51 1   
    12    9   10 1   
    13    9   52 1   
    14   10   53 1   
    15   11   12 1   
    16   11   37 1   
    17   13   16 1   
    18   13   54 1   
    19   14   19 1   
    20   14   55 1   
    21   15   16 1   
    22   15   56 1   
    23   16   17 1   
    24   17   18 1   
    25   17   20 1   
    26   18   57 1   
    27   19   34 1   
    28   20   32 1   
    29   20   33 1   
    30   21   35 1   
    31   21   36 1   
    32   22   27 1   
    33   22   58 1   
    34   23   24 1   
    35   23   59 1   
    36   24   28 1   
    37   25   26 1   
    38   25   29 1   
    39   26   60 1   
    40   27   61 1   
    41   28   62 1   
    42   29   63 1   
    43   30   31 1   
    44   31   64 1   
    45   32   38 1   
    46   32   39 1   
    47   38   65 1   
    48   38   66 1   
    49   38   67 1   
    50   39   40 1   
    51   39   46 1   
    52   39   68 1   
    53   40   41 1   
    54   40   42 1   
    55   43   45 1   
    56   43   46 1   
    57   46   69 1   
    58   46   70 1   
@<TRIPOS>SUBSTRUCTURE
     1 TAV         1 TEMP              0 ****  ****    0 ROOT
