@<TRIPOS>MOLECULE
TAX
   58    60     1     0     0
SMALL
bcc


@<TRIPOS>ATOM
      1 CA          1.0690    1.1720    0.7680 c3        1 TAX     -0.183000
      2 CB          0.6620    2.2720    1.7270 c3        1 TAX     -0.211000
      3 CA1         0.4840   -6.0500    0.2350 cx        1 TAX     -0.080000
      4 CB1        -0.2760   -6.3820    1.4780 cx        1 TAX      0.035000
      5 C1          4.7230   -2.4460   -1.4280 c2        1 TAX     -0.119500
      6 C2          3.8010   -3.5840   -1.2680 c2        1 TAX     -0.119500
      7 C3          2.7390   -3.2000   -0.5160 c2        1 TAX     -0.188500
      8 C5          2.8840   -1.7300   -0.1490 c3        1 TAX     -0.072000
      9 C6          4.2230   -1.3680   -0.7730 c2        1 TAX     -0.188500
     10 C4          2.8800   -1.5330    1.3180 c2        1 TAX     -0.050000
     11 C7          1.9340   -0.8610    2.0050 c2        1 TAX     -0.120000
     12 C8          1.9830   -0.6950    3.4450 c2        1 TAX     -0.044000
     13 C9          2.7680   -1.6340    4.3290 c3        1 TAX     -0.112000
     14 C10         2.0140   -1.8830    5.6090 c2        1 TAX     -0.129000
     15 C11         1.0760   -1.0440    6.1060 c2        1 TAX     -0.159000
     16 C12         0.9580    0.2670    5.4510 c2        1 TAX     -0.033000
     17 C13         1.2940    0.1930    4.1650 c1        1 TAX     -0.214000
     18 C14         0.8180   -0.1800    1.3310 c2        1 TAX      0.252000
     19 C15        -0.4370   -0.7430    1.2530 c2        1 TAX     -0.162000
     20 C16        -0.8120   -2.1020    1.8270 c3        1 TAX     -0.115000
     21 C17        -1.9010   -2.7770    1.0590 c2        1 TAX     -0.071000
     22 C18        -2.7380   -2.1520    0.1980 c2        1 TAX     -0.178000
     23 C19        -2.7050   -0.6780    0.1640 c2        1 TAX     -0.047000
     24 C20        -1.5030   -0.2740    0.5310 c1        1 TAX      0.122000
     25 NI         -1.7040   -6.5700    1.4820 n3        1 TAX     -0.283000
     26 C21        -2.1430   -7.6640    0.6450 c3        1 TAX     -0.115000
     27 C22        -2.2590   -6.5990    2.8170 c3        1 TAX     -0.115000
     28 HA1         1.1410    2.1230    2.7270 hc        1 TAX      0.101333
     29 HA2         2.1620    1.2790    0.5240 hc        1 TAX      0.126000
     30 HB1         0.4830    1.2830   -0.1900 hc        1 TAX      0.126000
     31 HB2        -0.4470    2.2870    1.8610 hc        1 TAX      0.101333
     32 HB3         0.9870    3.2580    1.3150 hc        1 TAX      0.101333
     33 HA11        4.6460   -0.3700   -0.6790 ha        1 TAX      0.154000
     34 HA12        1.5560   -6.3150    0.1590 h1        1 TAX      0.126000
     35 HB11       -0.0320   -5.9300   -0.7360 h1        1 TAX      0.126000
     36 HB12        0.2720   -6.8320    2.3400 h2        1 TAX      0.135000
     37 H2          5.6520   -2.5120   -1.9970 ha        1 TAX      0.159500
     38 H3          3.9910   -4.5640   -1.7080 ha        1 TAX      0.159500
     39 H5          3.7290   -1.9960    1.8550 ha        1 TAX      0.161000
     40 H6          2.0720   -1.1370   -0.6550 hc        1 TAX      0.116000
     41 H9          3.7920   -1.2460    4.5810 hc        1 TAX      0.125500
     42 H10         2.8940   -2.6070    3.7840 hc        1 TAX      0.125500
     43 H11         2.3090   -2.7970    6.1480 ha        1 TAX      0.150000
     44 H12         0.5050   -1.2430    7.0210 ha        1 TAX      0.157000
     45 H13         0.7350    1.1660    6.0330 ha        1 TAX      0.173000
     46 H16         0.1210   -2.7400    1.7650 hc        1 TAX      0.166000
     47 H17        -1.1040   -2.0320    2.9100 hc        1 TAX      0.166000
     48 H18        -1.9870   -3.8660    1.2540 ha        1 TAX      0.207000
     49 H19        -3.4910   -2.6610   -0.4190 ha        1 TAX      0.189000
     50 H20        -3.5940   -0.0900   -0.0970 ha        1 TAX      0.221000
     51 HI          1.8810   -3.7880   -0.1900 ha        1 TAX      0.154000
     52 H211       -3.2620   -7.6210    0.5700 h1        1 TAX      0.082500
     53 H212       -1.8500   -8.6710    1.0470 h1        1 TAX      0.082500
     54 H213       -1.7060   -7.5440   -0.3810 h1        1 TAX      0.082500
     55 H221       -3.3770   -6.6230    2.7360 h1        1 TAX      0.082500
     56 H222       -1.9240   -7.4890    3.4170 h1        1 TAX      0.082500
     57 H223       -1.9510   -5.6660    3.3580 h1        1 TAX      0.082500
     58 OL          0.1880   -5.0270    1.1970 os        1 TAX     -0.321000
@<TRIPOS>BOND
     1    1    2 1   
     2    1   18 1   
     3    1   29 1   
     4    1   30 1   
     5    2   28 1   
     6    2   31 1   
     7    2   32 1   
     8    3    4 1   
     9    3   34 1   
    10    3   35 1   
    11    3   58 1   
    12    4   25 1   
    13    4   36 1   
    14    4   58 1   
    15    5    6 1   
    16    5    9 1   
    17    5   37 1   
    18    6    7 1   
    19    6   38 1   
    20    7    8 1   
    21    7   51 1   
    22    8    9 1   
    23    8   10 1   
    24    8   40 1   
    25    9   33 1   
    26   10   11 1   
    27   10   39 1   
    28   11   12 1   
    29   11   18 1   
    30   12   13 1   
    31   12   17 1   
    32   13   14 1   
    33   13   41 1   
    34   13   42 1   
    35   14   15 1   
    36   14   43 1   
    37   15   16 1   
    38   15   44 1   
    39   16   17 1   
    40   16   45 1   
    41   18   19 1   
    42   19   20 1   
    43   19   24 1   
    44   20   21 1   
    45   20   46 1   
    46   20   47 1   
    47   21   22 1   
    48   21   48 1   
    49   22   23 1   
    50   22   49 1   
    51   23   24 1   
    52   23   50 1   
    53   25   26 1   
    54   25   27 1   
    55   26   52 1   
    56   26   53 1   
    57   26   54 1   
    58   27   55 1   
    59   27   56 1   
    60   27   57 1   
@<TRIPOS>SUBSTRUCTURE
     1 TAX         1 TEMP              0 ****  ****    0 ROOT
