@<TRIPOS>MOLECULE
TAX
   58    59     1     0     0
SMALL
bcc


@<TRIPOS>ATOM
      1 CA          1.3060    0.4020    1.0490 c3        1 TAX     -0.063200
      2 CB          2.5230    0.4070    1.9420 c3        1 TAX     -0.086100
      3 CA1         3.9720   -5.0720    1.0710 c3        1 TAX      0.030100
      4 CB1         3.2600   -4.5290    2.2820 c2        1 TAX      0.316200
      5 C1          3.1030   -3.8290   -1.6370 ce        1 TAX     -0.154000
      6 C2          3.9380   -2.8610   -0.9570 ce        1 TAX     -0.167000
      7 C3          4.7730   -3.0460    0.0720 c2        1 TAX     -0.023900
      8 C5          0.8420   -3.3840   -0.6220 cf        1 TAX     -0.147000
      9 C6          1.7790   -4.0150   -1.5200 cf        1 TAX     -0.121000
     10 C4          1.1060   -2.3820    0.2350 ce        1 TAX     -0.108000
     11 C7          0.1120   -1.7940    1.1260 ce        1 TAX     -0.104000
     12 C8         -1.0160   -2.6400    1.4910 ce        1 TAX     -0.015300
     13 C9         -2.4180   -2.2050    1.1440 c3        1 TAX     -0.053000
     14 C10        -3.2450   -3.3850    0.7270 c2        1 TAX     -0.114200
     15 C11        -2.9450   -4.6620    1.0580 ce        1 TAX     -0.174000
     16 C12        -1.8840   -4.8460    2.0500 ce        1 TAX     -0.103100
     17 C13        -0.9790   -3.8630    2.0400 c1        1 TAX     -0.221800
     18 C14         0.2310   -0.5090    1.5600 cf        1 TAX      0.032800
     19 C15        -0.6530    0.1190    2.5230 cf        1 TAX     -0.149300
     20 C16        -1.1140   -0.5490    3.7990 c3        1 TAX     -0.017000
     21 C17        -2.5690   -0.2300    4.0390 c2        1 TAX     -0.167200
     22 C18        -3.1780    0.8770    3.5560 ce        1 TAX     -0.135000
     23 C19        -2.3070    1.8890    2.9300 ce        1 TAX     -0.137100
     24 C20        -1.2360    1.3140    2.3970 c1        1 TAX     -0.001800
     25 NI          2.1960   -5.0360    2.8470 nh        1 TAX     -0.055100
     26 C21         1.5000   -6.2110    2.3490 c3        1 TAX     -0.061900
     27 C22         1.5610   -4.3950    3.9920 c3        1 TAX     -0.061900
     28 HA1         2.9870   -0.6080    1.9900 hc        1 TAX      0.036033
     29 HA2         1.5990    0.1140    0.0040 hc        1 TAX      0.069700
     30 HB1         0.8860    1.4460    0.9900 hc        1 TAX      0.069700
     31 HB2         2.2510    0.7200    2.9790 hc        1 TAX      0.036033
     32 HB3         3.2810    1.1250    1.5450 hc        1 TAX      0.036033
     33 HA11        1.3090   -4.7590   -2.1950 ha        1 TAX      0.139000
     34 HA12        4.4580   -6.0620    1.3170 h1        1 TAX      0.120700
     35 HB11        3.2620   -5.1920    0.2060 h1        1 TAX      0.120700
     36 HB12        3.7100   -3.6030    2.7190 h4        1 TAX      0.073800
     37 H2          3.6610   -4.4230   -2.3900 ha        1 TAX      0.152000
     38 H3          3.9020   -1.8470   -1.4060 ha        1 TAX      0.166000
     39 H5          2.1160   -1.9360    0.2880 ha        1 TAX      0.126000
     40 H6         -0.1870   -3.7880   -0.6820 ha        1 TAX      0.141000
     41 H9         -2.3450   -1.4780    0.2890 hc        1 TAX      0.101200
     42 H10        -2.9340   -1.6710    1.9910 hc        1 TAX      0.101200
     43 H11        -4.1490   -3.1390    0.1480 ha        1 TAX      0.153000
     44 H12        -3.5260   -5.5270    0.7170 ha        1 TAX      0.153000
     45 H13        -1.9480   -5.6660    2.7720 ha        1 TAX      0.146000
     46 H16        -0.9810   -1.6580    3.6850 hc        1 TAX      0.074700
     47 H17        -0.5220   -0.2190    4.6940 hc        1 TAX      0.074700
     48 H18        -3.1040   -0.9500    4.6740 ha        1 TAX      0.143000
     49 H19        -4.2410    1.1040    3.7060 ha        1 TAX      0.156000
     50 H20        -2.5170    2.9560    3.0410 ha        1 TAX      0.176000
     51 HI          2.0410   -6.6640    1.4780 h1        1 TAX      0.105700
     52 H211        5.4590   -2.2640    0.4510 h4        1 TAX      0.177000
     53 H212        1.4240   -6.9680    3.1760 h1        1 TAX      0.105700
     54 H213        0.4620   -5.8920    2.0310 h1        1 TAX      0.105700
     55 H221        0.5520   -4.0000    3.6550 h1        1 TAX      0.105700
     56 H222        1.4170   -5.1590    4.8030 h1        1 TAX      0.105700
     57 H223        2.1890   -3.5500    4.3790 h1        1 TAX      0.105700
     58 OL          5.0570   -4.2210    0.7590 os        1 TAX     -0.312900
@<TRIPOS>BOND
     1    1    2 1   
     2    1   18 1   
     3    1   29 1   
     4    1   30 1   
     5    2   28 1   
     6    2   31 1   
     7    2   32 1   
     8    3    4 1   
     9    3   34 1   
    10    3   35 1   
    11    3   58 1   
    12    4   25 2   
    13    4   36 1   
    14    5    6 1   
    15    5    9 2   
    16    5   37 1   
    17    6    7 2   
    18    6   38 1   
    19    7   52 1   
    20    7   58 1   
    21    8    9 1   
    22    8   10 2   
    23    8   40 1   
    24    9   33 1   
    25   10   11 1   
    26   10   39 1   
    27   11   12 1   
    28   11   18 2   
    29   12   13 1   
    30   12   17 2   
    31   13   14 1   
    32   13   41 1   
    33   13   42 1   
    34   14   15 2   
    35   14   43 1   
    36   15   16 1   
    37   15   44 1   
    38   16   17 2   
    39   16   45 1   
    40   18   19 1   
    41   19   20 1   
    42   19   24 2   
    43   20   21 1   
    44   20   46 1   
    45   20   47 1   
    46   21   22 2   
    47   21   48 1   
    48   22   23 1   
    49   22   49 1   
    50   23   24 2   
    51   23   50 1   
    52   25   26 1   
    53   25   27 1   
    54   26   51 1   
    55   26   53 1   
    56   26   54 1   
    57   27   55 1   
    58   27   56 1   
    59   27   57 1   
@<TRIPOS>SUBSTRUCTURE
     1 TAX         1 TEMP              0 ****  ****    0 ROOT
