@<TRIPOS>MOLECULE
TAX
   58    54     1     0     0
SMALL
bcc


@<TRIPOS>ATOM
      1 CA          1.9860   -2.1500   -0.5340 c3        1 TAX     -0.136000
      2 CB          2.4630   -3.5750   -0.9240 c3        1 TAX     -0.207000
      3 OL         -1.3550    3.2100   -1.6920 os        1 TAX     -0.248000
      4 CA1        -1.2170    3.2010   -3.1160 c3        1 TAX     -0.042000
      5 CB1        -2.5960    3.5950   -3.7830 c3        1 TAX     -0.164000
      6 C1         -0.7860    2.0990   -1.0580 c2        1 TAX      0.016000
      7 C2         -1.5340    0.9340   -0.9020 c2        1 TAX     -0.186000
      8 C3         -1.0400   -0.1100   -0.1440 c1        1 TAX     -0.086000
      9 C5          0.9620    1.1520    0.3190 c1        1 TAX     -0.092000
     10 C6          0.4630    2.2100   -0.4480 c1        1 TAX     -0.126000
     11 C4          0.2160   -0.0020    0.4710 c1        1 TAX     -0.009000
     12 C7          0.6910   -1.1070    1.4360 c2        1 TAX     -0.075000
     13 C8          0.2370   -1.0890    2.9200 c2        1 TAX     -0.039000
     14 C9         -0.9730   -1.6320    3.2710 c2        1 TAX     -0.125000
     15 C10        -1.4010   -1.5780    4.5850 c1        1 TAX     -0.130000
     16 C11        -0.6020   -0.9700    5.5540 c1        1 TAX     -0.123500
     17 C12         0.6060   -0.4280    5.2050 c1        1 TAX     -0.123500
     18 C13         1.0360   -0.4820    3.8890 c1        1 TAX     -0.111000
     19 C14         1.5310   -2.1320    0.9680 c2        1 TAX     -0.004000
     20 C15         2.0210   -3.2730    1.9670 c2        1 TAX     -0.060000
     21 C16         1.3190   -4.4770    2.0480 c2        1 TAX     -0.108000
     22 C17         1.7960   -5.5120    2.8670 c1        1 TAX     -0.127000
     23 C18         2.9620   -5.3400    3.5920 c1        1 TAX     -0.123500
     24 C19         3.6730   -4.1230    3.5110 c1        1 TAX     -0.123500
     25 C20         3.2030   -3.0990    2.7030 c1        1 TAX     -0.116000
     26 NI         -2.4180    4.8270   -4.5840 n4        1 TAX      0.003000
     27 C21        -3.5180    5.6750   -4.3790 c3        1 TAX     -0.192500
     28 C22        -2.3240    4.4790   -5.9910 c3        1 TAX     -0.192500
     29 HA1         1.2230   -1.8880   -1.1120 hc        1 TAX      0.091000
     30 HA2         2.7190   -1.5170   -0.6590 hc        1 TAX      0.091000
     31 HB1         3.0880   -3.9060   -0.2490 hc        1 TAX      0.080000
     32 HB2         1.7050   -4.1630   -0.9760 hc        1 TAX      0.080000
     33 HB3         2.9050   -3.5420   -1.7830 hc        1 TAX      0.080000
     34 HA11       -0.9460    2.2850   -3.4210 h1        1 TAX      0.134500
     35 HA12       -0.5170    3.8630   -3.3870 h1        1 TAX      0.134500
     36 HB11       -3.2890    3.7590   -3.0590 hx        1 TAX      0.146000
     37 HB12       -2.9060    2.8490   -4.3790 hx        1 TAX      0.146000
     38 H2         -2.4080    0.8550   -1.3290 ha        1 TAX      0.120000
     39 H3         -1.5670   -0.9260   -0.0350 ha        1 TAX      0.152000
     40 H5          1.8340    1.2260    0.7460 ha        1 TAX      0.157000
     41 H6          0.9930    3.0340   -0.5550 ha        1 TAX      0.155000
     42 H9         -1.5310   -2.0570    2.5950 ha        1 TAX      0.127000
     43 H10        -2.2520   -1.9590    4.8320 ha        1 TAX      0.135000
     44 H11        -0.9000   -0.9320    6.4710 ha        1 TAX      0.138250
     45 H12         1.1730    0.0040    5.8960 ha        1 TAX      0.138250
     46 H13         1.9010   -0.0930    3.6400 ha        1 TAX      0.135000
     47 H16         0.4730   -4.6020    1.5220 ha        1 TAX      0.132000
     48 H17         1.2990   -6.3660    2.9250 ha        1 TAX      0.137000
     49 H18         3.2890   -6.0510    4.1540 ha        1 TAX      0.138250
     50 H19         4.5020   -4.0020    4.0280 ha        1 TAX      0.138250
     51 H20         3.6940   -2.2610    2.6470 ha        1 TAX      0.131000
     52 HI         -1.6480    5.2540   -4.3210 hn        1 TAX      0.270000
     53 H211       -3.5630    5.9210   -3.4520 hx        1 TAX      0.144167
     54 H212       -3.4190    6.4650   -4.9130 hx        1 TAX      0.144167
     55 H213       -4.3430    5.2070   -4.6350 hx        1 TAX      0.144167
     56 H221       -2.8880    3.7100   -6.1720 hx        1 TAX      0.144167
     57 H222       -1.3870    4.2610   -6.2140 hx        1 TAX      0.144167
     58 H223       -2.6330    5.2690   -6.5590 hx        1 TAX      0.144167
@<TRIPOS>BOND
     1    1    2 1   
     2    1   19 1   
     3    1   29 1   
     4    1   30 1   
     5    2   31 1   
     6    2   32 1   
     7    2   33 1   
     8    3    4 1   
     9    3    6 1   
    10    4    5 1   
    11    4   34 1   
    12    4   35 1   
    13    5   26 1   
    14    5   36 1   
    15    5   37 1   
    16    6    7 1   
    17    6   10 1   
    18    7    8 1   
    19    7   38 1   
    20    8   39 1   
    21    9   11 1   
    22    9   40 1   
    23   10   41 1   
    24   11   12 1   
    25   12   13 1   
    26   12   19 1   
    27   13   14 1   
    28   13   18 1   
    29   14   15 1   
    30   14   42 1   
    31   15   43 1   
    32   16   17 1   
    33   16   44 1   
    34   17   45 1   
    35   18   46 1   
    36   19   20 1   
    37   20   21 1   
    38   20   25 1   
    39   21   22 1   
    40   21   47 1   
    41   22   48 1   
    42   23   24 1   
    43   23   49 1   
    44   24   50 1   
    45   25   51 1   
    46   26   27 1   
    47   26   28 1   
    48   26   52 1   
    49   27   53 1   
    50   27   54 1   
    51   27   55 1   
    52   28   56 1   
    53   28   57 1   
    54   28   58 1   
@<TRIPOS>SUBSTRUCTURE
     1 TAX         1 TEMP              0 ****  ****    0 ROOT
