@<TRIPOS>MOLECULE
TAX
   58    60     1     0     0
SMALL
bcc


@<TRIPOS>ATOM
      1 CA         -0.1410   -0.1130    0.0070 c3        1 TAX     -0.135000
      2 CB          1.1140    0.6890   -0.2510 c3        1 TAX     -0.213000
      3 CA1         2.7840   -6.3840   -0.2590 c3        1 TAX     -0.008000
      4 CB1         3.9480   -7.3250   -0.4290 c2        1 TAX     -0.089000
      5 C1          2.3120   -4.4650    1.0710 c2        1 TAX      0.123000
      6 C2          2.8510   -3.5720    2.1440 c3        1 TAX     -0.135000
      7 C3          2.1920   -2.2050    2.1510 c3        1 TAX     -0.105000
      8 C5          0.2430   -3.2220    1.0020 c2        1 TAX     -0.005000
      9 C6          1.0650   -4.3120    0.5540 c2        1 TAX     -0.299000
     10 C4          0.7430   -2.2390    1.7910 c2        1 TAX     -0.220000
     11 C7         -0.0820   -1.1440    2.2990 ca        1 TAX      0.203000
     12 C8         -0.4250   -1.1390    3.6880 ca        1 TAX     -0.099000
     13 C9         -0.0100   -2.2000    4.5350 ca        1 TAX     -0.063000
     14 C10        -0.3400   -2.2090    5.8740 ca        1 TAX     -0.131000
     15 C11        -1.1010   -1.1570    6.4130 ca        1 TAX     -0.049000
     16 C12        -1.5250   -0.1160    5.6060 ca        1 TAX     -0.154000
     17 C13        -1.2040   -0.0830    4.2320 ca        1 TAX      0.032000
     18 C14        -0.5250   -0.1140    1.4520 ca        1 TAX     -0.144000
     19 C15        -1.3110    0.9260    1.9700 ca        1 TAX      0.096000
     20 C16        -1.8000    1.9880    1.0570 c3        1 TAX     -0.181000
     21 C17        -2.5640    3.0840    1.6700 c2        1 TAX     -0.009000
     22 C18        -2.8400    3.1060    2.9990 c2        1 TAX     -0.207000
     23 C19        -2.3890    2.0560    3.8420 c2        1 TAX      0.104000
     24 C20        -1.6490    0.9810    3.3600 ca        1 TAX     -0.128000
     25 NI          3.8980   -8.2760   -1.2880 n2        1 TAX     -0.173000
     26 C21        -0.4620   -8.0750    0.3280 c3        1 TAX     -0.272000
     27 C22         4.9880   -9.1800   -1.4640 c3        1 TAX     -0.155000
     28 HA1         1.9840    0.2390    0.2860 hc        1 TAX      0.085667
     29 HA2        -0.9830    0.2880   -0.6170 hc        1 TAX      0.103000
     30 HB1         0.0290   -1.1690   -0.3410 hc        1 TAX      0.103000
     31 HB2         1.0040    1.7460    0.0890 hc        1 TAX      0.085667
     32 HB3         1.3390    0.6920   -1.3460 hc        1 TAX      0.085667
     33 HA11        0.6420   -4.9980   -0.1930 ha        1 TAX      0.159000
     34 HA12        2.5600   -5.8280   -1.2070 h1        1 TAX      0.112500
     35 HB11        1.8660   -6.9260    0.1000 h1        1 TAX      0.112500
     36 HB12        4.8070   -7.1070    0.2430 h4        1 TAX      0.123000
     37 H2          3.9610   -3.4510    2.0180 hc        1 TAX      0.120500
     38 H3          2.6840   -4.0910    3.1280 hc        1 TAX      0.120500
     39 H5          2.7140   -1.5370    1.4090 hc        1 TAX      0.099500
     40 H6         -0.8150   -3.2320    0.6920 ha        1 TAX      0.139000
     41 H9          2.3330   -1.7440    3.1660 hc        1 TAX      0.099500
     42 H10         0.5810   -3.0280    4.1050 ha        1 TAX      0.164000
     43 H11        -0.0140   -3.0370    6.5250 ha        1 TAX      0.164000
     44 H12        -1.3610   -1.1670    7.4850 ha        1 TAX      0.161000
     45 H13        -2.1260    0.6860    6.0610 ha        1 TAX      0.144000
     46 H16        -0.9180    2.4290    0.4960 hc        1 TAX      0.181000
     47 H17        -2.4550    1.5070    0.2620 hc        1 TAX      0.181000
     48 H18        -2.9070    3.8880    0.9940 ha        1 TAX      0.172000
     49 H19        -3.4150    3.9330    3.4520 ha        1 TAX      0.179000
     50 H20        -2.6490    2.1290    4.9150 ha        1 TAX      0.169000
     51 HI         -0.5390   -6.9710    0.2160 hc        1 TAX      0.068250
     52 H211        0.1270   -8.3160    1.2400 hc        1 TAX      0.068250
     53 H212       -1.4810   -8.5090    0.4210 hc        1 TAX      0.068250
     54 H213        0.0430   -8.5050   -0.5650 hc        1 TAX      0.068250
     55 H221        5.3180   -9.1160   -2.5370 h1        1 TAX      0.094000
     56 H222        4.6080  -10.2200   -1.2730 h1        1 TAX      0.094000
     57 H223        5.8770   -8.9940   -0.8030 h1        1 TAX      0.094000
     58 OL          3.2060   -5.4450    0.7510 os        1 TAX     -0.204000
@<TRIPOS>BOND
     1    1    2 1   
     2    1   18 1   
     3    1   29 1   
     4    1   30 1   
     5    2   28 1   
     6    2   31 1   
     7    2   32 1   
     8    3    4 1   
     9    3   34 1   
    10    3   35 1   
    11    3   58 1   
    12    4   25 1   
    13    4   36 1   
    14    5    6 1   
    15    5    9 1   
    16    5   58 1   
    17    6    7 1   
    18    6   37 1   
    19    6   38 1   
    20    7   10 1   
    21    7   39 1   
    22    7   41 1   
    23    8    9 1   
    24    8   10 1   
    25    8   40 1   
    26    9   33 1   
    27   10   11 1   
    28   11   12 1   
    29   11   18 1   
    30   12   13 1   
    31   12   17 1   
    32   13   14 1   
    33   13   42 1   
    34   14   15 1   
    35   14   43 1   
    36   15   16 1   
    37   15   44 1   
    38   16   17 1   
    39   16   45 1   
    40   17   24 1   
    41   18   19 1   
    42   19   20 1   
    43   19   24 1   
    44   20   21 1   
    45   20   46 1   
    46   20   47 1   
    47   21   22 1   
    48   21   48 1   
    49   22   23 1   
    50   22   49 1   
    51   23   24 1   
    52   23   50 1   
    53   25   27 1   
    54   26   51 1   
    55   26   52 1   
    56   26   53 1   
    57   26   54 1   
    58   27   55 1   
    59   27   56 1   
    60   27   57 1   
@<TRIPOS>SUBSTRUCTURE
     1 TAX         1 TEMP              0 ****  ****    0 ROOT
