@<TRIPOS>MOLECULE
TAX
   58    60     1     0     0
SMALL
bcc


@<TRIPOS>ATOM
      1 CA         -1.5000    2.5350   -0.2040 c3        1 TAX     -0.053200
      2 CB         -0.9310    2.9740    1.1240 c3        1 TAX     -0.090100
      3 CA1         4.8790    0.6110   -1.0340 c3        1 TAX      0.108400
      4 CB1         6.2530    0.8350   -0.3920 c3        1 TAX      0.097800
      5 C1          2.7740   -0.1000   -0.1830 ca        1 TAX      0.072100
      6 C2          2.1190   -0.3050    1.0380 ca        1 TAX     -0.152500
      7 C3          0.7280   -0.2470    1.0680 ca        1 TAX     -0.090500
      8 C5          0.6760    0.2350   -1.3060 ca        1 TAX     -0.090500
      9 C6          2.0670    0.1720   -1.3580 ca        1 TAX     -0.152500
     10 C4         -0.0030    0.0250   -0.0980 ca        1 TAX     -0.022800
     11 C7         -1.4740    0.0500   -0.0570 ce        1 TAX     -0.047400
     12 C8         -2.0860   -1.2790    0.0750 ca        1 TAX     -0.054800
     13 C9         -2.0430   -2.1830   -0.9960 ca        1 TAX     -0.118000
     14 C10        -2.6000   -3.4530   -0.8640 ca        1 TAX     -0.127500
     15 C11        -3.2010   -3.8340    0.3370 ca        1 TAX     -0.122000
     16 C12        -3.2440   -2.9390    1.4060 ca        1 TAX     -0.127500
     17 C13        -2.6900   -1.6660    1.2780 ca        1 TAX     -0.118000
     18 C14        -2.1780    1.2030   -0.1260 cf        1 TAX     -0.000400
     19 C15        -3.6430    1.2430   -0.1620 ca        1 TAX     -0.073800
     20 C16        -4.3470    2.1130    0.6830 ca        1 TAX     -0.111000
     21 C17        -5.7380    2.1730    0.6300 ca        1 TAX     -0.130000
     22 C18        -6.4410    1.3750   -0.2740 ca        1 TAX     -0.116000
     23 C19        -5.7470    0.5120   -1.1210 ca        1 TAX     -0.130000
     24 C20        -4.3560    0.4430   -1.0650 ca        1 TAX     -0.111000
     25 NI          6.9410   -0.4440   -0.0090 n4        1 TAX     -0.677400
     26 C21         7.4630   -1.1610   -1.2000 c3        1 TAX      0.082600
     27 C22         8.0280   -0.1820    0.9690 c3        1 TAX      0.082600
     28 HA1        -2.2290    3.3080   -0.5690 hc        1 TAX      0.053700
     29 HA2        -0.6700    2.4780   -0.9620 hc        1 TAX      0.053700
     30 HB1        -0.4020    3.9500    1.0080 hc        1 TAX      0.037033
     31 HB2        -1.7400    3.0990    1.8840 hc        1 TAX      0.037033
     32 HB3        -0.2040    2.2160    1.5080 hc        1 TAX      0.037033
     33 HA11        4.9680    0.1230   -2.0420 h1        1 TAX      0.081200
     34 HA12        4.3690    1.6050   -1.1410 h1        1 TAX      0.081200
     35 HB11        6.9130    1.3990   -1.1090 hx        1 TAX      0.109200
     36 HB12        6.1210    1.4420    0.5500 hx        1 TAX      0.109200
     37 H2          2.6950   -0.5220    1.9480 ha        1 TAX      0.139500
     38 H3          0.1940   -0.4190    2.0160 ha        1 TAX      0.155000
     39 H5          0.1040    0.4450   -2.2240 ha        1 TAX      0.155000
     40 H6          2.5920    0.3260   -2.3110 ha        1 TAX      0.139500
     41 H9         -1.5710   -1.8830   -1.9430 ha        1 TAX      0.133000
     42 H10        -2.5690   -4.1560   -1.7100 ha        1 TAX      0.136500
     43 H11        -3.6420   -4.8360    0.4390 ha        1 TAX      0.138000
     44 H12        -3.7220   -3.2350    2.3520 ha        1 TAX      0.136500
     45 H13        -2.7350   -0.9590    2.1200 ha        1 TAX      0.133000
     46 H16        -3.7980    2.7500    1.3920 ha        1 TAX      0.135000
     47 H17        -6.2820    2.8530    1.3010 ha        1 TAX      0.137500
     48 H18        -7.5390    1.4270   -0.3170 ha        1 TAX      0.138000
     49 H19        -6.2970   -0.1190   -1.8350 ha        1 TAX      0.137500
     50 H20        -3.8110   -0.2500   -1.7250 ha        1 TAX      0.135000
     51 HI          6.2280   -1.0440    0.4420 hn        1 TAX      0.474800
     52 H211        8.2390   -0.5310   -1.7100 hx        1 TAX      0.104867
     53 H212        7.9230   -2.1330   -0.8750 hx        1 TAX      0.104867
     54 H213        6.6150   -1.3670   -1.9070 hx        1 TAX      0.104867
     55 H221        7.5930    0.2730    1.8990 hx        1 TAX      0.104867
     56 H222        8.5340   -1.1510    1.2280 hx        1 TAX      0.104867
     57 H223        8.7770    0.5230    0.5190 hx        1 TAX      0.104867
     58 OL          4.1610   -0.2640   -0.1670 os        1 TAX     -0.381900
@<TRIPOS>BOND
     1    1    2 1   
     2    1   18 1   
     3    1   28 1   
     4    1   29 1   
     5    2   30 1   
     6    2   31 1   
     7    2   32 1   
     8    3    4 1   
     9    3   33 1   
    10    3   34 1   
    11    3   58 1   
    12    4   25 1   
    13    4   35 1   
    14    4   36 1   
    15    5    6 ar  
    16    5    9 ar  
    17    5   58 1   
    18    6    7 ar  
    19    6   37 1   
    20    7   10 ar  
    21    7   38 1   
    22    8    9 ar  
    23    8   10 ar  
    24    8   39 1   
    25    9   40 1   
    26   10   11 1   
    27   11   12 1   
    28   11   18 2   
    29   12   13 ar  
    30   12   17 ar  
    31   13   14 ar  
    32   13   41 1   
    33   14   15 ar  
    34   14   42 1   
    35   15   16 ar  
    36   15   43 1   
    37   16   17 ar  
    38   16   44 1   
    39   17   45 1   
    40   18   19 1   
    41   19   20 ar  
    42   19   24 ar  
    43   20   21 ar  
    44   20   46 1   
    45   21   22 ar  
    46   21   47 1   
    47   22   23 ar  
    48   22   48 1   
    49   23   24 ar  
    50   23   49 1   
    51   24   50 1   
    52   25   26 1   
    53   25   27 1   
    54   25   51 1   
    55   26   52 1   
    56   26   53 1   
    57   26   54 1   
    58   27   55 1   
    59   27   56 1   
    60   27   57 1   
@<TRIPOS>SUBSTRUCTURE
     1 TAX         1 TEMP              0 ****  ****    0 ROOT
