@<TRIPOS>MOLECULE
TAY
   18    17     1     0     0
SMALL
bcc


@<TRIPOS>ATOM
      1 CAA         1.2880    1.3380    0.0000 c3        1 TAY     -0.086100
      2 CAB         1.0610   -0.7980   -1.2470 c3        1 TAY     -0.086100
      3 CAC         1.0610   -0.7980    1.2480 c3        1 TAY     -0.086100
      4 NAD        -1.6770   -0.9800   -0.0000 n         1 TAY     -0.677000
      5 OAE        -1.4220    1.2700   -0.0000 o         1 TAY     -0.614100
      6 CAF        -0.8860    0.1430   -0.0000 c         1 TAY      0.660100
      7 CAG         0.6370   -0.0390    0.0000 c3        1 TAY     -0.118000
      8 HAA         0.9720    1.9110   -0.9040 hc        1 TAY      0.043033
      9 HAAA        0.9720    1.9110    0.9040 hc        1 TAY      0.043033
     10 HAAB        2.3990    1.2340    0.0000 hc        1 TAY      0.043033
     11 HAB         2.1760   -0.8230   -1.3110 hc        1 TAY      0.043033
     12 HABA        0.6900   -1.8510   -1.2260 hc        1 TAY      0.043033
     13 HABB        0.6640   -0.2950   -2.1620 hc        1 TAY      0.043033
     14 HAC         0.6630   -0.2950    2.1620 hc        1 TAY      0.043033
     15 HACA        0.6900   -1.8510    1.2260 hc        1 TAY      0.043033
     16 HACB        2.1760   -0.8230    1.3110 hc        1 TAY      0.043033
     17 HNAD       -2.6610   -0.8860   -0.0010 hn        1 TAY      0.310000
     18 HNAA       -1.2810   -1.8830   -0.0000 hn        1 TAY      0.310000
@<TRIPOS>BOND
     1    1    7 1   
     2    1    8 1   
     3    1    9 1   
     4    1   10 1   
     5    2    7 1   
     6    2   11 1   
     7    2   12 1   
     8    2   13 1   
     9    3    7 1   
    10    3   14 1   
    11    3   15 1   
    12    3   16 1   
    13    4    6 1   
    14    4   17 1   
    15    4   18 1   
    16    5    6 2   
    17    6    7 1   
@<TRIPOS>SUBSTRUCTURE
     1 TAY         1 TEMP              0 ****  ****    0 ROOT
