@<TRIPOS>MOLECULE
TAY
   19    18     1     0     0
SMALL
bcc


@<TRIPOS>ATOM
      1 CAA        -0.0260   -0.0270    0.0010 c3        1 TAY     -0.114767
      2 CAB         1.9970    0.0130    1.4620 c3        1 TAY     -0.114767
      3 CAC         2.0470   -1.2110   -0.7230 c3        1 TAY     -0.114767
      4 NAD         3.4420    1.4170   -0.8990 n4        1 TAY     -0.770400
      5 OAE         1.2900    2.2280   -1.0500 o         1 TAY     -0.383100
      6 CAF         1.9430    1.2790   -0.6620 c         1 TAY      0.545100
      7 CAG         1.5000   -0.0050    0.0240 c3        1 TAY     -0.094000
      8 HAA        -0.4020   -0.0480   -1.0510 hc        1 TAY      0.071478
      9 HAAA       -0.3880   -0.9420    0.5310 hc        1 TAY      0.071478
     10 HAAB       -0.4400    0.8740    0.5140 hc        1 TAY      0.071478
     11 HAB         1.6690    0.9430    1.9880 hc        1 TAY      0.071478
     12 HABA        3.1090   -0.0720    1.5140 hc        1 TAY      0.071478
     13 HABB        1.5610   -0.8630    2.0060 hc        1 TAY      0.071478
     14 HAC         3.1460   -1.3320   -0.5630 hc        1 TAY      0.071478
     15 HACA        1.8310   -1.1410   -1.8160 hc        1 TAY      0.071478
     16 HACB        1.5470   -2.1350   -0.3330 hc        1 TAY      0.071478
     17 HNAD        3.6560    2.3210   -1.3360 hn        1 TAY      0.467800
     18 HNAA        3.7610    0.6610   -1.5120 hn        1 TAY      0.467800
     19 HAD3        3.9370    1.3470   -0.0050 hn        1 TAY      0.467800
@<TRIPOS>BOND
     1    1    7 1   
     2    1    8 1   
     3    1    9 1   
     4    1   10 1   
     5    2    7 1   
     6    2   11 1   
     7    2   12 1   
     8    2   13 1   
     9    3    7 1   
    10    3   14 1   
    11    3   15 1   
    12    3   16 1   
    13    4    6 1   
    14    4   17 1   
    15    4   18 1   
    16    4   19 1   
    17    5    6 2   
    18    6    7 1   
@<TRIPOS>SUBSTRUCTURE
     1 TAY         1 TEMP              0 ****  ****    0 ROOT
