@<TRIPOS>MOLECULE
TAY
   19    18     1     0     0
SMALL
bcc


@<TRIPOS>ATOM
      1 CAA        -0.0260   -0.0300   -0.0050 c3        1 TAY     -0.114767
      2 CAB         1.9910    0.0330    1.4630 c3        1 TAY     -0.114767
      3 CAC         2.0520   -1.2180   -0.7060 c3        1 TAY     -0.114767
      4 NAD         3.4430    1.4120   -0.9030 nz        1 TAY     -0.770400
      5 OAE         1.2890    2.2120   -1.0850 o         1 TAY     -0.383100
      6 CAF         1.9430    1.2710   -0.6780 c         1 TAY      0.545100
      7 CAG         1.4990   -0.0040    0.0240 c3        1 TAY     -0.094000
      8 HAA        -0.3980   -0.0640   -1.0580 hc        1 TAY      0.071478
      9 HAAA       -0.3890   -0.9390    0.5340 hc        1 TAY      0.071478
     10 HAAB       -0.4440    0.8760    0.4960 hc        1 TAY      0.071478
     11 HAB         1.6610    0.9690    1.9750 hc        1 TAY      0.071478
     12 HABA        3.1030   -0.0520    1.5210 hc        1 TAY      0.071478
     13 HABB        1.5520   -0.8370    2.0170 hc        1 TAY      0.071478
     14 HAC         3.1510   -1.3350   -0.5410 hc        1 TAY      0.071478
     15 HACA        1.8390   -1.1630   -1.8000 hc        1 TAY      0.071478
     16 HACB        1.5530   -2.1390   -0.3060 hc        1 TAY      0.071478
     17 HNAD        3.6580    2.3100   -1.3530 hn        1 TAY      0.467800
     18 HNAA        3.7710    0.6480   -1.5010 hn        1 TAY      0.467800
     19 HAD3        3.9310    1.3590   -0.0040 hn        1 TAY      0.467800
@<TRIPOS>BOND
     1    1    7 1   
     2    1    8 1   
     3    1    9 1   
     4    1   10 1   
     5    2    7 1   
     6    2   11 1   
     7    2   12 1   
     8    2   13 1   
     9    3    7 1   
    10    3   14 1   
    11    3   15 1   
    12    3   16 1   
    13    4    6 1   
    14    4   17 1   
    15    4   18 1   
    16    4   19 1   
    17    5    6 2   
    18    6    7 1   
@<TRIPOS>SUBSTRUCTURE
     1 TAY         1 TEMP              0 ****  ****    0 ROOT
