@<TRIPOS>MOLECULE
TAZ
   31    33     1     0     0
SMALL
bcc


@<TRIPOS>ATOM
      1 S1          1.4720   -0.0160    0.2410 s6        1 TAZ      1.226000
      2 C2         -0.2640    0.0040    0.0930 c3        1 TAZ     -0.233200
      3 C3         -0.6250    0.7210   -1.2570 c3        1 TAZ     -0.078300
      4 C5          1.7790    0.4290   -1.4030 cy        1 TAZ     -0.184500
      5 C6          2.0980   -0.6480   -2.4680 cy        1 TAZ     -0.162400
      6 C7          0.8050   -0.1930   -3.1740 c         1 TAZ      0.705500
      7 C9         -1.9410    0.0700   -1.8420 c         1 TAZ      0.940600
      8 N4          0.5240    0.7850   -2.1360 n         1 TAZ     -0.326800
      9 C20        -0.7720   -1.4260    0.0800 c3        1 TAZ     -0.086100
     10 C14        -0.9960    0.8110    1.1770 c3        1 TAZ      0.078300
     11 C19        -0.1520    0.0590    4.6200 cc        1 TAZ      0.223200
     12 C18         0.1610    0.7290    3.4260 cd        1 TAZ     -0.224600
     13 N15        -0.8460    0.3200    2.5340 na        1 TAZ      0.042400
     14 N16        -1.6920   -0.5290    3.1670 nd        1 TAZ     -0.158800
     15 N17        -1.3160   -0.6980    4.3700 nc        1 TAZ     -0.380000
     16 O12         1.9220    1.0240    1.0900 o         1 TAZ     -0.659300
     17 O13         2.0150   -1.2840    0.5190 o         1 TAZ     -0.659300
     18 O8          0.3430   -0.4080   -4.2800 o         1 TAZ     -0.507500
     19 O10        -1.8180   -0.9040   -2.6200 o         1 TAZ     -0.797300
     20 O11        -3.0040    0.5900   -1.4180 o         1 TAZ     -0.797300
     21 HC3        -0.8820    1.8000   -1.0330 h1        1 TAZ      0.074700
     22 HC51        2.4930    1.2920   -1.4530 h2        1 TAZ      0.123700
     23 HC61        3.0270   -0.4760   -3.0460 hc        1 TAZ      0.081700
     24 HC62        2.0630   -1.6910   -2.0840 hc        1 TAZ      0.081700
     25 H201       -0.3630   -2.0000    0.9460 hc        1 TAZ      0.069700
     26 H202       -1.8900   -1.4380    0.1290 hc        1 TAZ      0.069700
     27 H203       -0.4760   -1.9310   -0.8750 hc        1 TAZ      0.069700
     28 H141       -0.6030    1.8690    1.1720 h1        1 TAZ      0.104700
     29 H142       -2.0950    0.8190    0.8900 h1        1 TAZ      0.104700
     30 H191        0.3460    0.0600    5.5840 h4        1 TAZ      0.043100
     31 H181        0.9720    1.3980    3.1320 h4        1 TAZ      0.218000
@<TRIPOS>BOND
     1    1    2 1   
     2    1    4 1   
     3    1   16 2   
     4    1   17 2   
     5    2    3 1   
     6    2    9 1   
     7    2   10 1   
     8    3    7 1   
     9    3    8 1   
    10    3   21 1   
    11    4    5 1   
    12    4    8 1   
    13    4   22 1   
    14    5    6 1   
    15    5   23 1   
    16    5   24 1   
    17    6    8 1   
    18    6   18 2   
    19    7   19 1   
    20    7   20 1   
    21    9   25 1   
    22    9   26 1   
    23    9   27 1   
    24   10   13 1   
    25   10   28 1   
    26   10   29 1   
    27   11   12 2   
    28   11   15 1   
    29   11   30 1   
    30   12   13 1   
    31   12   31 1   
    32   13   14 1   
    33   14   15 2   
@<TRIPOS>SUBSTRUCTURE
     1 TAZ         1 TEMP              0 ****  ****    0 ROOT
