@<TRIPOS>MOLECULE
TAZ
   31    33     1     0     0
SMALL
bcc


@<TRIPOS>ATOM
      1 S1          0.0740   -0.3220   -0.2050 s6        1 TAZ      1.226000
      2 C2          1.8050   -0.1290   -0.1120 c3        1 TAZ     -0.233200
      3 C3          2.2100   -0.1300    1.4050 c3        1 TAZ     -0.078300
      4 C5         -0.1230   -0.7960    1.4480 cy        1 TAZ     -0.184500
      5 C6         -0.2180   -2.2920    1.8360 cy        1 TAZ     -0.162400
      6 C7          1.0770   -2.0650    2.6410 c         1 TAZ      0.705500
      7 C9          3.6390   -0.7890    1.5500 c         1 TAZ      0.940600
      8 N4          1.1490   -0.6740    2.2280 n         1 TAZ     -0.326800
      9 C20         2.4660   -1.2900   -0.8320 c3        1 TAZ     -0.086100
     10 C14         2.3370    1.2030   -0.6630 c3        1 TAZ      0.078300
     11 C19         1.2600    2.1380   -3.9940 cc        1 TAZ      0.223200
     12 C18         0.9900    2.0780   -2.6180 cd        1 TAZ     -0.224600
     13 N15         2.1150    1.4300   -2.0780 na        1 TAZ      0.042400
     14 N16         2.9860    1.1360   -3.0750 nd        1 TAZ     -0.158800
     15 N17         2.5190    1.5310   -4.1890 nc        1 TAZ     -0.380000
     16 O12        -0.5660    0.9240   -0.4050 o         1 TAZ     -0.659300
     17 O13        -0.3470   -1.3500   -1.0670 o         1 TAZ     -0.659300
     18 O8          1.6620   -2.7300    3.4770 o         1 TAZ     -0.507500
     19 O10         3.6990   -2.0260    1.7360 o         1 TAZ     -0.797300
     20 O11         4.5930    0.0190    1.4160 o         1 TAZ     -0.797300
     21 HC3         2.3230    0.9420    1.7470 h1        1 TAZ      0.074700
     22 HC51       -0.9200   -0.1830    1.9430 h2        1 TAZ      0.123700
     23 HC61       -0.1040   -2.9920    0.9790 hc        1 TAZ      0.081700
     24 HC62       -1.1030   -2.5630    2.4470 hc        1 TAZ      0.081700
     25 H201        2.0430   -1.4130   -1.8590 hc        1 TAZ      0.069700
     26 H202        2.3200   -2.2370   -0.2530 hc        1 TAZ      0.069700
     27 H203        3.5700   -1.1160   -0.9090 hc        1 TAZ      0.069700
     28 H141        3.4500    1.2250   -0.4390 h1        1 TAZ      0.104700
     29 H142        1.8310    2.0510   -0.1170 h1        1 TAZ      0.104700
     30 H191        0.6770    2.5430   -4.8140 h4        1 TAZ      0.043100
     31 H181        0.1410    2.3900   -2.0060 h4        1 TAZ      0.218000
@<TRIPOS>BOND
     1    1    2 1   
     2    1    4 1   
     3    1   16 2   
     4    1   17 2   
     5    2    3 1   
     6    2    9 1   
     7    2   10 1   
     8    3    7 1   
     9    3    8 1   
    10    3   21 1   
    11    4    5 1   
    12    4    8 1   
    13    4   22 1   
    14    5    6 1   
    15    5   23 1   
    16    5   24 1   
    17    6    8 1   
    18    6   18 2   
    19    7   19 1   
    20    7   20 1   
    21    9   25 1   
    22    9   26 1   
    23    9   27 1   
    24   10   13 1   
    25   10   28 1   
    26   10   29 1   
    27   11   12 2   
    28   11   15 1   
    29   11   30 1   
    30   12   13 1   
    31   12   31 1   
    32   13   14 1   
    33   14   15 2   
@<TRIPOS>SUBSTRUCTURE
     1 TAZ         1 TEMP              0 ****  ****    0 ROOT
