@<TRIPOS>MOLECULE
TAZ
   31    33     1     0     0
SMALL
bcc


@<TRIPOS>ATOM
      1 S1          0.0750   -0.3270   -0.2190 s6        1 TAZ      1.226000
      2 C2          1.8030   -0.1220   -0.1120 c3        1 TAZ     -0.233200
      3 C3          2.1960   -0.1230    1.4090 c3        1 TAZ     -0.078300
      4 C5         -0.1330   -0.8070    1.4300 cy        1 TAZ     -0.184500
      5 C6         -0.2200   -2.3050    1.8130 cy        1 TAZ     -0.162400
      6 C7          1.0670   -2.0710    2.6300 c         1 TAZ      0.705500
      7 C9          3.6290   -0.7720    1.5630 c         1 TAZ      0.940600
      8 N4          1.1320   -0.6780    2.2210 n         1 TAZ     -0.326800
      9 C20         2.4790   -1.2760   -0.8290 c3        1 TAZ     -0.086100
     10 C14         2.3300    1.2160   -0.6550 c3        1 TAZ      0.078300
     11 C19         1.2740    2.1510   -3.9920 cc        1 TAZ      0.223200
     12 C18         0.9920    2.0860   -2.6190 cd        1 TAZ     -0.224600
     13 N15         2.1180    1.4450   -2.0710 na        1 TAZ      0.042400
     14 N16         3.0000    1.1600   -3.0610 nd        1 TAZ     -0.158800
     15 N17         2.5390    1.5540   -4.1780 nc        1 TAZ     -0.380000
     16 O12        -0.5730    0.9150   -0.4210 o         1 TAZ     -0.659300
     17 O13        -0.3320   -1.3550   -1.0880 o         1 TAZ     -0.659300
     18 O8          1.6510   -2.7340    3.4680 o         1 TAZ     -0.507500
     19 O10         3.6960   -2.0090    1.7470 o         1 TAZ     -0.797300
     20 O11         4.5770    0.0430    1.4390 o         1 TAZ     -0.797300
     21 HC3         2.2970    0.9480    1.7540 h1        1 TAZ      0.074700
     22 HC51       -0.9380   -0.2020    1.9210 h2        1 TAZ      0.123700
     23 HC61       -1.1070   -2.5850    2.4160 hc        1 TAZ      0.081700
     24 HC62       -0.0940   -3.0020    0.9550 hc        1 TAZ      0.081700
     25 H201        2.3340   -2.2250   -0.2540 hc        1 TAZ      0.069700
     26 H202        3.5820   -1.0930   -0.8970 hc        1 TAZ      0.069700
     27 H203        2.0650   -1.3990   -1.8600 hc        1 TAZ      0.069700
     28 H141        1.8130    2.0590   -0.1110 h1        1 TAZ      0.104700
     29 H142        3.4410    1.2450   -0.4220 h1        1 TAZ      0.104700
     30 H191        0.6940    2.5540   -4.8160 h4        1 TAZ      0.043100
     31 H181        0.1360    2.3900   -2.0130 h4        1 TAZ      0.218000
@<TRIPOS>BOND
     1    1    2 1   
     2    1    4 1   
     3    1   16 2   
     4    1   17 2   
     5    2    3 1   
     6    2    9 1   
     7    2   10 1   
     8    3    7 1   
     9    3    8 1   
    10    3   21 1   
    11    4    5 1   
    12    4    8 1   
    13    4   22 1   
    14    5    6 1   
    15    5   23 1   
    16    5   24 1   
    17    6    8 1   
    18    6   18 2   
    19    7   19 1   
    20    7   20 1   
    21    9   25 1   
    22    9   26 1   
    23    9   27 1   
    24   10   13 1   
    25   10   28 1   
    26   10   29 1   
    27   11   12 2   
    28   11   15 1   
    29   11   30 1   
    30   12   13 1   
    31   12   31 1   
    32   13   14 1   
    33   14   15 2   
@<TRIPOS>SUBSTRUCTURE
     1 TAZ         1 TEMP              0 ****  ****    0 ROOT
