@<TRIPOS>MOLECULE
TAZ
   31    29     1     0     0
SMALL
bcc


@<TRIPOS>ATOM
      1 S1         -0.9310   -0.3770    0.0020 ss        1 TAZ      2.727000
      2 C2          0.5220   -0.3110   -0.0920 c2        1 TAZ     -0.666000
      3 C3          1.0470   -0.3300    1.5400 c3        1 TAZ     -0.120000
      4 C5         -1.2190    0.3350    1.4840 cv        1 TAZ     -0.737000
      5 C6         -1.7530   -0.5840    2.4740 cy        1 TAZ     -0.171000
      6 C7         -0.5170   -0.2270    3.3500 cv        1 TAZ      0.335000
      7 C9          1.1230   -1.6350    1.9740 c2        1 TAZ      0.343000
      8 N4          0.0730    0.4590    2.2360 n         1 TAZ     -0.194000
      9 C20         1.1320   -1.4170   -0.9440 c3        1 TAZ     -0.208000
     10 C14         1.0050    0.9880   -0.8510 c3        1 TAZ      0.027000
     11 C19        -0.6560    2.0470   -3.8820 c1        1 TAZ     -0.253000
     12 C18        -0.1370    2.3080   -2.6230 c1        1 TAZ     -0.113000
     13 N15         0.2520    1.1420   -2.0850 n3        1 TAZ     -0.171000
     14 N16        -0.0140    0.1620   -2.9790 n2        1 TAZ      0.000000
     15 N17        -0.5800    0.7430   -4.0940 n2        1 TAZ     -0.114000
     16 O12        -1.5720    0.3410   -1.0770 o         1 TAZ     -0.938500
     17 O13        -1.3670   -1.7340    0.0100 o         1 TAZ     -0.938500
     18 O8         -0.1890   -0.4320    4.5210 o         1 TAZ     -0.267000
     19 O10         0.5650   -2.5460    1.3190 o         1 TAZ     -0.531000
     20 O11         1.7560   -1.9110    3.0180 o         1 TAZ     -0.531000
     21 HC3         1.9390   -0.0190    1.7270 h1        1 TAZ      0.123000
     22 HC51       -1.7130    1.1760    1.4330 h4        1 TAZ      0.159000
     23 HC61       -2.6260   -0.2700    2.8010 hc        1 TAZ      0.126500
     24 HC62       -1.7140   -1.5280    2.1980 hc        1 TAZ      0.126500
     25 H201        0.5150   -2.1730   -0.9870 hc        1 TAZ      0.111000
     26 H202        1.9870   -1.7120   -0.5400 hc        1 TAZ      0.111000
     27 H203        1.3030   -1.0730   -1.8650 hc        1 TAZ      0.111000
     28 H141        0.8600    1.7640   -0.2860 h1        1 TAZ      0.123500
     29 H142        1.9520    0.9100   -1.0580 h1        1 TAZ      0.123500
     30 H191       -0.9780    2.7180   -4.5240 DU        1 TAZ      0.201500
     31 H181       -0.0660    3.1860   -2.2010 DU        1 TAZ      0.201500
@<TRIPOS>BOND
     1    1   16 1   
     2    1   17 1   
     3    2    3 1   
     4    2    9 1   
     5    2   10 1   
     6    3    7 1   
     7    3    8 1   
     8    3   21 1   
     9    4    5 1   
    10    4    8 1   
    11    4   22 1   
    12    5    6 1   
    13    5   23 1   
    14    5   24 1   
    15    6    8 1   
    16    6   18 1   
    17    7   19 1   
    18    7   20 1   
    19    9   25 1   
    20    9   26 1   
    21    9   27 1   
    22   10   13 1   
    23   10   28 1   
    24   10   29 1   
    25   11   12 1   
    26   11   15 1   
    27   12   13 1   
    28   13   14 1   
    29   14   15 1   
@<TRIPOS>SUBSTRUCTURE
     1 TAZ         1 TEMP              0 ****  ****    0 ROOT
