@<TRIPOS>MOLECULE
TB0
   15    14     1     0     0
SMALL
bcc


@<TRIPOS>ATOM
      1 C          -0.8710    2.2270   -1.0430 c1        1 TB0      0.428800
      2 N          -0.4940    1.2210   -0.5550 n1        1 TB0     -0.841300
      3 C2         -0.0380    0.0050    0.0350 c3        1 TB0      0.299500
      4 C4          1.5000   -0.0910   -0.0070 c3        1 TB0     -0.103100
      5 C3         -0.4760   -0.0960    1.5090 c3        1 TB0     -0.103100
      6 C1         -0.6060   -1.2200   -0.7090 c3        1 TB0     -0.103100
      7 H4          1.9650    0.7500    0.5580 hc        1 TB0      0.047033
      8 H4A         1.8120   -1.0540    0.4620 hc        1 TB0      0.047033
      9 H4B         1.8700   -0.0690   -1.0590 hc        1 TB0      0.047033
     10 H3         -0.0520    0.7460    2.1070 hc        1 TB0      0.047033
     11 H3A        -0.1000   -1.0590    1.9300 hc        1 TB0      0.047033
     12 H3B        -1.5880   -0.0780    1.5950 hc        1 TB0      0.047033
     13 H1         -0.2810   -1.2220   -1.7760 hc        1 TB0      0.047033
     14 H1A        -1.7210   -1.2260   -0.6710 hc        1 TB0      0.047033
     15 H1B        -0.2260   -2.1470   -0.2170 hc        1 TB0      0.047033
@<TRIPOS>BOND
     1    1    2 3   
     2    2    3 1   
     3    3    4 1   
     4    3    5 1   
     5    3    6 1   
     6    4    7 1   
     7    4    8 1   
     8    4    9 1   
     9    5   10 1   
    10    5   11 1   
    11    5   12 1   
    12    6   13 1   
    13    6   14 1   
    14    6   15 1   
@<TRIPOS>SUBSTRUCTURE
     1 TB0         1 TEMP              0 ****  ****    0 ROOT
