@<TRIPOS>MOLECULE
TB0
   15    14     1     0     0
SMALL
bcc


@<TRIPOS>ATOM
      1 C          -0.8520    2.1960   -1.1180 c1        1 TB0      0.428800
      2 N          -0.4830    1.2030   -0.6000 n1        1 TB0     -0.841300
      3 C2         -0.0360    0.0020    0.0280 c3        1 TB0      0.299500
      4 C4          1.5020   -0.1000    0.0020 c3        1 TB0     -0.103100
      5 C3         -0.4870   -0.0560    1.5010 c3        1 TB0     -0.103100
      6 C1         -0.6030   -1.2410   -0.6870 c3        1 TB0     -0.103100
      7 H4          1.9650    0.7550    0.5470 hc        1 TB0      0.047033
      8 H4A         1.8060   -1.0510    0.5010 hc        1 TB0      0.047033
      9 H4B         1.8810   -0.1090   -1.0470 hc        1 TB0      0.047033
     10 H3         -0.0660    0.8000    2.0790 hc        1 TB0      0.047033
     11 H3A        -0.1180   -1.0080    1.9510 hc        1 TB0      0.047033
     12 H3B        -1.6000   -0.0320    1.5770 hc        1 TB0      0.047033
     13 H1         -0.2680   -1.2740   -1.7510 hc        1 TB0      0.047033
     14 H1A        -1.7180   -1.2420   -0.6570 hc        1 TB0      0.047033
     15 H1B        -0.2300   -2.1550   -0.1660 hc        1 TB0      0.047033
@<TRIPOS>BOND
     1    1    2 3   
     2    2    3 1   
     3    3    4 1   
     4    3    5 1   
     5    3    6 1   
     6    4    7 1   
     7    4    8 1   
     8    4    9 1   
     9    5   10 1   
    10    5   11 1   
    11    5   12 1   
    12    6   13 1   
    13    6   14 1   
    14    6   15 1   
@<TRIPOS>SUBSTRUCTURE
     1 TB0         1 TEMP              0 ****  ****    0 ROOT
