@<TRIPOS>MOLECULE
TB0
   15    14     1     0     0
SMALL
bcc


@<TRIPOS>ATOM
      1 C          -2.3350    0.0000    0.0000 c1        1 TB0      0.428800
      2 N          -1.1550   -0.0000    0.0000 n1        1 TB0     -0.841300
      3 C2          0.2720   -0.0000    0.0000 c3        1 TB0      0.299500
      4 C4          0.8270   -0.0140    1.4380 c3        1 TB0     -0.103100
      5 C3          0.8270   -1.2380   -0.7310 c3        1 TB0     -0.103100
      6 C1          0.8270    1.2520   -0.7070 c3        1 TB0     -0.103100
      7 H4          0.4920   -0.9270    1.9840 hc        1 TB0      0.047033
      8 H4A         1.9420   -0.0130    1.3910 hc        1 TB0      0.047033
      9 H4B         0.4920    0.8890    2.0020 hc        1 TB0      0.047033
     10 H3          0.4920   -1.2550   -1.7950 hc        1 TB0      0.047033
     11 H3A         1.9420   -1.1980   -0.7070 hc        1 TB0      0.047033
     12 H3B         0.4920   -2.1780   -0.2310 hc        1 TB0      0.047033
     13 H1          0.4920    2.1820   -0.1890 hc        1 TB0      0.047033
     14 H1A         1.9420    1.2120   -0.6840 hc        1 TB0      0.047033
     15 H1B         0.4920    1.2890   -1.7710 hc        1 TB0      0.047033
@<TRIPOS>BOND
     1    1    2 3   
     2    2    3 1   
     3    3    4 1   
     4    3    5 1   
     5    3    6 1   
     6    4    7 1   
     7    4    8 1   
     8    4    9 1   
     9    5   10 1   
    10    5   11 1   
    11    5   12 1   
    12    6   13 1   
    13    6   14 1   
    14    6   15 1   
@<TRIPOS>SUBSTRUCTURE
     1 TB0         1 TEMP              0 ****  ****    0 ROOT
