@<TRIPOS>MOLECULE
TB1
   28    28     1     0     0
SMALL
bcc


@<TRIPOS>ATOM
      1 C2         -0.2750   -2.4710   -4.4530 ca        1 TB1     -0.123000
      2 C5         -0.7810   -3.7500   -4.6800 ca        1 TB1     -0.152000
      3 C8         -0.5630   -4.7600   -3.7440 ca        1 TB1     -0.171000
      4 C6          0.1600   -4.4850   -2.5830 ca        1 TB1     -0.152000
      5 C3          0.6710   -3.2080   -2.3510 ca        1 TB1     -0.123000
      6 C1          0.4540   -2.1910   -3.2910 ca        1 TB1     -0.085300
      7 C4          0.9950   -0.8080   -3.0870 c3        1 TB1      0.161700
      8 O2          1.8070   -0.7150   -1.9340 os        1 TB1     -0.410600
      9 C11         1.1450   -0.0920   -0.8130 c3        1 TB1      0.001100
     10 C9          1.0020    1.4190   -1.1150 c         1 TB1      0.888600
     11 O5         -0.0240    1.7810   -1.7720 o         1 TB1     -0.865300
     12 O1          1.8890    2.2390   -0.7420 o         1 TB1     -0.865300
     13 C7          1.9720   -0.4110    0.4550 c3        1 TB1      0.071500
     14 C10         1.7080   -1.8820    0.8880 c         1 TB1      0.911600
     15 O4          2.3790   -2.8290    0.3740 o         1 TB1     -0.869300
     16 O3          0.8070   -2.0850    1.7560 o         1 TB1     -0.869300
     17 N           3.3850   -0.1020    0.3600 n3        1 TB1     -0.898800
     18 H2         -0.4530   -1.6720   -5.1860 ha        1 TB1      0.172500
     19 H5         -1.3530   -3.9600   -5.5930 ha        1 TB1      0.107500
     20 H8         -0.9630   -5.7680   -3.9200 ha        1 TB1      0.092000
     21 H6          0.3290   -5.2740   -1.8360 ha        1 TB1      0.107500
     22 H3          1.2500   -2.9810   -1.4220 ha        1 TB1      0.172500
     23 H41         1.6770   -0.5610   -3.9490 h1        1 TB1      0.059200
     24 H42         0.1520   -0.0590   -3.0590 h1        1 TB1      0.059200
     25 H11         0.1230   -0.5410   -0.6910 h1        1 TB1      0.041700
     26 H7          1.5430    0.2590    1.2570 h1        1 TB1      0.054700
     27 HN1         3.4810    0.7790   -0.1180 hn        1 TB1      0.340800
     28 HN2         3.8250   -0.8120   -0.1970 hn        1 TB1      0.340800
@<TRIPOS>BOND
     1    1    2 ar  
     2    1    6 ar  
     3    1   18 1   
     4    2    3 ar  
     5    2   19 1   
     6    3    4 ar  
     7    3   20 1   
     8    4    5 ar  
     9    4   21 1   
    10    5    6 ar  
    11    5   22 1   
    12    6    7 1   
    13    7    8 1   
    14    7   23 1   
    15    7   24 1   
    16    8    9 1   
    17    9   10 1   
    18    9   13 1   
    19    9   25 1   
    20   10   11 1   
    21   10   12 1   
    22   13   14 1   
    23   13   17 1   
    24   13   26 1   
    25   14   15 1   
    26   14   16 1   
    27   17   27 1   
    28   17   28 1   
@<TRIPOS>SUBSTRUCTURE
     1 TB1         1 TEMP              0 ****  ****    0 ROOT
