@<TRIPOS>MOLECULE
TB1
   29    29     1     0     0
SMALL
bcc


@<TRIPOS>ATOM
      1 C2         -0.5590   -0.2410    0.2540 ca        1 TB1     -0.113000
      2 C5          0.7380   -0.4010   -0.2290 ca        1 TB1     -0.148500
      3 C8          1.8300   -0.2570    0.6280 ca        1 TB1     -0.144000
      4 C6          1.6230    0.0530    1.9720 ca        1 TB1     -0.148500
      5 C3          0.3260    0.2170    2.4590 ca        1 TB1     -0.113000
      6 C1         -0.7690    0.0670    1.6050 ca        1 TB1     -0.090300
      7 C4         -2.1680    0.2090    2.1220 c3        1 TB1      0.175700
      8 O2         -2.6860    1.4810    1.7360 os        1 TB1     -0.439600
      9 C11        -3.9660    1.4050    1.0900 c3        1 TB1      0.014100
     10 C9         -3.7960    0.8200   -0.3380 c         1 TB1      0.888600
     11 O5         -3.7300   -0.4300   -0.4610 o         1 TB1     -0.835300
     12 O1         -3.7120    1.6260   -1.3210 o         1 TB1     -0.835300
     13 C7         -4.5350    2.8260    1.0410 c3        1 TB1     -0.010500
     14 C10        -4.9450    3.4400    2.4310 c         1 TB1      0.925600
     15 O4         -5.5600    2.6960    3.2240 o         1 TB1     -0.807300
     16 O3         -4.6640    4.6630    2.5920 o         1 TB1     -0.807300
     17 N          -3.5800    3.7390    0.3420 n4        1 TB1     -0.830600
     18 H2         -1.4380   -0.3500   -0.4120 ha        1 TB1      0.159000
     19 H5          0.8990   -0.6420   -1.2890 ha        1 TB1      0.118500
     20 H8          2.8520   -0.3850    0.2450 ha        1 TB1      0.112000
     21 H6          2.4810    0.1700    2.6480 ha        1 TB1      0.118500
     22 H3          0.1640    0.4690    3.5180 ha        1 TB1      0.159000
     23 H41        -2.8030   -0.6280    1.7180 h1        1 TB1      0.060700
     24 H42        -2.1820    0.1940    3.2460 h1        1 TB1      0.060700
     25 H11        -4.6670    0.7750    1.7010 h1        1 TB1      0.089700
     26 H7         -5.4720    2.7790    0.4140 hx        1 TB1      0.086700
     27 HN1        -3.9120    4.6980    0.4620 hn        1 TB1      0.451467
     28 HN2        -2.6710    3.6430    0.7960 hn        1 TB1      0.451467
     29 HN3        -3.5090    3.4360   -0.6470 hn        1 TB1      0.451467
@<TRIPOS>BOND
     1    1    2 ar  
     2    1    6 ar  
     3    1   18 1   
     4    2    3 ar  
     5    2   19 1   
     6    3    4 ar  
     7    3   20 1   
     8    4    5 ar  
     9    4   21 1   
    10    5    6 ar  
    11    5   22 1   
    12    6    7 1   
    13    7    8 1   
    14    7   23 1   
    15    7   24 1   
    16    8    9 1   
    17    9   10 1   
    18    9   13 1   
    19    9   25 1   
    20   10   11 1   
    21   10   12 1   
    22   13   14 1   
    23   13   17 1   
    24   13   26 1   
    25   14   15 1   
    26   14   16 1   
    27   17   27 1   
    28   17   28 1   
    29   17   29 1   
@<TRIPOS>SUBSTRUCTURE
     1 TB1         1 TEMP              0 ****  ****    0 ROOT
