@<TRIPOS>MOLECULE
TB1
   29    29     1     0     0
SMALL
bcc


@<TRIPOS>ATOM
      1 C2         -0.5370   -0.2110    0.2320 ca        1 TB1     -0.113000
      2 C5          0.7660   -0.3460   -0.2430 ca        1 TB1     -0.148500
      3 C8          1.8480   -0.2140    0.6270 ca        1 TB1     -0.144000
      4 C6          1.6260    0.0580    1.9760 ca        1 TB1     -0.148500
      5 C3          0.3230    0.1980    2.4560 ca        1 TB1     -0.113000
      6 C1         -0.7630    0.0600    1.5870 ca        1 TB1     -0.090300
      7 C4         -2.1680    0.1750    2.0940 c3        1 TB1      0.175700
      8 O2         -2.6940    1.4510    1.7360 os        1 TB1     -0.439600
      9 C11        -3.9670    1.3800    1.0760 c3        1 TB1      0.014100
     10 C9         -3.7780    0.8330   -0.3640 c         1 TB1      0.888600
     11 O5         -3.7000   -0.4130   -0.5170 o         1 TB1     -0.835300
     12 O1         -3.6930    1.6640   -1.3250 o         1 TB1     -0.835300
     13 C7         -4.5490    2.7970    1.0580 c3        1 TB1     -0.010500
     14 C10        -4.9790    3.3710    2.4590 c         1 TB1      0.925600
     15 O4         -5.5940    2.6020    3.2260 o         1 TB1     -0.807300
     16 O3         -4.7100    4.5930    2.6530 o         1 TB1     -0.807300
     17 N          -3.5960    3.7360    0.3910 n4        1 TB1     -0.830600
     18 H2         -1.4090   -0.3110   -0.4460 ha        1 TB1      0.159000
     19 H5          0.9390   -0.5580   -1.3080 ha        1 TB1      0.118500
     20 H8          2.8750   -0.3230    0.2510 ha        1 TB1      0.112000
     21 H6          2.4770    0.1660    2.6640 ha        1 TB1      0.118500
     22 H3          0.1490    0.4210    3.5190 ha        1 TB1      0.159000
     23 H41        -2.1920    0.1320    3.2180 h1        1 TB1      0.060700
     24 H42        -2.7910   -0.6580    1.6640 h1        1 TB1      0.060700
     25 H11        -4.6680    0.7290    1.6650 h1        1 TB1      0.089700
     26 H7         -5.4800    2.7570    0.4200 hx        1 TB1      0.086700
     27 HN1        -2.6910    3.6370    0.8510 hn        1 TB1      0.451467
     28 HN2        -3.9390    4.6880    0.5310 hn        1 TB1      0.451467
     29 HN3        -3.5140    3.4580   -0.6050 hn        1 TB1      0.451467
@<TRIPOS>BOND
     1    1    2 ar  
     2    1    6 ar  
     3    1   18 1   
     4    2    3 ar  
     5    2   19 1   
     6    3    4 ar  
     7    3   20 1   
     8    4    5 ar  
     9    4   21 1   
    10    5    6 ar  
    11    5   22 1   
    12    6    7 1   
    13    7    8 1   
    14    7   23 1   
    15    7   24 1   
    16    8    9 1   
    17    9   10 1   
    18    9   13 1   
    19    9   25 1   
    20   10   11 1   
    21   10   12 1   
    22   13   14 1   
    23   13   17 1   
    24   13   26 1   
    25   14   15 1   
    26   14   16 1   
    27   17   27 1   
    28   17   28 1   
    29   17   29 1   
@<TRIPOS>SUBSTRUCTURE
     1 TB1         1 TEMP              0 ****  ****    0 ROOT
