@<TRIPOS>MOLECULE
TB1
   29    29     1     0     0
SMALL
bcc


@<TRIPOS>ATOM
      1 C2         -0.5330   -0.2020    0.2220 ca        1 TB1     -0.113000
      2 C5          0.7740   -0.3340   -0.2430 ca        1 TB1     -0.148500
      3 C8          1.8480   -0.2190    0.6400 ca        1 TB1     -0.144000
      4 C6          1.6140    0.0320    1.9910 ca        1 TB1     -0.148500
      5 C3          0.3070    0.1680    2.4600 ca        1 TB1     -0.113000
      6 C1         -0.7710    0.0470    1.5790 ca        1 TB1     -0.090300
      7 C4         -2.1810    0.1580    2.0750 c3        1 TB1      0.175700
      8 O2         -2.7000    1.4420    1.7330 os        1 TB1     -0.439600
      9 C11        -3.9660    1.3860    1.0600 c3        1 TB1      0.014100
     10 C9         -3.7650    0.8640   -0.3880 c         1 TB1      0.888600
     11 O5         -3.6890   -0.3790   -0.5610 o         1 TB1     -0.835300
     12 O1         -3.6690    1.7120   -1.3330 o         1 TB1     -0.835300
     13 C7         -4.5440    2.8050    1.0610 c3        1 TB1     -0.010500
     14 C10        -4.9850    3.3570    2.4680 c         1 TB1      0.925600
     15 O4         -5.6090    2.5760    3.2160 o         1 TB1     -0.807300
     16 O3         -4.7140    4.5740    2.6860 o         1 TB1     -0.807300
     17 N          -3.5820    3.7530    0.4200 nz        1 TB1     -0.830600
     18 H2         -1.3990   -0.2890   -0.4660 ha        1 TB1      0.159000
     19 H5          0.9560   -0.5290   -1.3090 ha        1 TB1      0.118500
     20 H8          2.8780   -0.3250    0.2720 ha        1 TB1      0.112000
     21 H6          2.4580    0.1260    2.6880 ha        1 TB1      0.118500
     22 H3          0.1230    0.3740    3.5250 ha        1 TB1      0.159000
     23 H41        -2.8020   -0.6650    1.6240 h1        1 TB1      0.060700
     24 H42        -2.2160    0.0960    3.1970 h1        1 TB1      0.060700
     25 H11        -4.6750    0.7270    1.6310 h1        1 TB1      0.089700
     26 H7         -5.4690    2.7790    0.4140 hx        1 TB1      0.086700
     27 HN1        -3.9230    4.7030    0.5740 hn        1 TB1      0.451467
     28 HN2        -3.4910    3.4920   -0.5800 hn        1 TB1      0.451467
     29 HN3        -2.6820    3.6430    0.8870 hn        1 TB1      0.451467
@<TRIPOS>BOND
     1    1    2 ar  
     2    1    6 ar  
     3    1   18 1   
     4    2    3 ar  
     5    2   19 1   
     6    3    4 ar  
     7    3   20 1   
     8    4    5 ar  
     9    4   21 1   
    10    5    6 ar  
    11    5   22 1   
    12    6    7 1   
    13    7    8 1   
    14    7   23 1   
    15    7   24 1   
    16    8    9 1   
    17    9   10 1   
    18    9   13 1   
    19    9   25 1   
    20   10   11 1   
    21   10   12 1   
    22   13   14 1   
    23   13   17 1   
    24   13   26 1   
    25   14   15 1   
    26   14   16 1   
    27   17   27 1   
    28   17   28 1   
    29   17   29 1   
@<TRIPOS>SUBSTRUCTURE
     1 TB1         1 TEMP              0 ****  ****    0 ROOT
