@<TRIPOS>MOLECULE
TB2
   29    29     1     0     0
SMALL
bcc


@<TRIPOS>ATOM
      1 C1         -0.2080   -0.2800   -0.0790 c         1 TB2      0.569900
      2 O1          0.8920   -0.7710   -0.3320 o         1 TB2     -0.527100
      3 C2         -0.6370    0.0670    1.3180 c3        1 TB2     -0.159100
      4 C3         -1.5920    1.2040    1.3440 ca        1 TB2     -0.090300
      5 C4         -2.8770    1.0640    0.8060 ca        1 TB2     -0.124000
      6 C5         -3.7740    2.1270    0.8380 ca        1 TB2     -0.125000
      7 C6         -3.4140    3.3580    1.4090 ca        1 TB2     -0.060300
      8 C7         -2.1290    3.4910    1.9460 ca        1 TB2     -0.125000
      9 C8         -1.2280    2.4270    1.9140 ca        1 TB2     -0.124000
     10 C9         -4.4160    4.4820    1.4230 c3        1 TB2     -0.010700
     11 C10        -5.6550    4.0450    2.2000 c3        1 TB2     -0.086100
     12 C11        -3.8650    5.7430    2.0770 c3        1 TB2     -0.086100
     13 C12        -4.8140    4.8230   -0.0110 c3        1 TB2     -0.086100
     14 H1         -0.9580   -0.0750   -0.8750 h4        1 TB2      0.001200
     15 H2         -1.1270   -0.8480    1.7570 hc        1 TB2      0.080200
     16 H2A         0.2670    0.2910    1.9460 hc        1 TB2      0.080200
     17 H4         -3.1800    0.1060    0.3580 ha        1 TB2      0.131500
     18 H5         -4.7790    1.9960    0.4100 ha        1 TB2      0.135500
     19 H7         -1.8050    4.4380    2.4040 ha        1 TB2      0.135500
     20 H8         -0.2220    2.5550    2.3420 ha        1 TB2      0.131500
     21 H10        -6.1260    3.1540    1.7220 hc        1 TB2      0.037700
     22 H10A       -6.4030    4.8750    2.2190 hc        1 TB2      0.037700
     23 H10B       -5.3810    3.7860    3.2500 hc        1 TB2      0.037700
     24 H11        -2.9690    6.1140    1.5240 hc        1 TB2      0.037700
     25 H11A       -3.5840    5.5470    3.1390 hc        1 TB2      0.037700
     26 H11B       -4.6430    6.5450    2.0620 hc        1 TB2      0.037700
     27 H12        -5.5550    5.6590   -0.0100 hc        1 TB2      0.037700
     28 H12A       -3.9180    5.1390   -0.5960 hc        1 TB2      0.037700
     29 H12B       -5.2760    3.9400   -0.5120 hc        1 TB2      0.037700
@<TRIPOS>BOND
     1    1    2 2   
     2    1    3 1   
     3    1   14 1   
     4    3    4 1   
     5    3   15 1   
     6    3   16 1   
     7    4    5 ar  
     8    4    9 ar  
     9    5    6 ar  
    10    5   17 1   
    11    6    7 ar  
    12    6   18 1   
    13    7    8 ar  
    14    7   10 1   
    15    8    9 ar  
    16    8   19 1   
    17    9   20 1   
    18   10   11 1   
    19   10   12 1   
    20   10   13 1   
    21   11   21 1   
    22   11   22 1   
    23   11   23 1   
    24   12   24 1   
    25   12   25 1   
    26   12   26 1   
    27   13   27 1   
    28   13   28 1   
    29   13   29 1   
@<TRIPOS>SUBSTRUCTURE
     1 TB2         1 TEMP              0 ****  ****    0 ROOT
