@<TRIPOS>MOLECULE
TB2
   29    29     1     0     0
SMALL
bcc


@<TRIPOS>ATOM
      1 C1         -0.1950   -0.2730   -0.0680 c         1 TB2      0.569900
      2 O1          0.9070   -0.7590   -0.3230 o         1 TB2     -0.527100
      3 C2         -0.6220    0.0790    1.3280 c3        1 TB2     -0.159100
      4 C3         -1.5830    1.2130    1.3490 ca        1 TB2     -0.090300
      5 C4         -2.8690    1.0620    0.8170 ca        1 TB2     -0.124000
      6 C5         -3.7710    2.1210    0.8460 ca        1 TB2     -0.125000
      7 C6         -3.4150    3.3570    1.4070 ca        1 TB2     -0.060300
      8 C7         -2.1300    3.5000    1.9390 ca        1 TB2     -0.125000
      9 C8         -1.2230    2.4410    1.9100 ca        1 TB2     -0.124000
     10 C9         -4.4230    4.4760    1.4180 c3        1 TB2     -0.010700
     11 C10        -5.6570    4.0380    2.2020 c3        1 TB2     -0.086100
     12 C11        -3.8760    5.7450    2.0620 c3        1 TB2     -0.086100
     13 C12        -4.8280    4.8060   -0.0160 c3        1 TB2     -0.086100
     14 H1         -0.9490   -0.0770   -0.8640 h4        1 TB2      0.001200
     15 H2         -1.1060   -0.8350    1.7730 hc        1 TB2      0.080200
     16 H2A         0.2820    0.3120    1.9520 hc        1 TB2      0.080200
     17 H4         -3.1680    0.1000    0.3770 ha        1 TB2      0.131500
     18 H5         -4.7780    1.9820    0.4220 ha        1 TB2      0.135500
     19 H7         -1.8090    4.4520    2.3900 ha        1 TB2      0.135500
     20 H8         -0.2160    2.5760    2.3340 ha        1 TB2      0.131500
     21 H10        -6.1260    3.1410    1.7320 hc        1 TB2      0.037700
     22 H10A       -6.4090    4.8640    2.2190 hc        1 TB2      0.037700
     23 H10B       -5.3790    3.7870    3.2530 hc        1 TB2      0.037700
     24 H11        -2.9840    6.1170    1.5030 hc        1 TB2      0.037700
     25 H11A       -3.5910    5.5560    3.1240 hc        1 TB2      0.037700
     26 H11B       -4.6590    6.5420    2.0440 hc        1 TB2      0.037700
     27 H12        -5.5730    5.6380   -0.0180 hc        1 TB2      0.037700
     28 H12A       -3.9360    5.1230   -0.6070 hc        1 TB2      0.037700
     29 H12B       -5.2880    3.9170   -0.5110 hc        1 TB2      0.037700
@<TRIPOS>BOND
     1    1    2 2   
     2    1    3 1   
     3    1   14 1   
     4    3    4 1   
     5    3   15 1   
     6    3   16 1   
     7    4    5 ar  
     8    4    9 ar  
     9    5    6 ar  
    10    5   17 1   
    11    6    7 ar  
    12    6   18 1   
    13    7    8 ar  
    14    7   10 1   
    15    8    9 ar  
    16    8   19 1   
    17    9   20 1   
    18   10   11 1   
    19   10   12 1   
    20   10   13 1   
    21   11   21 1   
    22   11   22 1   
    23   11   23 1   
    24   12   24 1   
    25   12   25 1   
    26   12   26 1   
    27   13   27 1   
    28   13   28 1   
    29   13   29 1   
@<TRIPOS>SUBSTRUCTURE
     1 TB2         1 TEMP              0 ****  ****    0 ROOT
