@<TRIPOS>MOLECULE
TB2
   29    29     1     0     0
SMALL
bcc


@<TRIPOS>ATOM
      1 C1         -3.7920    0.5110   -0.5610 c         1 TB2      0.569900
      2 O1         -4.9480    0.1360   -0.7560 o         1 TB2     -0.527100
      3 C2         -3.0430    0.2030    0.7040 c3        1 TB2     -0.159100
      4 C3         -1.5780    0.1100    0.4790 ca        1 TB2     -0.090300
      5 C4         -0.8420    1.2470    0.1240 ca        1 TB2     -0.124000
      6 C5          0.5320    1.1620   -0.0780 ca        1 TB2     -0.125000
      7 C6          1.2090   -0.0590    0.0690 ca        1 TB2     -0.060300
      8 C7          0.4680   -1.1910    0.4250 ca        1 TB2     -0.125000
      9 C8         -0.9100   -1.1080    0.6270 ca        1 TB2     -0.124000
     10 C9          2.6960   -0.1060   -0.1590 c3        1 TB2     -0.010700
     11 C10         3.3890    0.8380    0.8210 c3        1 TB2     -0.086100
     12 C11         3.2710   -1.5040    0.0410 c3        1 TB2     -0.086100
     13 C12         3.0040    0.3360   -1.5870 c3        1 TB2     -0.086100
     14 H1         -3.2350    1.1160   -1.3110 h4        1 TB2      0.001200
     15 H2         -3.2620    1.0300    1.4360 hc        1 TB2      0.080200
     16 H2A        -3.4380   -0.7490    1.1540 hc        1 TB2      0.080200
     17 H4         -1.3530    2.2140    0.0090 ha        1 TB2      0.131500
     18 H5          1.0920    2.0680   -0.3560 ha        1 TB2      0.135500
     19 H7          0.9580   -2.1680    0.5520 ha        1 TB2      0.135500
     20 H8         -1.4720   -2.0120    0.9060 ha        1 TB2      0.131500
     21 H10         3.1700    0.5330    1.8720 hc        1 TB2      0.037700
     22 H10A        4.4940    0.8070    0.6620 hc        1 TB2      0.037700
     23 H10B        3.0380    1.8870    0.6720 hc        1 TB2      0.037700
     24 H11         2.8100   -2.2250   -0.6750 hc        1 TB2      0.037700
     25 H11A        4.3730   -1.4850   -0.1400 hc        1 TB2      0.037700
     26 H11B        3.0920   -1.8580    1.0840 hc        1 TB2      0.037700
     27 H12         2.6490    1.3790   -1.7620 hc        1 TB2      0.037700
     28 H12A        4.1060    0.3010   -1.7670 hc        1 TB2      0.037700
     29 H12B        2.5000   -0.3410   -2.3180 hc        1 TB2      0.037700
@<TRIPOS>BOND
     1    1    2 2   
     2    1    3 1   
     3    1   14 1   
     4    3    4 1   
     5    3   15 1   
     6    3   16 1   
     7    4    5 ar  
     8    4    9 ar  
     9    5    6 ar  
    10    5   17 1   
    11    6    7 ar  
    12    6   18 1   
    13    7    8 ar  
    14    7   10 1   
    15    8    9 ar  
    16    8   19 1   
    17    9   20 1   
    18   10   11 1   
    19   10   12 1   
    20   10   13 1   
    21   11   21 1   
    22   11   22 1   
    23   11   23 1   
    24   12   24 1   
    25   12   25 1   
    26   12   26 1   
    27   13   27 1   
    28   13   28 1   
    29   13   29 1   
@<TRIPOS>SUBSTRUCTURE
     1 TB2         1 TEMP              0 ****  ****    0 ROOT
