@<TRIPOS>MOLECULE
TB6
   15    14     1     0     0
SMALL
bcc


@<TRIPOS>ATOM
      1 C1          0.0060   -0.1500   -0.0170 c3        1 TB6     -0.082100
      2 C2          1.5110    0.0970   -0.0030 c3        1 TB6      0.195100
      3 C6          2.0710    0.1690    1.3880 c3        1 TB6     -0.307600
      4 P7          3.8280   -0.2900    1.3160 p5        1 TB6      1.222700
      5 O10         1.7200    1.2960   -0.7620 oh        1 TB6     -0.702800
      6 O12         4.3010    0.6290    0.1990 o         1 TB6     -0.957500
      7 O13         4.3580    0.0390    2.6910 o         1 TB6     -0.957500
      8 O14         3.8240   -1.7590    0.9650 o         1 TB6     -0.957500
      9 H1         -0.5240    0.6560    0.5430 hc        1 TB6     -0.002633
     10 H1A        -0.3840   -0.1640   -1.0630 hc        1 TB6     -0.002633
     11 H1B        -0.2140   -1.1310    0.4650 hc        1 TB6     -0.002633
     12 H2          2.0350   -0.7500   -0.5410 h1        1 TB6      0.047700
     13 H6          1.9980    1.1920    1.8080 hc        1 TB6      0.020700
     14 H6A         1.5560   -0.5440    2.0620 hc        1 TB6      0.020700
     15 HO10        2.6820    1.4640   -0.6410 ho        1 TB6      0.467000
@<TRIPOS>BOND
     1    1    2 1   
     2    1    9 1   
     3    1   10 1   
     4    1   11 1   
     5    2    3 1   
     6    2    5 1   
     7    2   12 1   
     8    3    4 1   
     9    3   13 1   
    10    3   14 1   
    11    4    6 1   
    12    4    7 1   
    13    4    8 1   
    14    5   15 1   
@<TRIPOS>SUBSTRUCTURE
     1 TB6         1 TEMP              0 ****  ****    0 ROOT
