@<TRIPOS>MOLECULE
TB6
   15    14     1     0     0
SMALL
bcc


@<TRIPOS>ATOM
      1 C1          3.0250   -0.9190    0.0140 c3        1 TB6     -0.082100
      2 C2          1.7550   -0.0870    0.1600 c3        1 TB6      0.195100
      3 C6          0.6000   -0.6560   -0.6110 c3        1 TB6     -0.307600
      4 P7         -0.9390   -0.1040    0.1830 p5        1 TB6      1.222700
      5 O10         2.1070    1.2430   -0.2450 oh        1 TB6     -0.702800
      6 O12        -0.6750    1.3930    0.2680 o         1 TB6     -0.957500
      7 O13        -2.0260   -0.5140   -0.7810 o         1 TB6     -0.957500
      8 O14        -0.9590   -0.8180    1.5140 o         1 TB6     -0.957500
      9 H1          3.8720   -0.4510    0.5700 hc        1 TB6     -0.002633
     10 H1A         2.8470   -1.9430    0.4170 hc        1 TB6     -0.002633
     11 H1B         3.3130   -0.9990   -1.0610 hc        1 TB6     -0.002633
     12 H2          1.4550   -0.0500    1.2500 h1        1 TB6      0.047700
     13 H6          0.5930   -0.3030   -1.6610 hc        1 TB6      0.020700
     14 H6A         0.6170   -1.7640   -0.5940 hc        1 TB6      0.020700
     15 HO10        1.2420    1.7120   -0.2270 ho        1 TB6      0.467000
@<TRIPOS>BOND
     1    1    2 1   
     2    1    9 1   
     3    1   10 1   
     4    1   11 1   
     5    2    3 1   
     6    2    5 1   
     7    2   12 1   
     8    3    4 1   
     9    3   13 1   
    10    3   14 1   
    11    4    6 1   
    12    4    7 1   
    13    4    8 1   
    14    5   15 1   
@<TRIPOS>SUBSTRUCTURE
     1 TB6         1 TEMP              0 ****  ****    0 ROOT
