@<TRIPOS>MOLECULE
TB6
   15    14     1     0     0
SMALL
bcc


@<TRIPOS>ATOM
      1 C1          0.0050   -0.1450   -0.0150 c3        1 TB6     -0.082100
      2 C2          1.5100    0.1000   -0.0020 c3        1 TB6      0.195100
      3 C6          2.0730    0.1650    1.3880 c3        1 TB6     -0.307600
      4 P7          3.8290   -0.2960    1.3110 p5        1 TB6      1.222700
      5 O10         1.7190    1.3030   -0.7550 oh        1 TB6     -0.702800
      6 O12         4.3010    0.6280    0.1980 o         1 TB6     -0.957500
      7 O13         4.3610    0.0250    2.6870 o         1 TB6     -0.957500
      8 O14         3.8220   -1.7640    0.9520 o         1 TB6     -0.957500
      9 H1         -0.5230    0.6590    0.5500 hc        1 TB6     -0.002633
     10 H1A        -0.3870   -0.1530   -1.0600 hc        1 TB6     -0.002633
     11 H1B        -0.2160   -1.1270    0.4640 hc        1 TB6     -0.002633
     12 H2          2.0320   -0.7440   -0.5450 h1        1 TB6      0.047700
     13 H6          2.0020    1.1850    1.8130 hc        1 TB6      0.020700
     14 H6A         1.5580   -0.5510    2.0600 hc        1 TB6      0.020700
     15 HO10        2.6820    1.4690   -0.6360 ho        1 TB6      0.467000
@<TRIPOS>BOND
     1    1    2 1   
     2    1    9 1   
     3    1   10 1   
     4    1   11 1   
     5    2    3 1   
     6    2    5 1   
     7    2   12 1   
     8    3    4 1   
     9    3   13 1   
    10    3   14 1   
    11    4    6 1   
    12    4    7 1   
    13    4    8 1   
    14    5   15 1   
@<TRIPOS>SUBSTRUCTURE
     1 TB6         1 TEMP              0 ****  ****    0 ROOT
