@<TRIPOS>MOLECULE
TB7
   43    45     1     0     0
SMALL
bcc


@<TRIPOS>ATOM
      1 C1         -0.1080    0.5270    0.7400 c3        1 TB7     -0.118433
      2 C2          1.0890    0.3170   -0.1690 c3        1 TB7      0.186800
      3 C3          2.2440   -0.3470    0.5550 c3        1 TB7     -0.118433
      4 C4          0.6960   -0.4770   -1.4110 c3        1 TB7     -0.118433
      5 O5          1.5140    1.5990   -0.7430 os        1 TB7     -0.439900
      6 C6          2.0440    2.5470    0.0750 c         1 TB7      0.721100
      7 O7          1.9880    2.4930    1.3080 o         1 TB7     -0.532000
      8 N8          2.6960    3.5810   -0.6420 n         1 TB7     -0.395800
      9 C9          2.7000    4.9400   -0.0770 cy        1 TB7      0.057000
     10 C10         2.3230    5.5050   -1.4950 cy        1 TB7      0.036500
     11 C11         2.2220    4.0080   -1.9670 cy        1 TB7      0.057000
     12 N12         3.4010    6.3020   -2.1380 n4        1 TB7     -0.714000
     13 C13         2.9640    6.8440   -3.4750 cc        1 TB7      0.547800
     14 N14         2.1660    7.9890   -3.4740 n         1 TB7     -0.508400
     15 C15         1.7410    8.5310   -4.7220 c         1 TB7      0.728100
     16 O16         1.0400    9.5450   -4.6840 o         1 TB7     -0.536500
     17 C17         2.1880    7.8110   -5.9210 ca        1 TB7     -0.275900
     18 C18         1.8270    8.2660   -7.2010 ca        1 TB7     -0.022000
     19 C19         2.2710    7.5560   -8.3080 ca        1 TB7     -0.220300
     20 C20         3.0670    6.4050   -8.0990 ca        1 TB7      0.450200
     21 N21         3.4330    5.9400   -6.8990 nb        1 TB7     -0.613000
     22 C22         2.9980    6.6400   -5.8020 ca        1 TB7      0.614300
     23 N23         3.3810    6.1620   -4.5240 nd        1 TB7     -0.619700
     24 H11C       -0.5240   -0.4670    1.0330 hc        1 TB7      0.059700
     25 H12C        0.1910    1.0780    1.6650 hc        1 TB7      0.059700
     26 H13C       -0.8990    1.1080    0.2110 hc        1 TB7      0.059700
     27 H31C        1.9510   -1.3860    0.8400 hc        1 TB7      0.059700
     28 H32C        2.5060    0.2190    1.4820 hc        1 TB7      0.059700
     29 H33C        3.1410   -0.3930   -0.1080 hc        1 TB7      0.059700
     30 H41C        0.3440   -1.4880   -1.0940 hc        1 TB7      0.059700
     31 H42C        1.5710   -0.5900   -2.0930 hc        1 TB7      0.059700
     32 H43C       -0.1250    0.0420   -1.9610 hc        1 TB7      0.059700
     33 H91C        3.7080    5.2130    0.3200 h1        1 TB7      0.107450
     34 H92C        1.9190    5.1430    0.7000 h1        1 TB7      0.107450
     35 H111        2.9260    3.6940   -2.7780 h1        1 TB7      0.107450
     36 H112        1.1790    3.7020   -2.2320 h1        1 TB7      0.107450
     37 H10         1.3620    6.0760   -1.5350 hx        1 TB7      0.128700
     38 H12         4.2280    5.6920   -2.2810 hn        1 TB7      0.480300
     39 H14         1.8910    8.4550   -2.6360 hn        1 TB7      0.351500
     40 H18         1.2020    9.1720   -7.3020 ha        1 TB7      0.185000
     41 H19         2.0150    7.8730   -9.3310 ha        1 TB7      0.181000
     42 H20         3.4400    5.8130   -8.9610 h4        1 TB7      0.060100
     43 H122        3.6730    7.0800   -1.5240 hn        1 TB7      0.480300
@<TRIPOS>BOND
     1    1    2 1   
     2    1   24 1   
     3    1   25 1   
     4    1   26 1   
     5    2    3 1   
     6    2    4 1   
     7    2    5 1   
     8    3   27 1   
     9    3   28 1   
    10    3   29 1   
    11    4   30 1   
    12    4   31 1   
    13    4   32 1   
    14    5    6 1   
    15    6    7 2   
    16    6    8 1   
    17    8    9 1   
    18    8   11 1   
    19    9   10 1   
    20    9   33 1   
    21    9   34 1   
    22   10   11 1   
    23   10   12 1   
    24   10   37 1   
    25   11   35 1   
    26   11   36 1   
    27   12   13 1   
    28   12   38 1   
    29   12   43 1   
    30   13   14 1   
    31   13   23 2   
    32   14   15 1   
    33   14   39 1   
    34   15   16 2   
    35   15   17 1   
    36   17   18 ar  
    37   17   22 ar  
    38   18   19 ar  
    39   18   40 1   
    40   19   20 ar  
    41   19   41 1   
    42   20   21 ar  
    43   20   42 1   
    44   21   22 ar  
    45   22   23 1   
@<TRIPOS>SUBSTRUCTURE
     1 TB7         1 TEMP              0 ****  ****    0 ROOT
