@<TRIPOS>MOLECULE
TB7
   43    45     1     0     0
SMALL
bcc


@<TRIPOS>ATOM
      1 C1         -0.0400    0.4630    0.7140 c3        1 TB7     -0.118433
      2 C2          1.1760    0.2950   -0.1780 c3        1 TB7      0.186800
      3 C3          2.3430   -0.3290    0.5620 c3        1 TB7     -0.118433
      4 C4          0.8290   -0.5110   -1.4270 c3        1 TB7     -0.118433
      5 O5          1.5650    1.5910   -0.7450 os        1 TB7     -0.439900
      6 C6          2.0510    2.5570    0.0800 c         1 TB7      0.721100
      7 O7          1.9780    2.4990    1.3130 o         1 TB7     -0.532000
      8 N8          2.6780    3.6130   -0.6260 n         1 TB7     -0.395800
      9 C9          2.6270    4.9710   -0.0610 cy        1 TB7      0.057000
     10 C10         2.2520    5.5240   -1.4850 cy        1 TB7      0.036500
     11 C11         2.2100    4.0250   -1.9590 cy        1 TB7      0.057000
     12 N12         3.3120    6.3570   -2.1110 n4        1 TB7     -0.714000
     13 C13         2.8780    6.8840   -3.4550 cc        1 TB7      0.547800
     14 N14         2.0400    8.0000   -3.4670 n         1 TB7     -0.508400
     15 C15         1.6170    8.5270   -4.7220 c         1 TB7      0.728100
     16 O16         0.8790    9.5160   -4.6960 o         1 TB7     -0.536500
     17 C17         2.1080    7.8240   -5.9140 ca        1 TB7     -0.275900
     18 C18         1.7510    8.2670   -7.1990 ca        1 TB7     -0.022000
     19 C19         2.2370    7.5730   -8.2980 ca        1 TB7     -0.220300
     20 C20         3.0710    6.4510   -8.0770 ca        1 TB7      0.450200
     21 N21         3.4340    5.9980   -6.8710 nb        1 TB7     -0.613000
     22 C22         2.9570    6.6820   -5.7810 ca        1 TB7      0.614300
     23 N23         3.3350    6.2170   -4.4970 nd        1 TB7     -0.619700
     24 H11C       -0.4260   -0.5440    1.0000 hc        1 TB7      0.059700
     25 H12C        0.2260    1.0230    1.6430 hc        1 TB7      0.059700
     26 H13C       -0.8430    1.0180    0.1730 hc        1 TB7      0.059700
     27 H31C        3.2510   -0.3440   -0.0870 hc        1 TB7      0.059700
     28 H32C        2.5720    0.2440    1.4940 hc        1 TB7      0.059700
     29 H33C        2.0820   -1.3780    0.8420 hc        1 TB7      0.059700
     30 H41C        0.5080   -1.5330   -1.1150 hc        1 TB7      0.059700
     31 H42C        1.7180   -0.5920   -2.0960 hc        1 TB7      0.059700
     32 H43C       -0.0010   -0.0200   -1.9880 hc        1 TB7      0.059700
     33 H91C        3.6190    5.2780    0.3510 h1        1 TB7      0.107450
     34 H92C        1.8280    5.1470    0.7040 h1        1 TB7      0.107450
     35 H111        1.1810    3.6830   -2.2390 h1        1 TB7      0.107450
     36 H112        2.9360    3.7340   -2.7590 h1        1 TB7      0.107450
     37 H10         1.2730    6.0620   -1.5390 hx        1 TB7      0.128700
     38 H12         3.5480    7.1430   -1.4930 hn        1 TB7      0.480300
     39 H14         1.7350    8.4560   -2.6340 hn        1 TB7      0.351500
     40 H18         1.0960    9.1490   -7.3100 ha        1 TB7      0.185000
     41 H19         1.9870    7.8810   -9.3250 ha        1 TB7      0.181000
     42 H20         3.4780    5.8720   -8.9330 h4        1 TB7      0.060100
     43 H122        4.1610    5.7760   -2.2410 hn        1 TB7      0.480300
@<TRIPOS>BOND
     1    1    2 1   
     2    1   24 1   
     3    1   25 1   
     4    1   26 1   
     5    2    3 1   
     6    2    4 1   
     7    2    5 1   
     8    3   27 1   
     9    3   28 1   
    10    3   29 1   
    11    4   30 1   
    12    4   31 1   
    13    4   32 1   
    14    5    6 1   
    15    6    7 2   
    16    6    8 1   
    17    8    9 1   
    18    8   11 1   
    19    9   10 1   
    20    9   33 1   
    21    9   34 1   
    22   10   11 1   
    23   10   12 1   
    24   10   37 1   
    25   11   35 1   
    26   11   36 1   
    27   12   13 1   
    28   12   38 1   
    29   12   43 1   
    30   13   14 1   
    31   13   23 2   
    32   14   15 1   
    33   14   39 1   
    34   15   16 2   
    35   15   17 1   
    36   17   18 ar  
    37   17   22 ar  
    38   18   19 ar  
    39   18   40 1   
    40   19   20 ar  
    41   19   41 1   
    42   20   21 ar  
    43   20   42 1   
    44   21   22 ar  
    45   22   23 1   
@<TRIPOS>SUBSTRUCTURE
     1 TB7         1 TEMP              0 ****  ****    0 ROOT
