@<TRIPOS>MOLECULE
TB7
   42    44     1     0     0
SMALL
bcc


@<TRIPOS>ATOM
      1 C1          5.9150   -1.3430    0.8680 c3        1 TB7     -0.114100
      2 C2          5.4290   -0.7690   -0.4520 c3        1 TB7      0.183800
      3 C3          6.3130    0.3710   -0.9280 c3        1 TB7     -0.114100
      4 C4          5.3540   -1.8650   -1.5140 c3        1 TB7     -0.114100
      5 O5          4.0450   -0.3390   -0.3420 os        1 TB7     -0.441900
      6 C6          3.7300    0.7160    0.4750 c         1 TB7      0.719100
      7 O7          4.5680    1.1960    1.2540 o         1 TB7     -0.574000
      8 N8          2.4310    1.2000    0.2700 n         1 TB7     -0.395800
      9 C9          1.6850    1.7740    1.4050 cy        1 TB7      0.040500
     10 C10         0.4270    0.9230    0.9910 cy        1 TB7      0.169500
     11 C11         1.3290    0.3150   -0.1470 cy        1 TB7      0.040500
     12 N12        -0.7220    1.6980    0.6240 nh        1 TB7     -0.785200
     13 C13        -1.9110    1.0200    0.2320 cc        1 TB7      0.684800
     14 N14        -2.9950    1.8460   -0.1420 n         1 TB7     -0.506400
     15 C15        -4.2560    1.2900   -0.4270 c         1 TB7      0.725100
     16 O16        -5.1840    2.0630   -0.7240 o         1 TB7     -0.616500
     17 C17        -4.3530   -0.1700   -0.3540 ca        1 TB7     -0.326900
     18 C18        -5.5680   -0.8200   -0.6280 ca        1 TB7     -0.014000
     19 C19        -5.6160   -2.2010   -0.5450 ca        1 TB7     -0.285300
     20 C20        -4.4320   -2.8900   -0.1850 ca        1 TB7      0.445200
     21 N21        -3.2600   -2.3140    0.0840 nb        1 TB7     -0.656000
     22 C22        -3.1980   -0.9370    0.0050 ca        1 TB7      0.668300
     23 N23        -1.9700   -0.3180    0.2790 nd        1 TB7     -0.734700
     24 H11C        6.0190   -0.5350    1.6320 hc        1 TB7      0.052256
     25 H12C        5.1920   -2.1040    1.2440 hc        1 TB7      0.052256
     26 H13C        6.9090   -1.8290    0.7160 hc        1 TB7      0.052256
     27 H31C        7.3270   -0.0240   -1.1730 hc        1 TB7      0.052256
     28 H32C        5.8750    0.8410   -1.8410 hc        1 TB7      0.052256
     29 H33C        6.4100    1.1500   -0.1330 hc        1 TB7      0.052256
     30 H41C        4.6720   -2.6810   -1.1790 hc        1 TB7      0.052256
     31 H42C        4.9680   -1.4460   -2.4730 hc        1 TB7      0.052256
     32 H43C        6.3760   -2.2820   -1.6780 hc        1 TB7      0.052256
     33 H91C        2.0840    1.5190    2.4160 h1        1 TB7      0.079450
     34 H92C        1.5920    2.8820    1.3040 h1        1 TB7      0.079450
     35 H111        1.0110    0.5370   -1.1930 h1        1 TB7      0.079450
     36 H112        1.5240   -0.7780   -0.0350 h1        1 TB7      0.079450
     37 H10         0.1400    0.1650    1.7640 h1        1 TB7      0.111700
     38 H12        -0.5020    2.4920    0.0550 hn        1 TB7      0.416800
     39 H14        -2.9130    2.8390   -0.1280 hn        1 TB7      0.339500
     40 H18        -6.4510   -0.2200   -0.9020 ha        1 TB7      0.163000
     41 H19        -6.5390   -2.7580   -0.7490 ha        1 TB7      0.152000
     42 H20        -4.4360   -3.9950   -0.1100 h4        1 TB7      0.028100
@<TRIPOS>BOND
     1    1    2 1   
     2    1   24 1   
     3    1   25 1   
     4    1   26 1   
     5    2    3 1   
     6    2    4 1   
     7    2    5 1   
     8    3   27 1   
     9    3   28 1   
    10    3   29 1   
    11    4   30 1   
    12    4   31 1   
    13    4   32 1   
    14    5    6 1   
    15    6    7 2   
    16    6    8 1   
    17    8    9 1   
    18    8   11 1   
    19    9   10 1   
    20    9   33 1   
    21    9   34 1   
    22   10   11 1   
    23   10   12 1   
    24   10   37 1   
    25   11   35 1   
    26   11   36 1   
    27   12   13 1   
    28   12   38 1   
    29   13   14 1   
    30   13   23 2   
    31   14   15 1   
    32   14   39 1   
    33   15   16 2   
    34   15   17 1   
    35   17   18 ar  
    36   17   22 ar  
    37   18   19 ar  
    38   18   40 1   
    39   19   20 ar  
    40   19   41 1   
    41   20   21 ar  
    42   20   42 1   
    43   21   22 ar  
    44   22   23 1   
@<TRIPOS>SUBSTRUCTURE
     1 TB7         1 TEMP              0 ****  ****    0 ROOT
