@<TRIPOS>MOLECULE
TB7
   43    45     1     0     0
SMALL
bcc


@<TRIPOS>ATOM
      1 C1         -0.0720    0.5120    0.7490 c3        1 TB7     -0.118433
      2 C2          1.1240    0.3160   -0.1640 c3        1 TB7      0.186800
      3 C3          2.2890   -0.3360    0.5580 c3        1 TB7     -0.118433
      4 C4          0.7380   -0.4820   -1.4050 c3        1 TB7     -0.118433
      5 O5          1.5340    1.6020   -0.7370 os        1 TB7     -0.439900
      6 C6          2.0550    2.5560    0.0800 c         1 TB7      0.721100
      7 O7          2.0020    2.5010    1.3130 o         1 TB7     -0.532000
      8 N8          2.6950    3.5970   -0.6370 n         1 TB7     -0.395800
      9 C9          2.6840    4.9560   -0.0730 cy        1 TB7      0.057000
     10 C10         2.3000    5.5170   -1.4900 cy        1 TB7      0.036500
     11 C11         2.2150    4.0190   -1.9620 cy        1 TB7      0.057000
     12 N12         3.3690    6.3260   -2.1340 ny        1 TB7     -0.714000
     13 C13         2.9240    6.8620   -3.4710 cc        1 TB7      0.547800
     14 N14         2.1130    7.9980   -3.4700 ns        1 TB7     -0.508400
     15 C15         1.6810    8.5330   -4.7190 c         1 TB7      0.728100
     16 O16         0.9680    9.5390   -4.6810 o         1 TB7     -0.536500
     17 C17         2.1360    7.8190   -5.9180 ca        1 TB7     -0.275900
     18 C18         1.7690    8.2690   -7.1970 ca        1 TB7     -0.022000
     19 C19         2.2210    7.5640   -8.3040 ca        1 TB7     -0.220300
     20 C20         3.0320    6.4230   -8.0950 ca        1 TB7      0.450200
     21 N21         3.4040    5.9620   -6.8950 nb        1 TB7     -0.613000
     22 C22         2.9600    6.6570   -5.7980 ca        1 TB7      0.614300
     23 N23         3.3490    6.1850   -4.5200 nd        1 TB7     -0.619700
     24 H11C       -0.8720    1.0840    0.2210 hc        1 TB7      0.059700
     25 H12C        0.2220    1.0650    1.6730 hc        1 TB7      0.059700
     26 H13C       -0.4770   -0.4870    1.0420 hc        1 TB7      0.059700
     27 H31C        3.1850   -0.3720   -0.1060 hc        1 TB7      0.059700
     28 H32C        2.5460    0.2320    1.4850 hc        1 TB7      0.059700
     29 H33C        2.0080   -1.3780    0.8430 hc        1 TB7      0.059700
     30 H41C        0.3980   -1.4970   -1.0880 hc        1 TB7      0.059700
     31 H42C        1.6130   -0.5840   -2.0890 hc        1 TB7      0.059700
     32 H43C       -0.0900    0.0270   -1.9520 hc        1 TB7      0.059700
     33 H91C        3.6900    5.2400    0.3230 h1        1 TB7      0.107450
     34 H92C        1.9030    5.1510    0.7060 h1        1 TB7      0.107450
     35 H111        1.1740    3.7020   -2.2250 h1        1 TB7      0.107450
     36 H112        2.9210    3.7120   -2.7740 h1        1 TB7      0.107450
     37 H10         1.3330    6.0780   -1.5290 hx        1 TB7      0.128700
     38 H12         3.6320    7.1070   -1.5210 hn        1 TB7      0.480300
     39 H14         1.8320    8.4600   -2.6320 hn        1 TB7      0.351500
     40 H18         1.1330    9.1670   -7.2980 ha        1 TB7      0.185000
     41 H19         1.9610    7.8770   -9.3270 ha        1 TB7      0.181000
     42 H20         3.4110    5.8340   -8.9570 h4        1 TB7      0.060100
     43 H122        4.2020    5.7260   -2.2770 hn        1 TB7      0.480300
@<TRIPOS>BOND
     1    1    2 1   
     2    1   24 1   
     3    1   25 1   
     4    1   26 1   
     5    2    3 1   
     6    2    4 1   
     7    2    5 1   
     8    3   27 1   
     9    3   28 1   
    10    3   29 1   
    11    4   30 1   
    12    4   31 1   
    13    4   32 1   
    14    5    6 1   
    15    6    7 2   
    16    6    8 1   
    17    8    9 1   
    18    8   11 1   
    19    9   10 1   
    20    9   33 1   
    21    9   34 1   
    22   10   11 1   
    23   10   12 1   
    24   10   37 1   
    25   11   35 1   
    26   11   36 1   
    27   12   13 1   
    28   12   38 1   
    29   12   43 1   
    30   13   14 1   
    31   13   23 2   
    32   14   15 1   
    33   14   39 1   
    34   15   16 2   
    35   15   17 1   
    36   17   18 ar  
    37   17   22 ar  
    38   18   19 ar  
    39   18   40 1   
    40   19   20 ar  
    41   19   41 1   
    42   20   21 ar  
    43   20   42 1   
    44   21   22 ar  
    45   22   23 1   
@<TRIPOS>SUBSTRUCTURE
     1 TB7         1 TEMP              0 ****  ****    0 ROOT
