@<TRIPOS>MOLECULE
TB7
   42    42     1     0     0
SMALL
bcc


@<TRIPOS>ATOM
      1 C1         -0.2440   -3.9730    3.9370 c3        1 TB7     -0.231667
      2 C2         -0.4330   -4.5020    2.5360 c3        1 TB7      0.112000
      3 C3          0.7820   -5.3010    2.1320 c3        1 TB7     -0.231667
      4 C4         -1.6540   -5.3870    2.4940 c3        1 TB7     -0.231667
      5 O5         -0.6060   -3.4090    1.6330 os        1 TB7     -0.287000
      6 C6          0.3370   -2.3610    1.8110 c2        1 TB7      0.369000
      7 O7          1.1440   -2.4180    2.7150 o         1 TB7     -0.382000
      8 N8          0.3200   -1.2200    0.9320 n         1 TB7     -0.248000
      9 C9          0.0760    0.2230    1.1010 cy        1 TB7     -0.077500
     10 C10         0.0590    0.3980   -0.3480 cy        1 TB7     -0.029000
     11 C11         0.3050   -1.0280   -0.5290 cy        1 TB7     -0.077500
     12 N12         1.1280    1.2030   -0.8150 n3        1 TB7     -0.276000
     13 C13         0.8560    2.3770   -1.6030 c2        1 TB7      0.239000
     14 N14         1.8990    2.9650   -2.3920 n         1 TB7     -0.347000
     15 C15         1.6540    4.1430   -3.1090 c2        1 TB7      0.362000
     16 O16         2.5570    4.6730   -3.7400 o         1 TB7     -0.341000
     17 C17         0.2940    4.7920   -3.0510 c2        1 TB7     -0.241000
     18 C18         0.0630    5.9840   -3.7210 c2        1 TB7     -0.014000
     19 C19        -1.1560    6.5940   -3.6290 c1        1 TB7     -0.220000
     20 C20        -2.1640    6.0190   -2.8630 c1        1 TB7     -0.020000
     21 N21        -1.9360    4.8440   -2.2020 n1        1 TB7     -0.129000
     22 C22        -0.7030    4.2260   -2.2940 c1        1 TB7      0.121000
     23 N23        -0.4450    2.9980   -1.5470 n2        1 TB7     -0.225000
     24 H11C        0.7070   -3.7990    4.0940 hc        1 TB7      0.091333
     25 H12C       -0.7490   -3.1420    4.0430 hc        1 TB7      0.091333
     26 H13C       -0.5660   -4.6370    4.5830 hc        1 TB7      0.091333
     27 H31C        0.9200   -5.2190    1.1650 hc        1 TB7      0.091333
     28 H32C        1.5690   -4.9600    2.6050 hc        1 TB7      0.091333
     29 H33C        0.6440   -6.2470    2.3640 hc        1 TB7      0.091333
     30 H41C       -1.5050   -6.1790    3.0560 hc        1 TB7      0.091333
     31 H42C       -1.8220   -5.6680    1.5710 hc        1 TB7      0.091333
     32 H43C       -2.4290   -4.8900    2.8290 hc        1 TB7      0.091333
     33 H91C       -0.7880    0.4140    1.5150 h1        1 TB7      0.121000
     34 H92C        0.8270    0.6850    1.5290 h1        1 TB7      0.121000
     35 H111       -0.4410   -1.4880   -0.9620 h1        1 TB7      0.121000
     36 H112        1.1750   -1.2130   -0.9440 h1        1 TB7      0.121000
     37 H10        -0.8140    0.6750   -0.6830 h1        1 TB7      0.156000
     38 H12         1.9900    0.9630   -0.6390 hn        1 TB7      0.208000
     39 H14         2.7280    2.5840   -2.4100 hn        1 TB7      0.252000
     40 H18         0.7770    6.3910   -4.2630 ha        1 TB7      0.163000
     41 H19        -1.3200    7.4350   -4.1010 ha        1 TB7      0.152000
     42 H20        -3.0360    6.4550   -2.7970 ha        1 TB7      0.166000
@<TRIPOS>BOND
     1    1    2 1   
     2    1   24 1   
     3    1   25 1   
     4    1   26 1   
     5    2    3 1   
     6    2    4 1   
     7    2    5 1   
     8    3   27 1   
     9    3   28 1   
    10    3   29 1   
    11    4   30 1   
    12    4   31 1   
    13    4   32 1   
    14    5    6 1   
    15    6    7 1   
    16    6    8 1   
    17    8    9 1   
    18    8   11 1   
    19    9   10 1   
    20    9   33 1   
    21    9   34 1   
    22   10   11 1   
    23   10   12 1   
    24   10   37 1   
    25   11   35 1   
    26   11   36 1   
    27   12   13 1   
    28   12   38 1   
    29   13   14 1   
    30   13   23 1   
    31   14   15 1   
    32   14   39 1   
    33   15   16 1   
    34   15   17 1   
    35   17   18 1   
    36   17   22 1   
    37   18   19 1   
    38   18   40 1   
    39   19   41 1   
    40   20   21 1   
    41   20   42 1   
    42   22   23 1   
@<TRIPOS>SUBSTRUCTURE
     1 TB7         1 TEMP              0 ****  ****    0 ROOT
