@<TRIPOS>MOLECULE
TB9
   41    43     1     0     0
SMALL
bcc


@<TRIPOS>ATOM
      1 N1          0.2850    1.0530    3.4120 n         1 TB9     -0.402100
      2 C1A        -0.6630    0.4270    2.5910 ca        1 TB9     -0.000400
      3 C2          1.5050    1.1720    2.7200 c         1 TB9      0.516400
      4 S2          2.8370    1.8190    3.3010 s         1 TB9     -0.515400
      5 N3          1.3190    0.5910    1.4420 n         1 TB9     -0.290000
      6 C3A        -0.0100    0.1370    1.3250 ca        1 TB9      0.019600
      7 C4          2.3190    0.7050    0.4160 c3        1 TB9      0.099000
      8 C5          2.1960   -0.3440   -0.7220 c3        1 TB9      0.187500
      9 N6          0.9660   -0.1090   -1.4740 n3        1 TB9     -0.758600
     10 C7         -0.1420   -0.9250   -1.0100 c3        1 TB9      0.227100
     11 C7A        -0.7170   -0.5130    0.3130 ca        1 TB9     -0.054300
     12 C8         -2.0570   -0.8450    0.5640 ca        1 TB9     -0.131000
     13 C9         -2.6730   -0.5520    1.7830 ca        1 TB9      0.024400
     14 C10        -1.9900    0.0870    2.8240 ca        1 TB9     -0.129000
     15 C11         3.5030   -0.2770   -1.5110 c3        1 TB9     -0.105100
     16 C12         1.1000   -0.0820   -2.9220 c3        1 TB9      0.222000
     17 C13        -0.1100    0.4290   -3.6380 c2        1 TB9     -0.189200
     18 C14        -0.3750    0.1390   -4.9220 c2        1 TB9     -0.115400
     19 C15        -1.5580    0.7080   -5.6130 c3        1 TB9     -0.061400
     20 C16         0.4800   -0.7530   -5.7420 c3        1 TB9     -0.061400
     21 HN1         0.1410    1.3780    4.3340 hn        1 TB9      0.367500
     22 H41         3.3250    0.5770    0.9160 h1        1 TB9      0.078700
     23 H42         2.2760    1.7430   -0.0270 h1        1 TB9      0.078700
     24 H5          2.1630   -1.3750   -0.2450 h1        1 TB9      0.045700
     25 H71         0.1520   -2.0170   -0.9180 h1        1 TB9      0.051700
     26 H72        -0.9680   -0.8710   -1.7790 h1        1 TB9      0.051700
     27 H8         -2.6350   -1.3510   -0.2260 ha        1 TB9      0.151000
     28 H10        -2.4830    0.3090    3.7810 ha        1 TB9      0.158000
     29 H111        4.3470   -0.5520   -0.8320 hc        1 TB9      0.048367
     30 H112        3.4910   -0.9980   -2.3630 hc        1 TB9      0.048367
     31 H113        3.6890    0.7510   -1.9040 hc        1 TB9      0.048367
     32 H121        1.9460    0.6230   -3.1760 h1        1 TB9      0.041200
     33 H122        1.3730   -1.1030   -3.3270 h1        1 TB9      0.041200
     34 H13        -0.7670    1.1070   -3.0690 ha        1 TB9      0.140000
     35 H151       -1.2290    1.3440   -6.4720 hc        1 TB9      0.042867
     36 H152       -2.2000   -0.1160   -6.0140 hc        1 TB9      0.042867
     37 H153       -2.1770    1.3360   -4.9260 hc        1 TB9      0.042867
     38 H161        0.4240   -1.8040   -5.3610 hc        1 TB9      0.042867
     39 H162        0.1560   -0.7510   -6.8120 hc        1 TB9      0.042867
     40 H163        1.5480   -0.4240   -5.6990 hc        1 TB9      0.042867
     41 CL9        -4.3010   -0.9860    2.0150 cl        1 TB9     -0.088400
@<TRIPOS>BOND
     1    1    2 1   
     2    1    3 1   
     3    1   21 1   
     4    2    6 ar  
     5    2   14 ar  
     6    3    4 2   
     7    3    5 1   
     8    5    6 1   
     9    5    7 1   
    10    6   11 ar  
    11    7    8 1   
    12    7   22 1   
    13    7   23 1   
    14    8    9 1   
    15    8   15 1   
    16    8   24 1   
    17    9   10 1   
    18    9   16 1   
    19   10   11 1   
    20   10   25 1   
    21   10   26 1   
    22   11   12 ar  
    23   12   13 ar  
    24   12   27 1   
    25   13   14 ar  
    26   13   41 1   
    27   14   28 1   
    28   15   29 1   
    29   15   30 1   
    30   15   31 1   
    31   16   17 1   
    32   16   32 1   
    33   16   33 1   
    34   17   18 2   
    35   17   34 1   
    36   18   19 1   
    37   18   20 1   
    38   19   35 1   
    39   19   36 1   
    40   19   37 1   
    41   20   38 1   
    42   20   39 1   
    43   20   40 1   
@<TRIPOS>SUBSTRUCTURE
     1 TB9         1 TEMP              0 ****  ****    0 ROOT
