@<TRIPOS>MOLECULE
TB9
   41    42     1     0     0
SMALL
bcc


@<TRIPOS>ATOM
      1 N1          1.3850    1.2620   -0.5960 n         1 TB9     -0.208000
      2 C1A         2.2520    0.1720   -0.2630 c2        1 TB9     -0.310000
      3 C2          0.5980    1.5780    0.5510 c2        1 TB9      0.075000
      4 S2         -0.5230    2.6860    0.6110 s         1 TB9     -0.146000
      5 N3          1.0060    0.7510    1.6190 n         1 TB9     -0.254000
      6 C3A         2.0260   -0.1250    1.1940 c2        1 TB9      0.092000
      7 C4          0.8150    0.0810    6.3300 cx        1 TB9     -0.226500
      8 C5          1.0200   -0.5190    4.9560 cx        1 TB9     -0.073000
      9 N6          2.2060   -0.3530    4.1650 n3        1 TB9     -0.256000
     10 C7          2.4530   -1.4930    3.2880 c3        1 TB9     -0.006000
     11 C7A         2.6730   -1.1120    1.8530 c2        1 TB9     -0.156000
     12 C8          3.5950   -1.9620    1.1070 c2        1 TB9     -0.123000
     13 C9          4.7220   -1.5040    0.5340 c2        1 TB9     -0.119000
     14 C10         3.1960   -0.4460   -0.9900 c1        1 TB9      0.206000
     15 C11         0.8900   -1.4090    6.1810 cx        1 TB9     -0.226500
     16 C12         3.3730    0.0990    4.9110 c3        1 TB9     -0.032000
     17 C13         4.6310    0.2280    4.1170 c2        1 TB9     -0.183000
     18 C14         5.8110    0.5130    4.6910 c2        1 TB9     -0.106000
     19 C15         7.0490    0.6600    3.8870 c3        1 TB9     -0.183000
     20 C16         5.9630    0.6990    6.1540 c3        1 TB9     -0.183000
     21 HN1         0.9300    1.2500   -1.4820 hn        1 TB9      0.244000
     22 H41         0.8850    1.0220    2.5680 hn        1 TB9      0.285000
     23 H42         1.6400    0.6080    6.8400 hc        1 TB9      0.115000
     24 H5         -0.1610    0.5550    6.5380 hc        1 TB9      0.115000
     25 H71         1.5710   -2.2000    3.3110 h1        1 TB9      0.093000
     26 H72         3.3540   -2.0790    3.6380 h1        1 TB9      0.093000
     27 H8          3.3080   -3.0280    1.0530 ha        1 TB9      0.154000
     28 H10         5.0810   -0.4660    0.6130 h4        1 TB9      0.166000
     29 H111        0.1370   -0.4960    4.2720 h1        1 TB9      0.130000
     30 H112        1.7790   -1.9360    6.5690 hc        1 TB9      0.115000
     31 H113       -0.0270   -2.0120    6.2960 hc        1 TB9      0.115000
     32 H121        3.1150    1.1220    5.3210 h1        1 TB9      0.083000
     33 H122        3.5770   -0.5760    5.7990 h1        1 TB9      0.083000
     34 H13         4.5550    0.0990    3.0250 ha        1 TB9      0.135000
     35 H151        6.8640    0.4670    2.8020 hc        1 TB9      0.082167
     36 H152        7.4540    1.6970    3.9970 hc        1 TB9      0.082167
     37 H153        7.8270   -0.0590    4.2470 hc        1 TB9      0.082167
     38 H161        5.2200    1.4460    6.5330 hc        1 TB9      0.082167
     39 H162        6.9880    1.0580    6.4130 hc        1 TB9      0.082167
     40 H163        5.7820   -0.2680    6.6880 hc        1 TB9      0.082167
     41 CL9         5.7900   -2.5090   -0.3060 cl        1 TB9     -0.002000
@<TRIPOS>BOND
     1    1    2 1   
     2    1    3 1   
     3    1   21 1   
     4    2    6 1   
     5    2   14 1   
     6    3    4 1   
     7    3    5 1   
     8    5    6 1   
     9    5   22 1   
    10    6   11 1   
    11    7    8 1   
    12    7   15 1   
    13    7   23 1   
    14    7   24 1   
    15    8    9 1   
    16    8   15 1   
    17    8   29 1   
    18    9   10 1   
    19    9   16 1   
    20   10   11 1   
    21   10   25 1   
    22   10   26 1   
    23   11   12 1   
    24   12   13 1   
    25   12   27 1   
    26   13   28 1   
    27   13   41 1   
    28   15   30 1   
    29   15   31 1   
    30   16   17 1   
    31   16   32 1   
    32   16   33 1   
    33   17   18 1   
    34   17   34 1   
    35   18   19 1   
    36   18   20 1   
    37   19   35 1   
    38   19   36 1   
    39   19   37 1   
    40   20   38 1   
    41   20   39 1   
    42   20   40 1   
@<TRIPOS>SUBSTRUCTURE
     1 TB9         1 TEMP              0 ****  ****    0 ROOT
