@<TRIPOS>MOLECULE
TB9
   41    41     1     0     0
SMALL
bcc


@<TRIPOS>ATOM
      1 N1         -0.0750    0.9810   -0.1470 ns        1 TB9     -0.190000
      2 C1A         1.1710    0.3100   -0.3170 c2        1 TB9     -0.158000
      3 C2         -0.2940    1.3450    1.1550 c2        1 TB9      0.013000
      4 S2         -1.4890    2.1360    1.7930 s         1 TB9     -0.100000
      5 N3          0.8930    0.8500    1.9840 nx        1 TB9      0.130000
      6 C3A         1.7780    0.2280    1.0080 c2        1 TB9     -0.500000
      7 C4          0.4600   -0.0540    3.0860 c3        1 TB9     -0.107000
      8 C5          1.6110   -0.8450    3.7420 c3        1 TB9     -0.088000
      9 N6          2.8880   -0.1380    3.7250 n3        1 TB9     -0.216000
     10 C7          3.6260   -0.3700    2.5300 c2        1 TB9     -0.235000
     11 C7A         3.0940   -0.2070    1.2850 c2        1 TB9      0.062000
     12 C8          3.9030   -0.4850    0.0940 c2        1 TB9     -0.100000
     13 C9          3.6210   -1.4890   -0.7540 c2        1 TB9     -0.125000
     14 C10         1.7560   -0.1740   -1.4350 c1        1 TB9      0.095000
     15 C11         2.0960   -1.5530    6.9220 c1        1 TB9     -0.051000
     16 C12         3.6520   -0.3540    4.9480 c3        1 TB9     -0.018000
     17 C13         4.9550    0.3730    5.0080 c2        1 TB9     -0.170000
     18 C14         5.8750    0.1270    5.9540 c2        1 TB9     -0.119000
     19 C15         7.1520    0.8790    6.0100 c3        1 TB9     -0.180000
     20 C16         5.6950   -0.9100    6.9990 c3        1 TB9     -0.180000
     21 HN1        -0.6910    1.2100   -0.8890 hn        1 TB9      0.284000
     22 H41         1.3640    1.6650    2.3990 hn        1 TB9      0.241000
     23 H42        -0.0610    0.5840    3.8550 hx        1 TB9      0.121000
     24 H5         -0.2730   -0.7980    2.6670 hx        1 TB9      0.121000
     25 H71         1.6900   -1.8350    3.2060 h1        1 TB9      0.115500
     26 H72         4.6810   -0.6630    2.6540 h4        1 TB9      0.137000
     27 H8          4.7610    0.1910   -0.0650 ha        1 TB9      0.148000
     28 H10         2.8060   -2.2150   -0.6120 h4        1 TB9      0.168000
     29 H111        1.2930   -1.0520    4.8090 h1        1 TB9      0.115500
     30 H112        2.7970   -2.4000    6.9840 ha        1 TB9      0.017500
     31 H113        2.2120   -0.8780    7.7860 ha        1 TB9      0.017500
     32 H121        3.0070    0.0380    5.7980 h1        1 TB9      0.076000
     33 H122        3.8390   -1.4570    5.1290 h1        1 TB9      0.076000
     34 H13         5.1270    1.1470    4.2420 ha        1 TB9      0.146000
     35 H151        7.2510    1.5890    5.1530 hc        1 TB9      0.079833
     36 H152        8.0160    0.1690    5.9830 hc        1 TB9      0.079833
     37 H153        7.2110    1.4630    6.9620 hc        1 TB9      0.079833
     38 H161        6.4050   -0.7550    7.8480 hc        1 TB9      0.079833
     39 H162        5.8800   -1.9270    6.5670 hc        1 TB9      0.079833
     40 H163        4.6520   -0.8920    7.4060 hc        1 TB9      0.079833
     41 Cl9         4.5750   -1.8250   -2.1140 cl        1 TB9     -0.026000
@<TRIPOS>BOND
     1    1    2 1   
     2    1    3 1   
     3    1   21 1   
     4    2    6 1   
     5    2   14 1   
     6    3    4 1   
     7    3    5 1   
     8    5    6 1   
     9    5    7 1   
    10    5   22 1   
    11    6   11 1   
    12    7    8 1   
    13    7   23 1   
    14    7   24 1   
    15    8    9 1   
    16    8   25 1   
    17    8   29 1   
    18    9   10 1   
    19    9   16 1   
    20   10   11 1   
    21   10   26 1   
    22   11   12 1   
    23   12   13 1   
    24   12   27 1   
    25   13   28 1   
    26   13   41 1   
    27   15   30 1   
    28   15   31 1   
    29   16   17 1   
    30   16   32 1   
    31   16   33 1   
    32   17   18 1   
    33   17   34 1   
    34   18   19 1   
    35   18   20 1   
    36   19   35 1   
    37   19   36 1   
    38   19   37 1   
    39   20   38 1   
    40   20   39 1   
    41   20   40 1   
@<TRIPOS>SUBSTRUCTURE
     1 TB9         1 TEMP              0 ****  ****    0 ROOT
