@<TRIPOS>MOLECULE
TBA
   53    52     1     0     0
SMALL
bcc


@<TRIPOS>ATOM
      1 N1         -0.0620    0.0010    0.0130 n4        1 TBA     -0.603800
      2 C11         1.4460    0.0010   -0.0280 c3        1 TBA      0.110800
      3 C12         2.1520    0.0720    1.3190 c3        1 TBA     -0.101400
      4 C21        -0.5770   -1.2120    0.7490 c3        1 TBA      0.110800
      5 C22        -0.2350   -2.5620    0.1340 c3        1 TBA     -0.101400
      6 C31        -0.5410    0.0010   -1.4170 c3        1 TBA      0.110800
      7 C32        -2.0490   -0.0710   -1.6180 c3        1 TBA     -0.101400
      8 C41        -0.5770    1.2120    0.7500 c3        1 TBA      0.110800
      9 C42        -0.1170    2.5630    0.2190 c3        1 TBA     -0.101400
     10 C13         3.6530    0.0480    1.0920 c3        1 TBA     -0.079400
     11 C14         4.3950    0.1210    2.4020 c3        1 TBA     -0.099100
     12 C23        -0.8150   -3.6630    1.0050 c3        1 TBA     -0.079400
     13 C24        -0.5040   -5.0210    0.4310 c3        1 TBA     -0.099100
     14 C33        -2.3500   -0.0460   -3.1060 c3        1 TBA     -0.079400
     15 C34        -3.8350   -0.1200   -3.3530 c3        1 TBA     -0.099100
     16 C43        -0.7370    3.6630    1.0630 c3        1 TBA     -0.079400
     17 C44        -0.3050    5.0220    0.5740 c3        1 TBA     -0.099100
     18 H111        1.7660   -0.9400   -0.5630 hx        1 TBA      0.094700
     19 H112        1.7620    0.8840   -0.6550 hx        1 TBA      0.094700
     20 H121        1.8780    1.0150    1.8620 hc        1 TBA      0.063200
     21 H122        1.8660   -0.7960    1.9690 hc        1 TBA      0.063200
     22 H211       -0.1620   -1.1680    1.7970 hx        1 TBA      0.094700
     23 H212       -1.6990   -1.1110    0.8120 hx        1 TBA      0.094700
     24 H221        0.8750   -2.7000    0.0610 hc        1 TBA      0.063200
     25 H222       -0.6630   -2.6480   -0.8990 hc        1 TBA      0.063200
     26 H311       -0.0600   -0.8820   -1.9290 hx        1 TBA      0.094700
     27 H312       -0.1480    0.9420   -1.9010 hx        1 TBA      0.094700
     28 H321       -2.4640   -1.0140   -1.1750 hc        1 TBA      0.063200
     29 H322       -2.5610    0.7970   -1.1260 hc        1 TBA      0.063200
     30 H411       -1.7040    1.1680    0.7200 hx        1 TBA      0.094700
     31 H412       -0.2510    1.1110    1.8260 hx        1 TBA      0.094700
     32 H421        1.0000    2.6500    0.2660 hc        1 TBA      0.063200
     33 H422       -0.4300    2.7020   -0.8500 hc        1 TBA      0.063200
     34 H131        3.9500    0.9130    0.4410 hc        1 TBA      0.051700
     35 H132        3.9380   -0.8920    0.5490 hc        1 TBA      0.051700
     36 H141        5.4970    0.1030    2.2170 hc        1 TBA      0.049700
     37 H142        4.1330   -0.7450    3.0560 hc        1 TBA      0.049700
     38 H143        4.1460    1.0630    2.9480 hc        1 TBA      0.049700
     39 H231       -0.3930   -3.5860    2.0420 hc        1 TBA      0.051700
     40 H232       -1.9270   -3.5330    1.0870 hc        1 TBA      0.051700
     41 H241       -0.9380   -5.8180    1.0830 hc        1 TBA      0.049700
     42 H242        0.5990   -5.1820    0.3650 hc        1 TBA      0.049700
     43 H243       -0.9380   -5.1290   -0.5930 hc        1 TBA      0.049700
     44 H331       -1.8410   -0.9100   -3.6090 hc        1 TBA      0.051700
     45 H332       -1.9390    0.8950   -3.5590 hc        1 TBA      0.051700
     46 H341       -4.0400   -0.1010   -4.4520 hc        1 TBA      0.049700
     47 H342       -4.2620   -1.0620   -2.9320 hc        1 TBA      0.049700
     48 H343       -4.3600    0.7470   -2.8830 hc        1 TBA      0.049700
     49 H431       -0.4310    3.5330    2.1350 hc        1 TBA      0.051700
     50 H432       -1.8560    3.5860    1.0220 hc        1 TBA      0.051700
     51 H441       -0.7690    5.8180    1.2060 hc        1 TBA      0.049700
     52 H442       -0.6220    5.1830   -0.4850 hc        1 TBA      0.049700
     53 H443        0.8050    5.1300    0.6300 hc        1 TBA      0.049700
@<TRIPOS>BOND
     1    1    2 1   
     2    1    4 1   
     3    1    6 1   
     4    1    8 1   
     5    2    3 1   
     6    2   18 1   
     7    2   19 1   
     8    3   10 1   
     9    3   20 1   
    10    3   21 1   
    11    4    5 1   
    12    4   22 1   
    13    4   23 1   
    14    5   12 1   
    15    5   24 1   
    16    5   25 1   
    17    6    7 1   
    18    6   26 1   
    19    6   27 1   
    20    7   14 1   
    21    7   28 1   
    22    7   29 1   
    23    8    9 1   
    24    8   30 1   
    25    8   31 1   
    26    9   16 1   
    27    9   32 1   
    28    9   33 1   
    29   10   11 1   
    30   10   34 1   
    31   10   35 1   
    32   11   36 1   
    33   11   37 1   
    34   11   38 1   
    35   12   13 1   
    36   12   39 1   
    37   12   40 1   
    38   13   41 1   
    39   13   42 1   
    40   13   43 1   
    41   14   15 1   
    42   14   44 1   
    43   14   45 1   
    44   15   46 1   
    45   15   47 1   
    46   15   48 1   
    47   16   17 1   
    48   16   49 1   
    49   16   50 1   
    50   17   51 1   
    51   17   52 1   
    52   17   53 1   
@<TRIPOS>SUBSTRUCTURE
     1 TBA         1 TEMP              0 ****  ****    0 ROOT
