@<TRIPOS>MOLECULE
TBA
   53    52     1     0     0
SMALL
bcc


@<TRIPOS>ATOM
      1 N1         -0.0620    0.0010    0.0130 n4        1 TBA     -0.603800
      2 C11         1.4460    0.0020   -0.0300 c3        1 TBA      0.110800
      3 C12         2.1540    0.0740    1.3150 c3        1 TBA     -0.101400
      4 C21        -0.5750   -1.2120    0.7510 c3        1 TBA      0.110800
      5 C22        -0.2330   -2.5620    0.1370 c3        1 TBA     -0.101400
      6 C31        -0.5440   -0.0000   -1.4160 c3        1 TBA      0.110800
      7 C32        -2.0520   -0.0730   -1.6140 c3        1 TBA     -0.101400
      8 C41        -0.5760    1.2130    0.7500 c3        1 TBA      0.110800
      9 C42        -0.1180    2.5640    0.2170 c3        1 TBA     -0.101400
     10 C13         3.6550    0.0510    1.0850 c3        1 TBA     -0.079400
     11 C14         4.3990    0.1260    2.3940 c3        1 TBA     -0.099100
     12 C23        -0.8110   -3.6620    1.0100 c3        1 TBA     -0.079400
     13 C24        -0.4990   -5.0210    0.4360 c3        1 TBA     -0.099100
     14 C33        -2.3560   -0.0500   -3.1020 c3        1 TBA     -0.079400
     15 C34        -3.8420   -0.1240   -3.3460 c3        1 TBA     -0.099100
     16 C43        -0.7370    3.6640    1.0610 c3        1 TBA     -0.079400
     17 C44        -0.3070    5.0220    0.5700 c3        1 TBA     -0.099100
     18 H111        1.7650   -0.9390   -0.5660 hx        1 TBA      0.094700
     19 H112        1.7600    0.8850   -0.6590 hx        1 TBA      0.094700
     20 H121        1.8800    1.0170    1.8580 hc        1 TBA      0.063200
     21 H122        1.8700   -0.7940    1.9650 hc        1 TBA      0.063200
     22 H211       -0.1580   -1.1660    1.7980 hx        1 TBA      0.094700
     23 H212       -1.6970   -1.1110    0.8160 hx        1 TBA      0.094700
     24 H221        0.8770   -2.6990    0.0610 hc        1 TBA      0.063200
     25 H222       -0.6630   -2.6490   -0.8960 hc        1 TBA      0.063200
     26 H311       -0.0630   -0.8830   -1.9290 hx        1 TBA      0.094700
     27 H312       -0.1520    0.9400   -1.9010 hx        1 TBA      0.094700
     28 H321       -2.4660   -1.0160   -1.1690 hc        1 TBA      0.063200
     29 H322       -2.5630    0.7960   -1.1230 hc        1 TBA      0.063200
     30 H411       -1.7030    1.1680    0.7220 hx        1 TBA      0.094700
     31 H412       -0.2490    1.1130    1.8250 hx        1 TBA      0.094700
     32 H421        0.9990    2.6500    0.2620 hc        1 TBA      0.063200
     33 H422       -0.4330    2.7010   -0.8510 hc        1 TBA      0.063200
     34 H131        3.9500    0.9160    0.4340 hc        1 TBA      0.051700
     35 H132        3.9400   -0.8890    0.5420 hc        1 TBA      0.051700
     36 H141        5.5010    0.1080    2.2070 hc        1 TBA      0.049700
     37 H142        4.1400   -0.7420    3.0480 hc        1 TBA      0.049700
     38 H143        4.1500    1.0670    2.9400 hc        1 TBA      0.049700
     39 H231       -0.3860   -3.5840    2.0460 hc        1 TBA      0.051700
     40 H232       -1.9230   -3.5340    1.0930 hc        1 TBA      0.051700
     41 H241       -0.9310   -5.8180    1.0890 hc        1 TBA      0.049700
     42 H242        0.6040   -5.1810    0.3680 hc        1 TBA      0.049700
     43 H243       -0.9350   -5.1300   -0.5870 hc        1 TBA      0.049700
     44 H331       -1.8480   -0.9150   -3.6050 hc        1 TBA      0.051700
     45 H332       -1.9460    0.8900   -3.5570 hc        1 TBA      0.051700
     46 H341       -4.0480   -0.1060   -4.4440 hc        1 TBA      0.049700
     47 H342       -4.2680   -1.0660   -2.9230 hc        1 TBA      0.049700
     48 H343       -4.3660    0.7430   -2.8760 hc        1 TBA      0.049700
     49 H431       -0.4300    3.5350    2.1330 hc        1 TBA      0.051700
     50 H432       -1.8560    3.5860    1.0220 hc        1 TBA      0.051700
     51 H441       -0.7700    5.8190    1.2020 hc        1 TBA      0.049700
     52 H442       -0.6260    5.1820   -0.4880 hc        1 TBA      0.049700
     53 H443        0.8040    5.1310    0.6250 hc        1 TBA      0.049700
@<TRIPOS>BOND
     1    1    2 1   
     2    1    4 1   
     3    1    6 1   
     4    1    8 1   
     5    2    3 1   
     6    2   18 1   
     7    2   19 1   
     8    3   10 1   
     9    3   20 1   
    10    3   21 1   
    11    4    5 1   
    12    4   22 1   
    13    4   23 1   
    14    5   12 1   
    15    5   24 1   
    16    5   25 1   
    17    6    7 1   
    18    6   26 1   
    19    6   27 1   
    20    7   14 1   
    21    7   28 1   
    22    7   29 1   
    23    8    9 1   
    24    8   30 1   
    25    8   31 1   
    26    9   16 1   
    27    9   32 1   
    28    9   33 1   
    29   10   11 1   
    30   10   34 1   
    31   10   35 1   
    32   11   36 1   
    33   11   37 1   
    34   11   38 1   
    35   12   13 1   
    36   12   39 1   
    37   12   40 1   
    38   13   41 1   
    39   13   42 1   
    40   13   43 1   
    41   14   15 1   
    42   14   44 1   
    43   14   45 1   
    44   15   46 1   
    45   15   47 1   
    46   15   48 1   
    47   16   17 1   
    48   16   49 1   
    49   16   50 1   
    50   17   51 1   
    51   17   52 1   
    52   17   53 1   
@<TRIPOS>SUBSTRUCTURE
     1 TBA         1 TEMP              0 ****  ****    0 ROOT
