@<TRIPOS>MOLECULE
TBA
   53    52     1     0     0
SMALL
bcc


@<TRIPOS>ATOM
      1 N1         -0.0620    0.0010    0.0130 n4        1 TBA     -0.603800
      2 C11         1.4450   -0.0000   -0.0330 c3        1 TBA      0.110800
      3 C12         2.1560    0.0710    1.3120 c3        1 TBA     -0.101400
      4 C21        -0.5750   -1.2110    0.7510 c3        1 TBA      0.110800
      5 C22        -0.2350   -2.5620    0.1380 c3        1 TBA     -0.101400
      6 C31        -0.5460    0.0010   -1.4150 c3        1 TBA      0.110800
      7 C32        -2.0540   -0.0700   -1.6120 c3        1 TBA     -0.101400
      8 C41        -0.5740    1.2140    0.7500 c3        1 TBA      0.110800
      9 C42        -0.1160    2.5640    0.2160 c3        1 TBA     -0.101400
     10 C13         3.6570    0.0460    1.0790 c3        1 TBA     -0.079400
     11 C14         4.4020    0.1180    2.3870 c3        1 TBA     -0.099100
     12 C23        -0.8140   -3.6610    1.0110 c3        1 TBA     -0.079400
     13 C24        -0.5040   -5.0200    0.4380 c3        1 TBA     -0.099100
     14 C33        -2.3610   -0.0460   -3.0990 c3        1 TBA     -0.079400
     15 C34        -3.8470   -0.1190   -3.3410 c3        1 TBA     -0.099100
     16 C43        -0.7320    3.6640    1.0620 c3        1 TBA     -0.079400
     17 C44        -0.3010    5.0230    0.5700 c3        1 TBA     -0.099100
     18 H111        1.7600    0.8830   -0.6610 hx        1 TBA      0.094700
     19 H112        1.7630   -0.9400   -0.5690 hx        1 TBA      0.094700
     20 H121        1.8720   -0.7980    1.9620 hc        1 TBA      0.063325
     21 H122        1.8840    1.0140    1.8550 hc        1 TBA      0.063325
     22 H211       -0.1580   -1.1650    1.7990 hx        1 TBA      0.094700
     23 H212       -1.6970   -1.1100    0.8180 hx        1 TBA      0.094700
     24 H221        0.8750   -2.7000    0.0620 hc        1 TBA      0.063325
     25 H222       -0.6650   -2.6490   -0.8950 hc        1 TBA      0.063325
     26 H311       -0.1540    0.9400   -1.9010 hx        1 TBA      0.094700
     27 H312       -0.0670   -0.8830   -1.9290 hx        1 TBA      0.094700
     28 H321       -2.4680   -1.0130   -1.1670 hc        1 TBA      0.063325
     29 H322       -2.5640    0.7980   -1.1180 hc        1 TBA      0.063325
     30 H411       -1.7010    1.1690    0.7250 hx        1 TBA      0.094700
     31 H412       -0.2440    1.1130    1.8250 hx        1 TBA      0.094700
     32 H421        1.0020    2.6500    0.2600 hc        1 TBA      0.063325
     33 H422       -0.4320    2.7010   -0.8510 hc        1 TBA      0.063325
     34 H131        3.9520    0.9110    0.4290 hc        1 TBA      0.051700
     35 H132        3.9390   -0.8940    0.5360 hc        1 TBA      0.051700
     36 H141        5.5040    0.0990    2.1990 hc        1 TBA      0.049700
     37 H142        4.1560    1.0600    2.9350 hc        1 TBA      0.049700
     38 H143        4.1430   -0.7490    3.0420 hc        1 TBA      0.049700
     39 H231       -1.9250   -3.5310    1.0940 hc        1 TBA      0.051700
     40 H232       -0.3890   -3.5830    2.0470 hc        1 TBA      0.051700
     41 H241        0.6000   -5.1810    0.3700 hc        1 TBA      0.049700
     42 H242       -0.9400   -5.1290   -0.5850 hc        1 TBA      0.049700
     43 H243       -0.9360   -5.8160    1.0920 hc        1 TBA      0.049700
     44 H331       -1.9500    0.8950   -3.5540 hc        1 TBA      0.051700
     45 H332       -1.8540   -0.9110   -3.6030 hc        1 TBA      0.051700
     46 H341       -4.0550   -0.1000   -4.4390 hc        1 TBA      0.049700
     47 H342       -4.2730   -1.0610   -2.9180 hc        1 TBA      0.049700
     48 H343       -4.3690    0.7480   -2.8690 hc        1 TBA      0.049700
     49 H431       -0.4230    3.5360    2.1330 hc        1 TBA      0.051700
     50 H432       -1.8510    3.5880    1.0250 hc        1 TBA      0.051700
     51 H441        0.8090    5.1310    0.6220 hc        1 TBA      0.049700
     52 H442       -0.6220    5.1830   -0.4880 hc        1 TBA      0.049700
     53 H443       -0.7630    5.8200    1.2020 hc        1 TBA      0.049700
@<TRIPOS>BOND
     1    1    2 1   
     2    1    4 1   
     3    1    6 1   
     4    1    8 1   
     5    2    3 1   
     6    2   18 1   
     7    2   19 1   
     8    3   10 1   
     9    3   20 1   
    10    3   21 1   
    11    4    5 1   
    12    4   22 1   
    13    4   23 1   
    14    5   12 1   
    15    5   24 1   
    16    5   25 1   
    17    6    7 1   
    18    6   26 1   
    19    6   27 1   
    20    7   14 1   
    21    7   28 1   
    22    7   29 1   
    23    8    9 1   
    24    8   30 1   
    25    8   31 1   
    26    9   16 1   
    27    9   32 1   
    28    9   33 1   
    29   10   11 1   
    30   10   34 1   
    31   10   35 1   
    32   11   36 1   
    33   11   37 1   
    34   11   38 1   
    35   12   13 1   
    36   12   39 1   
    37   12   40 1   
    38   13   41 1   
    39   13   42 1   
    40   13   43 1   
    41   14   15 1   
    42   14   44 1   
    43   14   45 1   
    44   15   46 1   
    45   15   47 1   
    46   15   48 1   
    47   16   17 1   
    48   16   49 1   
    49   16   50 1   
    50   17   51 1   
    51   17   52 1   
    52   17   53 1   
@<TRIPOS>SUBSTRUCTURE
     1 TBA         1 TEMP              0 ****  ****    0 ROOT
