@<TRIPOS>MOLECULE
TBA
   53    52     1     0     0
SMALL
bcc


@<TRIPOS>ATOM
      1 N1          2.3130   -0.6010   -4.5770 n4        1 TBA     -0.603800
      2 C11         1.1840    0.2470   -4.0460 c3        1 TBA      0.110800
      3 C12         1.4900    1.0600   -2.7960 c3        1 TBA     -0.101400
      4 C21         3.4800    0.2600   -4.9910 c3        1 TBA      0.110800
      5 C22         3.2150    1.2510   -6.1170 c3        1 TBA     -0.101400
      6 C31         1.7690   -1.3670   -5.7580 c3        1 TBA      0.110800
      7 C32         2.7650   -2.2450   -6.5030 c3        1 TBA     -0.101400
      8 C41         2.8180   -1.5460   -3.5150 c3        1 TBA      0.110800
      9 C42         1.7810   -2.4720   -2.8950 c3        1 TBA     -0.101400
     10 C13         0.2560    1.8580   -2.4120 c3        1 TBA     -0.079400
     11 C14         0.5130    2.6780   -1.1730 c3        1 TBA     -0.099100
     12 C23         4.4840    2.0380   -6.3910 c3        1 TBA     -0.079400
     13 C24         4.2690    3.0310   -7.5040 c3        1 TBA     -0.099100
     14 C33         2.0500   -2.9470   -7.6430 c3        1 TBA     -0.079400
     15 C34         3.0020   -3.8270   -8.4120 c3        1 TBA     -0.099100
     16 C43         2.4610   -3.3550   -1.8640 c3        1 TBA     -0.079400
     17 C44         1.4690   -4.2890   -1.2200 c3        1 TBA     -0.099100
     18 H111        0.3200   -0.4470   -3.8300 hx        1 TBA      0.094700
     19 H112        0.8730    0.9460   -4.8740 hx        1 TBA      0.094700
     20 H121        2.3420    1.7670   -2.9750 hc        1 TBA      0.063200
     21 H122        1.7720    0.3870   -1.9430 hc        1 TBA      0.063200
     22 H211        4.3130   -0.4350   -5.3020 hx        1 TBA      0.094700
     23 H212        3.8200    0.8250   -4.0750 hx        1 TBA      0.094700
     24 H221        2.3940    1.9630   -5.8390 hc        1 TBA      0.063200
     25 H222        2.9060    0.7140   -7.0530 hc        1 TBA      0.063200
     26 H311        1.3390   -0.6100   -6.4760 hx        1 TBA      0.094700
     27 H312        0.9220   -2.0090   -5.3790 hx        1 TBA      0.094700
     28 H321        3.2090   -3.0160   -5.8190 hc        1 TBA      0.063200
     29 H322        3.6040   -1.6280   -6.9200 hc        1 TBA      0.063200
     30 H411        3.2800   -0.9140   -2.7010 hx        1 TBA      0.094700
     31 H412        3.6360   -2.1670   -3.9810 hx        1 TBA      0.094700
     32 H421        1.3050   -3.1210   -3.6760 hc        1 TBA      0.063200
     33 H422        0.9700   -1.8810   -2.3940 hc        1 TBA      0.063200
     34 H131       -0.6040    1.1600   -2.2310 hc        1 TBA      0.051700
     35 H132       -0.0340    2.5350   -3.2580 hc        1 TBA      0.051700
     36 H141        1.3490    3.3990   -1.3390 hc        1 TBA      0.049700
     37 H142        0.7790    2.0220   -0.3100 hc        1 TBA      0.049700
     38 H143       -0.4040    3.2580   -0.9050 hc        1 TBA      0.049700
     39 H231        5.3130    1.3340   -6.6680 hc        1 TBA      0.051700
     40 H232        4.8010    2.5790   -5.4600 hc        1 TBA      0.051700
     41 H241        3.4640    3.7590   -7.2380 hc        1 TBA      0.049700
     42 H242        3.9770    2.5110   -8.4490 hc        1 TBA      0.049700
     43 H243        5.2110    3.6010   -7.6930 hc        1 TBA      0.049700
     44 H331        1.6000   -2.1840   -8.3330 hc        1 TBA      0.051700
     45 H332        1.2080   -3.5680   -7.2360 hc        1 TBA      0.051700
     46 H341        3.4420   -4.6110   -7.7500 hc        1 TBA      0.049700
     47 H342        3.8350   -3.2250   -8.8490 hc        1 TBA      0.049700
     48 H343        2.4590   -4.3350   -9.2470 hc        1 TBA      0.049700
     49 H431        2.9430   -2.7160   -1.0770 hc        1 TBA      0.051700
     50 H432        3.2760   -3.9510   -2.3550 hc        1 TBA      0.051700
     51 H441        0.9960   -4.9540   -1.9820 hc        1 TBA      0.049700
     52 H442        0.6620   -3.7160   -0.7020 hc        1 TBA      0.049700
     53 H443        1.9850   -4.9310   -0.4640 hc        1 TBA      0.049700
@<TRIPOS>BOND
     1    1    2 1   
     2    1    4 1   
     3    1    6 1   
     4    1    8 1   
     5    2    3 1   
     6    2   18 1   
     7    2   19 1   
     8    3   10 1   
     9    3   20 1   
    10    3   21 1   
    11    4    5 1   
    12    4   22 1   
    13    4   23 1   
    14    5   12 1   
    15    5   24 1   
    16    5   25 1   
    17    6    7 1   
    18    6   26 1   
    19    6   27 1   
    20    7   14 1   
    21    7   28 1   
    22    7   29 1   
    23    8    9 1   
    24    8   30 1   
    25    8   31 1   
    26    9   16 1   
    27    9   32 1   
    28    9   33 1   
    29   10   11 1   
    30   10   34 1   
    31   10   35 1   
    32   11   36 1   
    33   11   37 1   
    34   11   38 1   
    35   12   13 1   
    36   12   39 1   
    37   12   40 1   
    38   13   41 1   
    39   13   42 1   
    40   13   43 1   
    41   14   15 1   
    42   14   44 1   
    43   14   45 1   
    44   15   46 1   
    45   15   47 1   
    46   15   48 1   
    47   16   17 1   
    48   16   49 1   
    49   16   50 1   
    50   17   51 1   
    51   17   52 1   
    52   17   53 1   
@<TRIPOS>SUBSTRUCTURE
     1 TBA         1 TEMP              0 ****  ****    0 ROOT
