@<TRIPOS>MOLECULE
TBB
   18    17     1     0     0
SMALL
bcc


@<TRIPOS>ATOM
      1 C24        -0.3390   -0.0260   -0.0480 c         1 TBB      0.981600
      2 N30         1.1020   -0.2370   -0.0900 n         1 TBB     -0.572900
      3 O31        -0.9890   -0.2660    1.0140 o         1 TBB     -0.846800
      4 C35         1.8820   -0.0670    1.1270 c3        1 TBB      0.112400
      5 C40         1.5920    1.2580    1.8620 c3        1 TBB     -0.100767
      6 C41         1.6090   -1.2080    2.1230 c3        1 TBB     -0.100767
      7 C42         3.3920   -0.0830    0.8140 c3        1 TBB     -0.100767
      8 H27         1.5110    0.2610   -0.8530 hn        1 TBB      0.236500
      9 H31         2.1960    1.3190    2.7980 hc        1 TBB      0.026589
     10 H32         0.5050    1.3030    2.1200 hc        1 TBB      0.026589
     11 H33         1.8480    2.1300    1.2160 hc        1 TBB      0.026589
     12 H34         2.2040   -1.0430    3.0530 hc        1 TBB      0.026589
     13 H35         1.9010   -2.1890    1.6800 hc        1 TBB      0.026589
     14 H36         0.5190   -1.2320    2.3720 hc        1 TBB      0.026589
     15 H37         3.9690    0.0050    1.7650 hc        1 TBB      0.026589
     16 H38         3.6700    0.7710    0.1510 hc        1 TBB      0.026589
     17 H39         3.6780   -1.0360    0.3090 hc        1 TBB      0.026589
     18 OXT        -0.8640    0.3710   -1.1330 o         1 TBB     -0.846800
@<TRIPOS>BOND
     1    1    2 1   
     2    1    3 1   
     3    1   18 1   
     4    2    4 1   
     5    2    8 1   
     6    4    5 1   
     7    4    6 1   
     8    4    7 1   
     9    5    9 1   
    10    5   10 1   
    11    5   11 1   
    12    6   12 1   
    13    6   13 1   
    14    6   14 1   
    15    7   15 1   
    16    7   16 1   
    17    7   17 1   
@<TRIPOS>SUBSTRUCTURE
     1 TBB         1 TEMP              0 ****  ****    0 ROOT
