@<TRIPOS>MOLECULE
TBE
   34    34     1     0     0
SMALL
bcc


@<TRIPOS>ATOM
      1 S1          1.9660    0.3590   -0.2440 s6        1 TBE      1.312000
      2 O12         2.5980   -0.3400    0.7950 o         1 TBE     -0.668800
      3 O13         2.2190   -0.1650   -1.5290 o         1 TBE     -0.668800
      4 C2          0.1970    0.1470   -0.0030 c3        1 TBE     -0.219200
      5 C3         -0.1780    0.0820    1.4780 c3        1 TBE     -0.017500
      6 N4          0.3140   -1.1570    2.1750 n4        1 TBE     -0.649800
      7 C5         -0.4000   -1.3540    3.4290 c2        1 TBE      0.004000
      8 C20        -0.5100    1.3580   -0.5930 c3        1 TBE     -0.090100
      9 C14        -0.2120   -1.1080   -0.7950 c3        1 TBE      0.056300
     10 N15        -1.5720   -1.5620   -0.6070 na        1 TBE      0.052400
     11 N16        -2.0350   -2.2230    0.4840 nc        1 TBE     -0.224800
     12 N17        -3.2680   -2.4920    0.3390 nd        1 TBE     -0.346000
     13 C18        -3.7220   -2.0020   -0.9020 cd        1 TBE      0.254200
     14 C19        -2.6200   -1.3900   -1.5250 cc        1 TBE     -0.206600
     15 C9          0.4490    1.3320    2.2570 c         1 TBE      0.933600
     16 O10        -0.1110    1.6560    3.3180 o         1 TBE     -0.769300
     17 O11         1.4770    1.7940    1.6990 o         1 TBE     -0.769300
     18 C6         -0.9140   -2.5270    3.8300 ce        1 TBE     -0.237200
     19 C7         -0.8700   -3.7940    3.0810 c         1 TBE      0.571100
     20 O8         -0.0650   -4.0060    2.1680 o         1 TBE     -0.534100
     21 H3         -1.2960    0.1350    1.5980 hx        1 TBE      0.112700
     22 HN4         1.3240   -1.0160    2.3820 hn        1 TBE      0.474800
     23 H5         -0.4940   -0.4020    4.0110 hx        1 TBE      0.237000
     24 H201       -1.6190    1.2380   -0.5470 hc        1 TBE      0.065033
     25 H202       -0.2370    2.2810   -0.0200 hc        1 TBE      0.065033
     26 H203       -0.2130    1.4860   -1.6630 hc        1 TBE      0.065033
     27 H141        0.4900   -1.9580   -0.5420 h1        1 TBE      0.094200
     28 H142       -0.0810   -0.8850   -1.8970 h1        1 TBE      0.094200
     29 H18        -4.7500   -2.1240   -1.2360 h4        1 TBE      0.064100
     30 H19        -2.4980   -0.8870   -2.4820 h4        1 TBE      0.199000
     31 H6         -1.4370   -2.5650    4.8030 ha        1 TBE      0.176000
     32 H7         -1.6130   -4.5590    3.3980 h4        1 TBE      0.035200
     33 HS1         2.1110    1.5600   -0.3290 hs        1 TBE      0.060800
     34 H42         0.2350   -1.9880    1.5730 hn        1 TBE      0.474800
@<TRIPOS>BOND
     1    1    2 2   
     2    1    3 2   
     3    1    4 1   
     4    1   33 1   
     5    4    5 1   
     6    4    8 1   
     7    4    9 1   
     8    5    6 1   
     9    5   15 1   
    10    5   21 1   
    11    6    7 1   
    12    6   22 1   
    13    6   34 1   
    14    7   18 2   
    15    7   23 1   
    16    8   24 1   
    17    8   25 1   
    18    8   26 1   
    19    9   10 1   
    20    9   27 1   
    21    9   28 1   
    22   10   11 1   
    23   10   14 1   
    24   11   12 2   
    25   12   13 1   
    26   13   14 2   
    27   13   29 1   
    28   14   30 1   
    29   15   16 1   
    30   15   17 1   
    31   18   19 1   
    32   18   31 1   
    33   19   20 2   
    34   19   32 1   
@<TRIPOS>SUBSTRUCTURE
     1 TBE         1 TEMP              0 ****  ****    0 ROOT
