@<TRIPOS>MOLECULE
TBE
   34    34     1     0     0
SMALL
bcc


@<TRIPOS>ATOM
      1 S1          2.0060    0.3360   -0.1780 s6        1 TBE      1.312000
      2 O12         2.6020   -0.3660    0.8790 o         1 TBE     -0.668800
      3 O13         2.2870   -0.1960   -1.4540 o         1 TBE     -0.668800
      4 C2          0.2290    0.1460    0.0160 c3        1 TBE     -0.219200
      5 C3         -0.1850    0.0900    1.4880 c3        1 TBE     -0.017500
      6 N4          0.2730   -1.1520    2.2020 n4        1 TBE     -0.649800
      7 C5         -0.4770   -1.3350    3.4370 c2        1 TBE      0.004000
      8 C20        -0.4480    1.3620   -0.5960 c3        1 TBE     -0.090100
      9 C14        -0.1740   -1.1070   -0.7810 c3        1 TBE      0.056300
     10 N15        -1.5440   -1.5450   -0.6270 na        1 TBE      0.052400
     11 N16        -2.0430   -2.1960    0.4530 nc        1 TBE     -0.224800
     12 N17        -3.2750   -2.4510    0.2770 nd        1 TBE     -0.346000
     13 C18        -3.6900   -1.9610   -0.9780 cd        1 TBE      0.254200
     14 C19        -2.5660   -1.3640   -1.5730 cc        1 TBE     -0.206600
     15 C9          0.4360    1.3360    2.2790 c         1 TBE      0.933600
     16 O10        -0.1490    1.6700    3.3230 o         1 TBE     -0.769300
     17 O11         1.4830    1.7840    1.7460 o         1 TBE     -0.769300
     18 C6         -1.0140   -2.5000    3.8280 ce        1 TBE     -0.237200
     19 C7         -0.9660   -3.7710    3.0840 c         1 TBE      0.571100
     20 O8         -0.1400   -3.9960    2.1940 o         1 TBE     -0.534100
     21 H3         -1.3060    0.1570    1.5770 hx        1 TBE      0.112700
     22 HN4         1.2790   -1.0210    2.4350 hn        1 TBE      0.474800
     23 H5         -0.5750   -0.3810    4.0130 hx        1 TBE      0.237000
     24 H201       -0.1790    2.2850   -0.0190 hc        1 TBE      0.065033
     25 H202       -1.5600    1.2560   -0.5800 hc        1 TBE      0.065033
     26 H203       -0.1210    1.4830   -1.6580 hc        1 TBE      0.065033
     27 H141       -0.0120   -0.8900   -1.8800 h1        1 TBE      0.094200
     28 H142        0.5110   -1.9640   -0.5070 h1        1 TBE      0.094200
     29 H18        -4.7100   -2.0720   -1.3380 h4        1 TBE      0.064100
     30 H19        -2.4120   -0.8670   -2.5290 h4        1 TBE      0.199000
     31 H6         -1.5640   -2.5290    4.7860 ha        1 TBE      0.176000
     32 H7         -1.7270   -4.5250    3.3830 h4        1 TBE      0.035200
     33 HS1         2.1680    1.5350   -0.2640 hs        1 TBE      0.060800
     34 H42         0.2010   -1.9840    1.6000 hn        1 TBE      0.474800
@<TRIPOS>BOND
     1    1    2 2   
     2    1    3 2   
     3    1    4 1   
     4    1   33 1   
     5    4    5 1   
     6    4    8 1   
     7    4    9 1   
     8    5    6 1   
     9    5   15 1   
    10    5   21 1   
    11    6    7 1   
    12    6   22 1   
    13    6   34 1   
    14    7   18 2   
    15    7   23 1   
    16    8   24 1   
    17    8   25 1   
    18    8   26 1   
    19    9   10 1   
    20    9   27 1   
    21    9   28 1   
    22   10   11 1   
    23   10   14 1   
    24   11   12 2   
    25   12   13 1   
    26   13   14 2   
    27   13   29 1   
    28   14   30 1   
    29   15   16 1   
    30   15   17 1   
    31   18   19 1   
    32   18   31 1   
    33   19   20 2   
    34   19   32 1   
@<TRIPOS>SUBSTRUCTURE
     1 TBE         1 TEMP              0 ****  ****    0 ROOT
