@<TRIPOS>MOLECULE
TBE
   33    33     1     0     0
SMALL
bcc


@<TRIPOS>ATOM
      1 S1         -5.3290    5.9270    2.3690 s6        1 TBE      1.324000
      2 O12        -4.3230    6.8690    2.5910 o         1 TBE     -0.685800
      3 O13        -6.2300    6.3510    1.3460 o         1 TBE     -0.685800
      4 C2         -4.7260    4.3470    1.7810 c3        1 TBE     -0.210200
      5 C3         -3.3380    4.0190    2.3920 c3        1 TBE      0.102500
      6 N4         -2.3000    4.9090    1.9260 nh        1 TBE     -0.746000
      7 C5         -1.1270    4.4390    1.4200 c2        1 TBE      0.193000
      8 C20        -5.7010    3.2770    2.2310 c3        1 TBE     -0.088100
      9 C14        -4.6780    4.4090    0.2490 c3        1 TBE      0.069300
     10 N15        -4.3350    3.1690   -0.4230 na        1 TBE      0.075400
     11 N16        -3.1010    2.7900   -0.8280 nc        1 TBE     -0.166800
     12 N17        -3.1550    1.6370   -1.3650 nd        1 TBE     -0.377000
     13 C18        -4.4780    1.1560   -1.3350 cd        1 TBE      0.229200
     14 C19        -5.2550    2.1500   -0.7150 cc        1 TBE     -0.232600
     15 C9         -3.5080    4.1310    3.9510 c         1 TBE      0.909600
     16 O10        -2.8960    3.3460    4.6980 o         1 TBE     -0.811300
     17 O11        -4.3190    5.0480    4.3050 o         1 TBE     -0.811300
     18 C6          0.0030    5.1610    1.1570 ce        1 TBE     -0.452200
     19 C7          0.2080    6.5580    1.4530 c         1 TBE      0.587100
     20 O8          1.2430    7.1740    1.1520 o         1 TBE     -0.609100
     21 H3         -3.0730    2.9540    2.1400 h1        1 TBE      0.077700
     22 HN4        -2.3320    5.8300    2.3200 hn        1 TBE      0.453800
     23 H5         -1.1320    3.3590    1.1550 h4        1 TBE      0.143000
     24 H201       -6.7070    3.4620    1.7790 hc        1 TBE      0.051700
     25 H202       -5.3590    2.2580    1.9260 hc        1 TBE      0.051700
     26 H203       -5.7890    3.2820    3.3480 hc        1 TBE      0.051700
     27 H141       -5.7030    4.7020   -0.1300 h1        1 TBE      0.093200
     28 H142       -3.9420    5.2030   -0.0700 h1        1 TBE      0.093200
     29 H18        -4.7560    0.1880   -1.7390 h4        1 TBE      0.044100
     30 H19        -6.3110    2.2220   -0.4710 h4        1 TBE      0.187000
     31 H6          0.8430    4.6410    0.6730 ha        1 TBE      0.139000
     32 H7         -0.6150    7.0940    1.9840 h4        1 TBE     -0.020800
     33 HS1        -6.0800    5.6280    3.2840 hs        1 TBE      0.019800
@<TRIPOS>BOND
     1    1    2 2   
     2    1    3 2   
     3    1    4 1   
     4    1   33 1   
     5    4    5 1   
     6    4    8 1   
     7    4    9 1   
     8    5    6 1   
     9    5   15 1   
    10    5   21 1   
    11    6    7 1   
    12    6   22 1   
    13    7   18 2   
    14    7   23 1   
    15    8   24 1   
    16    8   25 1   
    17    8   26 1   
    18    9   10 1   
    19    9   27 1   
    20    9   28 1   
    21   10   11 1   
    22   10   14 1   
    23   11   12 2   
    24   12   13 1   
    25   13   14 2   
    26   13   29 1   
    27   14   30 1   
    28   15   16 1   
    29   15   17 1   
    30   18   19 1   
    31   18   31 1   
    32   19   20 2   
    33   19   32 1   
@<TRIPOS>SUBSTRUCTURE
     1 TBE         1 TEMP              0 ****  ****    0 ROOT
