@<TRIPOS>MOLECULE
TBE
   33    28     1     0     0
SMALL
bcc


@<TRIPOS>ATOM
      1 S1          1.9010    0.8310   -0.2810 ss        1 TBE      2.801000
      2 O12         2.4540    0.7780   -1.6310 o         1 TBE     -0.973500
      3 O13         2.4290   -0.3910    0.2850 o         1 TBE     -0.973500
      4 C2          0.1110    0.8130   -0.3130 c2        1 TBE     -0.674000
      5 C3         -0.4140    0.7900    1.0910 c3        1 TBE     -0.056000
      6 N4         -0.3720   -0.5430    1.5930 n3        1 TBE     -0.302000
      7 C5         -1.5310   -1.1220    2.1530 c2        1 TBE      0.097000
      8 C20        -0.3970    2.0570   -1.0200 c3        1 TBE     -0.197000
      9 C14        -0.3620   -0.4160   -1.0530 c3        1 TBE      0.034000
     10 N15         0.0440   -0.3300   -2.4190 n3        1 TBE     -0.160000
     11 N16         0.6340    0.7610   -3.0160 n2        1 TBE     -0.023000
     12 N17         0.7390    0.5080   -4.3450 n2        1 TBE     -0.114000
     13 C18         0.2250   -0.7170   -4.5790 c1        1 TBE     -0.263000
     14 C19        -0.2080   -1.2370   -3.3720 c1        1 TBE     -0.098000
     15 C9          0.4500    1.6870    1.9670 c2        1 TBE      0.334000
     16 O10         0.0270    2.8110    2.3240 o         1 TBE     -0.543000
     17 O11         1.5840    1.2990    2.3350 o         1 TBE     -0.543000
     18 C6         -1.4370   -1.8710    3.2820 c1        1 TBE     -0.427000
     19 C7         -0.1030   -2.0800    3.9320 c1        1 TBE      0.235000
     20 O8          0.2320   -1.3800    4.8610 o         1 TBE     -0.362000
     21 H3         -1.3630    1.1230    1.1010 h1        1 TBE      0.113000
     22 HN4         0.4280   -1.0210    1.5800 hn        1 TBE      0.253000
     23 H5         -2.3910   -0.9850    1.7320 h4        1 TBE      0.131000
     24 H201       -0.3500    2.8250   -0.4050 hc        1 TBE      0.095000
     25 H202        0.1550    2.2340   -1.8030 hc        1 TBE      0.095000
     26 H203       -1.3290    1.9180   -1.3000 hc        1 TBE      0.095000
     27 H141       -1.3680   -0.4740   -1.0030 h1        1 TBE      0.116500
     28 H142        0.0380   -1.2280   -0.6370 h1        1 TBE      0.116500
     29 H18         0.1680   -1.1660   -5.4600 DU        1 TBE     -0.006333
     30 H19        -0.5350   -2.1570   -3.2240 DU        1 TBE     -0.006333
     31 H6         -2.2330   -2.2700    3.6690 ha        1 TBE      0.138000
     32 H7          0.4780   -2.8340    3.6420 ha        1 TBE      0.076000
     33 HS1         2.2950    1.7890    0.3130 DU        1 TBE     -0.006333
@<TRIPOS>BOND
     1    1    2 1   
     2    1    3 1   
     3    4    5 1   
     4    4    8 1   
     5    4    9 1   
     6    5    6 1   
     7    5   15 1   
     8    5   21 1   
     9    6    7 1   
    10    6   22 1   
    11    7   18 1   
    12    7   23 1   
    13    8   24 1   
    14    8   25 1   
    15    8   26 1   
    16    9   10 1   
    17    9   27 1   
    18    9   28 1   
    19   10   11 1   
    20   10   14 1   
    21   11   12 1   
    22   12   13 1   
    23   13   14 1   
    24   15   16 1   
    25   15   17 1   
    26   18   31 1   
    27   19   20 1   
    28   19   32 1   
@<TRIPOS>SUBSTRUCTURE
     1 TBE         1 TEMP              0 ****  ****    0 ROOT
