@<TRIPOS>MOLECULE
TBE
   34    34     1     0     0
SMALL
bcc


@<TRIPOS>ATOM
      1 S1          2.0000    0.3490   -0.1720 s6        1 TBE      1.312000
      2 O12         2.5960   -0.3330    0.8980 o         1 TBE     -0.668800
      3 O13         2.3000   -0.1930   -1.4400 o         1 TBE     -0.668800
      4 C2          0.2240    0.1370    0.0090 c3        1 TBE     -0.219200
      5 C3         -0.2030    0.0920    1.4770 c3        1 TBE     -0.017500
      6 N4          0.2660   -1.1360    2.2090 ny        1 TBE     -0.649800
      7 C5         -0.4920   -1.3150    3.4390 c2        1 TBE      0.004000
      8 C20        -0.4640    1.3370   -0.6230 c3        1 TBE     -0.090100
      9 C14        -0.1540   -1.1310   -0.7780 c3        1 TBE      0.056300
     10 N15        -1.5190   -1.5850   -0.6320 na        1 TBE      0.052400
     11 N16        -2.0190   -2.2310    0.4520 nc        1 TBE     -0.224800
     12 N17        -3.2470   -2.5050    0.2670 nd        1 TBE     -0.346000
     13 C18        -3.6570   -2.0350   -0.9970 cd        1 TBE      0.254200
     14 C19        -2.5350   -1.4290   -1.5890 cc        1 TBE     -0.206600
     15 C9          0.3940    1.3550    2.2590 c         1 TBE      0.933600
     16 O10        -0.2040    1.6930    3.2940 o         1 TBE     -0.769300
     17 O11         1.4400    1.8120    1.7310 o         1 TBE     -0.769300
     18 C6         -1.0170   -2.4840    3.8390 ce        1 TBE     -0.237200
     19 C7         -0.9440   -3.7620    3.1110 c         1 TBE      0.571100
     20 O8         -0.1070   -3.9850    2.2300 o         1 TBE     -0.534100
     21 H3         -1.3250    0.1440    1.5560 hx        1 TBE      0.112700
     22 HN4         1.2680   -0.9890    2.4490 hn        1 TBE      0.474800
     23 H5         -0.6080   -0.3560    4.0040 hx        1 TBE      0.237000
     24 H201       -0.1290    1.4500   -1.6840 hc        1 TBE      0.065033
     25 H202       -0.2130    2.2690   -0.0540 hc        1 TBE      0.065033
     26 H203       -1.5740    1.2150   -0.6150 hc        1 TBE      0.065033
     27 H141        0.0150   -0.9230   -1.8780 h1        1 TBE      0.094200
     28 H142        0.5400   -1.9750   -0.4890 h1        1 TBE      0.094200
     29 H18        -4.6720   -2.1640   -1.3650 h4        1 TBE      0.064100
     30 H19        -2.3800   -0.9400   -2.5490 h4        1 TBE      0.199000
     31 H6         -1.5750   -2.5090    4.7930 ha        1 TBE      0.176000
     32 H7         -1.6970   -4.5230    3.4120 h4        1 TBE      0.035200
     33 HS1         2.1460    1.5490   -0.2700 hs        1 TBE      0.060800
     34 H42         0.2100   -1.9750    1.6160 hn        1 TBE      0.474800
@<TRIPOS>BOND
     1    1    2 2   
     2    1    3 2   
     3    1    4 1   
     4    1   33 1   
     5    4    5 1   
     6    4    8 1   
     7    4    9 1   
     8    5    6 1   
     9    5   15 1   
    10    5   21 1   
    11    6    7 1   
    12    6   22 1   
    13    6   34 1   
    14    7   18 2   
    15    7   23 1   
    16    8   24 1   
    17    8   25 1   
    18    8   26 1   
    19    9   10 1   
    20    9   27 1   
    21    9   28 1   
    22   10   11 1   
    23   10   14 1   
    24   11   12 2   
    25   12   13 1   
    26   13   14 2   
    27   13   29 1   
    28   14   30 1   
    29   15   16 1   
    30   15   17 1   
    31   18   19 1   
    32   18   31 1   
    33   19   20 2   
    34   19   32 1   
@<TRIPOS>SUBSTRUCTURE
     1 TBE         1 TEMP              0 ****  ****    0 ROOT
