@<TRIPOS>MOLECULE
TBF
   17    16     1     0     0
SMALL
bcc


@<TRIPOS>ATOM
      1 C           0.0050    0.0010   -0.0210 c         1 TBF      0.621900
      2 O1          1.2220    0.0000    0.1490 o         1 TBF     -0.495000
      3 O          -0.7080   -0.0010    1.1470 os        1 TBF     -0.427900
      4 C'         -2.1510   -0.0000    1.0420 c3        1 TBF      0.153800
      5 C1         -2.6290   -1.2540    0.3270 c3        1 TBF     -0.112433
      6 C2         -2.6230   -0.0020    2.4940 c3        1 TBF     -0.112433
      7 C3         -2.6280    1.2570    0.3310 c3        1 TBF     -0.112433
      8 H          -0.5370    0.0030   -0.9820 h5        1 TBF      0.037200
      9 H11        -2.3500   -1.2290   -0.7530 hc        1 TBF      0.049922
     10 H12        -2.1700   -2.1580    0.7940 hc        1 TBF      0.049922
     11 H13        -3.7390   -1.3300    0.4060 hc        1 TBF      0.049922
     12 H21        -2.2380    0.9030    3.0210 hc        1 TBF      0.049922
     13 H22        -3.7370   -0.0020    2.5200 hc        1 TBF      0.049922
     14 H23        -2.2390   -0.9090    3.0180 hc        1 TBF      0.049922
     15 H31        -2.3500    1.2350   -0.7500 hc        1 TBF      0.049922
     16 H32        -3.7390    1.3320    0.4100 hc        1 TBF      0.049922
     17 H33        -2.1680    2.1590    0.8010 hc        1 TBF      0.049922
@<TRIPOS>BOND
     1    1    2 2   
     2    1    3 1   
     3    1    8 1   
     4    3    4 1   
     5    4    5 1   
     6    4    6 1   
     7    4    7 1   
     8    5    9 1   
     9    5   10 1   
    10    5   11 1   
    11    6   12 1   
    12    6   13 1   
    13    6   14 1   
    14    7   15 1   
    15    7   16 1   
    16    7   17 1   
@<TRIPOS>SUBSTRUCTURE
     1 TBF         1 TEMP              0 ****  ****    0 ROOT
