@<TRIPOS>MOLECULE
TBF
   17    16     1     0     0
SMALL
bcc


@<TRIPOS>ATOM
      1 C           0.0040   -0.0050   -0.0230 c         1 TBF      0.621900
      2 O1          1.2210   -0.0000    0.1450 o         1 TBF     -0.495000
      3 O          -0.7080    0.0060    1.1450 os        1 TBF     -0.427900
      4 C'         -2.1510    0.0030    1.0430 c3        1 TBF      0.153800
      5 C1         -2.6260   -1.2610    0.3420 c3        1 TBF     -0.112433
      6 C2         -2.6210    0.0160    2.4940 c3        1 TBF     -0.112433
      7 C3         -2.6310    1.2500    0.3170 c3        1 TBF     -0.112433
      8 H          -0.5390   -0.0160   -0.9840 h5        1 TBF      0.037200
      9 H11        -2.3510   -1.2470   -0.7390 hc        1 TBF      0.049922
     10 H12        -2.1640   -2.1590    0.8180 hc        1 TBF      0.049922
     11 H13        -3.7370   -1.3390    0.4250 hc        1 TBF      0.049922
     12 H21        -2.2370    0.9280    3.0100 hc        1 TBF      0.049922
     13 H22        -3.7360    0.0150    2.5220 hc        1 TBF      0.049922
     14 H23        -2.2350   -0.8840    3.0280 hc        1 TBF      0.049922
     15 H31        -2.3530    1.2160   -0.7630 hc        1 TBF      0.049922
     16 H32        -3.7420    1.3230    0.3960 hc        1 TBF      0.049922
     17 H33        -2.1740    2.1590    0.7770 hc        1 TBF      0.049922
@<TRIPOS>BOND
     1    1    2 2   
     2    1    3 1   
     3    1    8 1   
     4    3    4 1   
     5    4    5 1   
     6    4    6 1   
     7    4    7 1   
     8    5    9 1   
     9    5   10 1   
    10    5   11 1   
    11    6   12 1   
    12    6   13 1   
    13    6   14 1   
    14    7   15 1   
    15    7   16 1   
    16    7   17 1   
@<TRIPOS>SUBSTRUCTURE
     1 TBF         1 TEMP              0 ****  ****    0 ROOT
