@<TRIPOS>MOLECULE
TBF
   17    16     1     0     0
SMALL
bcc


@<TRIPOS>ATOM
      1 C          -1.5410   -0.1900    0.0000 c         1 TBF      0.621900
      2 O1         -2.6000    0.4340    0.0020 o         1 TBF     -0.495000
      3 O          -0.4340    0.6140    0.0010 os        1 TBF     -0.427900
      4 C'          0.8580   -0.0370   -0.0000 c3        1 TBF      0.153800
      5 C1          1.0240   -0.8770   -1.2570 c3        1 TBF     -0.112433
      6 C2          1.8510    1.1210    0.0020 c3        1 TBF     -0.112433
      7 C3          1.0240   -0.8810    1.2540 c3        1 TBF     -0.112433
      8 H          -1.4100   -1.2860   -0.0020 h5        1 TBF      0.037200
      9 H11         0.7800   -0.2670   -2.1590 hc        1 TBF      0.049922
     10 H12         2.0800   -1.2300   -1.3330 hc        1 TBF      0.049922
     11 H13         0.3520   -1.7680   -1.2350 hc        1 TBF      0.049922
     12 H21         1.6980    1.7530    0.9090 hc        1 TBF      0.049922
     13 H22         2.8900    0.7180    0.0010 hc        1 TBF      0.049922
     14 H23         1.6980    1.7560   -0.9030 hc        1 TBF      0.049922
     15 H31         0.3530   -1.7720    1.2290 hc        1 TBF      0.049922
     16 H32         2.0800   -1.2350    1.3290 hc        1 TBF      0.049922
     17 H33         0.7810   -0.2740    2.1580 hc        1 TBF      0.049922
@<TRIPOS>BOND
     1    1    2 2   
     2    1    3 1   
     3    1    8 1   
     4    3    4 1   
     5    4    5 1   
     6    4    6 1   
     7    4    7 1   
     8    5    9 1   
     9    5   10 1   
    10    5   11 1   
    11    6   12 1   
    12    6   13 1   
    13    6   14 1   
    14    7   15 1   
    15    7   16 1   
    16    7   17 1   
@<TRIPOS>SUBSTRUCTURE
     1 TBF         1 TEMP              0 ****  ****    0 ROOT
