@<TRIPOS>MOLECULE
TBG
   21    20     1     0     0
SMALL
bcc


@<TRIPOS>ATOM
      1 N          -0.1920    1.9040    0.6310 n3        1 TBG     -0.891800
      2 CA         -0.0170    0.4550    0.6340 c3        1 TBG      0.031500
      3 CB         -1.1630   -0.2860   -0.1010 c3        1 TBG     -0.031000
      4 CG1        -1.1910    0.0900   -1.5740 c3        1 TBG     -0.082433
      5 CG2        -0.9300   -1.7850    0.0350 c3        1 TBG     -0.082433
      6 CG3        -2.5030    0.0540    0.5360 c3        1 TBG     -0.082433
      7 C           1.3720    0.0190    0.0570 c         1 TBG      0.884600
      8 O           1.8600    0.7010   -0.8910 o         1 TBG     -0.845300
      9 OXT         1.9480   -0.9700    0.5890 o         1 TBG     -0.845300
     10 H           0.6310    2.3050    1.0480 hn        1 TBG      0.329800
     11 H2         -0.2010    2.2140   -0.3270 hn        1 TBG      0.329800
     12 HA         -0.0480    0.1240    1.7130 h1        1 TBG      0.042700
     13 HG11       -0.1490    0.0810   -1.9840 hc        1 TBG      0.026922
     14 HG12       -1.8190   -0.6330   -2.1490 hc        1 TBG      0.026922
     15 HG13       -1.6200    1.1110   -1.7150 hc        1 TBG      0.026922
     16 HG21       -0.9350   -2.0790    1.1110 hc        1 TBG      0.026922
     17 HG22       -1.7320   -2.3520   -0.4960 hc        1 TBG      0.026922
     18 HG23        0.0650   -2.0600   -0.3950 hc        1 TBG      0.026922
     19 HG31       -2.7500    1.1330    0.3950 hc        1 TBG      0.026922
     20 HG32       -3.3160   -0.5570    0.0720 hc        1 TBG      0.026922
     21 HG33       -2.4750   -0.1620    1.6310 hc        1 TBG      0.026922
@<TRIPOS>BOND
     1    1    2 1   
     2    1   10 1   
     3    1   11 1   
     4    2    3 1   
     5    2    7 1   
     6    2   12 1   
     7    3    4 1   
     8    3    5 1   
     9    3    6 1   
    10    4   13 1   
    11    4   14 1   
    12    4   15 1   
    13    5   16 1   
    14    5   17 1   
    15    5   18 1   
    16    6   19 1   
    17    6   20 1   
    18    6   21 1   
    19    7    8 1   
    20    7    9 1   
@<TRIPOS>SUBSTRUCTURE
     1 TBG         1 TEMP              0 ****  ****    0 ROOT
