@<TRIPOS>MOLECULE
TBH
   88    89     1     0     0
SMALL
bcc


@<TRIPOS>ATOM
      1 O43        -2.3050    0.6790    1.2580 o         1 TBH     -0.837800
      2 C27        -2.7500   -0.5060    1.3990 c         1 TBH      0.937200
      3 O42        -3.6910   -0.8080    2.1740 o         1 TBH     -0.837800
      4 C6         -1.9840   -1.5910    0.6620 ca        1 TBH     -0.141600
      5 C5         -0.7650   -1.9540    1.2230 ca        1 TBH     -0.108000
      6 C1         -2.3740   -2.1890   -0.5620 ca        1 TBH      0.174100
      7 O9         -3.5430   -1.7520   -1.1320 os        1 TBH     -0.263900
      8 C23        -3.8330   -2.2880   -2.4280 c3        1 TBH     -0.005600
      9 C24        -5.0390   -1.5370   -3.0460 c         1 TBH      0.928600
     10 O25        -6.0400   -2.2450   -3.3500 o         1 TBH     -0.836800
     11 O26        -4.9250   -0.3090   -3.3050 o         1 TBH     -0.836800
     12 C2         -1.5480   -3.1690   -1.1430 ca        1 TBH     -0.241000
     13 C3         -0.3160   -3.4860   -0.5740 ca        1 TBH     -0.112000
     14 C4          0.1050   -2.8600    0.5980 ca        1 TBH     -0.184300
     15 C7          1.4660   -3.0850    1.1480 c3        1 TBH     -0.023100
     16 C8          2.1700   -1.7680    1.5350 c3        1 TBH      0.152500
     17 C11         3.6930   -2.0250    1.8310 c3        1 TBH      0.367300
     18 N13         4.5060   -2.3330    0.6590 n3        1 TBH     -0.854200
     19 C15         5.4680   -1.2990    0.3330 c3        1 TBH      0.172800
     20 C16         6.1540   -1.5230   -1.0140 c3        1 TBH     -0.085400
     21 C17         7.1870   -0.4440   -1.2570 c3        1 TBH     -0.078400
     22 C18         7.8760   -0.6340   -2.5910 c3        1 TBH     -0.080400
     23 C19         8.9080    0.4360   -2.8400 c3        1 TBH     -0.090100
     24 O14         3.8090   -3.0580    2.8060 oh        1 TBH     -0.611800
     25 N10         2.0320   -0.7180    0.5420 n3        1 TBH     -0.882200
     26 C12         1.9250    0.6390    1.0610 c3        1 TBH      0.325300
     27 O20         3.1640    1.3320    0.8830 oh        1 TBH     -0.627800
     28 C21         0.7470    1.4760    0.4240 c3        1 TBH      0.144500
     29 N22         0.5370    2.7290    1.1200 n3        1 TBH     -0.847200
     30 C35        -0.1630    2.6090    2.3920 c3        1 TBH      0.541100
     31 O36         0.6900    2.3070    3.4920 oh        1 TBH     -0.647800
     32 O37        -0.6670    3.8810    2.7910 os        1 TBH     -0.480600
     33 C38        -2.0630    4.1110    2.5090 c3        1 TBH      0.178800
     34 C40        -2.9350    3.1400    3.2940 c3        1 TBH     -0.117433
     35 C39        -2.2960    5.5440    2.9880 c3        1 TBH     -0.117433
     36 C41        -2.3480    3.9960    1.0200 c3        1 TBH     -0.117433
     37 C28         1.0300    1.7020   -1.0690 c3        1 TBH     -0.021100
     38 C29        -0.1520    2.0660   -1.8990 ca        1 TBH     -0.079300
     39 C30         0.0140    3.0170   -2.9170 ca        1 TBH     -0.135000
     40 C31        -1.0280    3.2980   -3.7960 ca        1 TBH     -0.132500
     41 C32        -2.2430    2.6220   -3.6790 ca        1 TBH     -0.145000
     42 C33        -2.4240    1.6850   -2.6620 ca        1 TBH     -0.132500
     43 C34        -1.3880    1.4240   -1.7610 ca        1 TBH     -0.135000
     44 H51        -0.4680   -1.4820    2.1730 ha        1 TBH      0.128000
     45 H231       -2.9500   -2.1480   -3.1050 h1        1 TBH      0.015700
     46 H232       -4.0700   -3.3780   -2.3250 h1        1 TBH      0.015700
     47 H21        -1.8560   -3.6840   -2.0620 ha        1 TBH      0.127000
     48 H31         0.3310   -4.2240   -1.0680 ha        1 TBH      0.098000
     49 H71         2.0880   -3.6490    0.4050 hc        1 TBH      0.034200
     50 H72         1.3990   -3.7130    2.0770 hc        1 TBH      0.034200
     51 H81         1.7350   -1.4500    2.5330 h1        1 TBH      0.054700
     52 H111        4.0990   -1.1170    2.3760 h2        1 TBH      0.078700
     53 H131        3.9250   -2.5350   -0.1330 hn        1 TBH      0.371800
     54 H151        6.2500   -1.3020    1.1460 h1        1 TBH      0.037200
     55 H152        4.9960   -0.2700    0.3250 h1        1 TBH      0.037200
     56 H161        5.3930   -1.5080   -1.8380 hc        1 TBH      0.042700
     57 H162        6.6480   -2.5300   -1.0320 hc        1 TBH      0.042700
     58 H171        7.9500   -0.4600   -0.4340 hc        1 TBH      0.040200
     59 H172        6.6930    0.5630   -1.2300 hc        1 TBH      0.040200
     60 H181        7.1110   -0.6170   -3.4120 hc        1 TBH      0.037700
     61 H182        8.3660   -1.6440   -2.6190 hc        1 TBH      0.037700
     62 H191        8.4330    1.4470   -2.8400 hc        1 TBH      0.027033
     63 H192        9.6920    0.4190   -2.0450 hc        1 TBH      0.027033
     64 H193        9.4030    0.2780   -3.8280 hc        1 TBH      0.027033
     65 H141        3.5640   -3.8960    2.3960 ho        1 TBH      0.398000
     66 H101        1.2840   -0.9200   -0.0960 hn        1 TBH      0.406800
     67 H121        1.7990    0.6530    2.1920 h2        1 TBH      0.090700
     68 H201        3.3570    1.3660   -0.0610 ho        1 TBH      0.392000
     69 H211       -0.2100    0.8650    0.5340 h1        1 TBH      0.144700
     70 H221        1.3820    3.2580    1.1960 hn        1 TBH      0.355800
     71 H351       -0.9570    1.7980    2.3540 h3        1 TBH      0.180700
     72 H361        1.1180    3.1200    3.7840 ho        1 TBH      0.396000
     73 H401       -2.5230    3.0000    4.3210 hc        1 TBH      0.047478
     74 H402       -3.9720    3.5450    3.3680 hc        1 TBH      0.047478
     75 H403       -2.9820    2.1410    2.7760 hc        1 TBH      0.047478
     76 H391       -1.6140    6.2430    2.4500 hc        1 TBH      0.047478
     77 H392       -3.3530    5.8330    2.7850 hc        1 TBH      0.047478
     78 H393       -2.0970    5.6200    4.0830 hc        1 TBH      0.047478
     79 H411       -2.2560    2.9260    0.6910 hc        1 TBH      0.047478
     80 H412       -3.3860    4.3450    0.8100 hc        1 TBH      0.047478
     81 H413       -1.6240    4.6150    0.4400 hc        1 TBH      0.047478
     82 H281        1.8240    2.4920   -1.1810 hc        1 TBH      0.030700
     83 H282        1.4530    0.7550   -1.5040 hc        1 TBH      0.030700
     84 H301        0.9720    3.5440   -3.0220 ha        1 TBH      0.142500
     85 H311       -0.8890    4.0480   -4.5860 ha        1 TBH      0.154000
     86 H321       -3.0600    2.8220   -4.3860 ha        1 TBH      0.121000
     87 H331       -3.3800    1.1220   -2.5800 ha        1 TBH      0.154000
     88 H341       -1.5810    0.7200   -0.9270 ha        1 TBH      0.142500
@<TRIPOS>BOND
     1    1    2 1   
     2    2    3 1   
     3    2    4 1   
     4    4    5 ar  
     5    4    6 ar  
     6    5   14 ar  
     7    5   44 1   
     8    6    7 1   
     9    6   12 ar  
    10    7    8 1   
    11    8    9 1   
    12    8   45 1   
    13    8   46 1   
    14    9   10 1   
    15    9   11 1   
    16   12   13 ar  
    17   12   47 1   
    18   13   14 ar  
    19   13   48 1   
    20   14   15 1   
    21   15   16 1   
    22   15   49 1   
    23   15   50 1   
    24   16   17 1   
    25   16   25 1   
    26   16   51 1   
    27   17   18 1   
    28   17   24 1   
    29   17   52 1   
    30   18   19 1   
    31   18   53 1   
    32   19   20 1   
    33   19   54 1   
    34   19   55 1   
    35   20   21 1   
    36   20   56 1   
    37   20   57 1   
    38   21   22 1   
    39   21   58 1   
    40   21   59 1   
    41   22   23 1   
    42   22   60 1   
    43   22   61 1   
    44   23   62 1   
    45   23   63 1   
    46   23   64 1   
    47   24   65 1   
    48   25   26 1   
    49   25   66 1   
    50   26   27 1   
    51   26   28 1   
    52   26   67 1   
    53   27   68 1   
    54   28   29 1   
    55   28   37 1   
    56   28   69 1   
    57   29   30 1   
    58   29   70 1   
    59   30   31 1   
    60   30   32 1   
    61   30   71 1   
    62   31   72 1   
    63   32   33 1   
    64   33   34 1   
    65   33   35 1   
    66   33   36 1   
    67   34   73 1   
    68   34   74 1   
    69   34   75 1   
    70   35   76 1   
    71   35   77 1   
    72   35   78 1   
    73   36   79 1   
    74   36   80 1   
    75   36   81 1   
    76   37   38 1   
    77   37   82 1   
    78   37   83 1   
    79   38   39 ar  
    80   38   43 ar  
    81   39   40 ar  
    82   39   84 1   
    83   40   41 ar  
    84   40   85 1   
    85   41   42 ar  
    86   41   86 1   
    87   42   43 ar  
    88   42   87 1   
    89   43   88 1   
@<TRIPOS>SUBSTRUCTURE
     1 TBH         1 TEMP              0 ****  ****    0 ROOT
