@<TRIPOS>MOLECULE
TBH
   88    89     1     0     0
SMALL
bcc


@<TRIPOS>ATOM
      1 O43         1.6080    1.7530   -0.5240 o         1 TBH     -0.839300
      2 C27         2.2770    2.1220   -1.5210 c         1 TBH      0.937200
      3 O42         2.2340    3.3010   -2.0000 o         1 TBH     -0.839300
      4 C6          3.3000    1.1910   -2.1480 ca        1 TBH     -0.141600
      5 C5          4.6210    1.4130   -1.7780 ca        1 TBH     -0.110000
      6 C1          3.0240    0.1960   -3.1180 ca        1 TBH      0.171100
      7 O9          1.7200    0.0530   -3.5200 os        1 TBH     -0.265900
      8 C23         1.5060   -0.8720   -4.5930 c3        1 TBH     -0.004600
      9 C24         0.0450   -0.7580   -5.0980 c         1 TBH      0.928600
     10 O25        -0.6500   -1.8110   -5.0350 o         1 TBH     -0.837300
     11 O26        -0.3340    0.3190   -5.6300 o         1 TBH     -0.837300
     12 C2          4.0830   -0.5710   -3.6370 ca        1 TBH     -0.241000
     13 C3          5.4010   -0.2980   -3.2740 ca        1 TBH     -0.116000
     14 C4          5.6900    0.7180   -2.3640 ca        1 TBH     -0.180300
     15 C7          7.0910    1.1160   -2.0710 c3        1 TBH     -0.016100
     16 C8          7.2850    2.6440   -2.1150 c3        1 TBH      0.180500
     17 C11         8.8090    3.0250   -2.0590 c3        1 TBH      0.370300
     18 N13         9.5780    3.0610   -3.2960 n3        1 TBH     -0.860200
     19 C15         9.9160    1.8000   -3.9140 c3        1 TBH      0.167800
     20 C16         9.0670    1.3760   -5.1140 c3        1 TBH     -0.114400
     21 C17         9.5040    0.0190   -5.6180 c3        1 TBH     -0.072400
     22 C18         8.6770   -0.4160   -6.8090 c3        1 TBH     -0.084400
     23 C19         9.1090   -1.7660   -7.3210 c3        1 TBH     -0.089100
     24 O14         9.3840    2.1350   -1.1000 oh        1 TBH     -0.606800
     25 N10         6.6560    3.2820   -3.2580 n3        1 TBH     -0.888200
     26 C12         6.1150    4.6130   -3.0300 c3        1 TBH      0.325300
     27 O20         6.9860    5.5980   -3.5960 oh        1 TBH     -0.627800
     28 C21         4.6480    4.8120   -3.5810 c3        1 TBH      0.144500
     29 N22         4.0690    6.0630   -3.1370 n3        1 TBH     -0.846200
     30 C35         3.6120    6.0650   -1.7540 c3        1 TBH      0.541100
     31 O36         4.6340    6.3760   -0.8100 oh        1 TBH     -0.647800
     32 O37         2.7160    7.1520   -1.5390 os        1 TBH     -0.480600
     33 C38         1.3140    6.8160   -1.5760 c3        1 TBH      0.178800
     34 C40         0.9630    5.8590   -0.4440 c3        1 TBH     -0.117433
     35 C39         0.6160    8.1610   -1.3710 c3        1 TBH     -0.117433
     36 C41         0.9280    6.2160   -2.9180 c3        1 TBH     -0.117433
     37 C28         4.6610    4.7100   -5.1140 c3        1 TBH     -0.020100
     38 C29         3.3450    4.4220   -5.7480 ca        1 TBH     -0.079300
     39 C30         3.0320    5.0620   -6.9570 ca        1 TBH     -0.135000
     40 C31         1.8690    4.7340   -7.6490 ca        1 TBH     -0.132500
     41 C32         1.0130    3.7520   -7.1500 ca        1 TBH     -0.145000
     42 C33         1.3060    3.1190   -5.9430 ca        1 TBH     -0.132500
     43 C34         2.4580    3.4700   -5.2330 ca        1 TBH     -0.135000
     44 H51         4.8270    2.1880   -1.0220 ha        1 TBH      0.127000
     45 H231        2.1910   -0.6300   -5.4470 h1        1 TBH      0.015200
     46 H232        1.7050   -1.9100   -4.2210 h1        1 TBH      0.015200
     47 H21         3.8870   -1.3840   -4.3490 ha        1 TBH      0.126000
     48 H31         6.2160   -0.8800   -3.7270 ha        1 TBH      0.098000
     49 H71         7.3880    0.7750   -1.0430 hc        1 TBH      0.044200
     50 H72         7.7930    0.6270   -2.7970 hc        1 TBH      0.044200
     51 H81         6.8600    3.0490   -1.1430 h1        1 TBH      0.046700
     52 H111        8.8690    4.0840   -1.6540 h2        1 TBH      0.043700
     53 H131        9.1170    3.6730   -3.9460 hn        1 TBH      0.390800
     54 H151       10.9850    1.8990   -4.2660 h1        1 TBH      0.036200
     55 H152        9.8940    0.9810   -3.1400 h1        1 TBH      0.036200
     56 H161        7.9820    1.3410   -4.8260 hc        1 TBH      0.054700
     57 H162        9.1670    2.1340   -5.9350 hc        1 TBH      0.054700
     58 H171        9.4000   -0.7370   -4.7950 hc        1 TBH      0.031200
     59 H172       10.5890    0.0510   -5.9030 hc        1 TBH      0.031200
     60 H181        8.7700    0.3450   -7.6270 hc        1 TBH      0.047700
     61 H182        7.5940   -0.4530   -6.5140 hc        1 TBH      0.047700
     62 H191        8.4840   -2.0670   -8.1960 hc        1 TBH      0.025700
     63 H192       10.1780   -1.7450   -7.6410 hc        1 TBH      0.025700
     64 H193        8.9970   -2.5420   -6.5250 hc        1 TBH      0.025700
     65 H141       10.2990    2.4100   -0.9690 ho        1 TBH      0.394000
     66 H101        5.9760    2.6770   -3.6800 hn        1 TBH      0.408800
     67 H121        6.1200    4.8910   -1.9270 h2        1 TBH      0.089700
     68 H201        7.0540    5.4310   -4.5430 ho        1 TBH      0.391000
     69 H211        4.0040    3.9720   -3.1560 h1        1 TBH      0.145700
     70 H221        4.6610    6.8410   -3.3460 hn        1 TBH      0.355800
     71 H351        3.1810    5.0560   -1.4570 h3        1 TBH      0.180700
     72 H361        4.7550    7.3320   -0.7910 ho        1 TBH      0.396000
     73 H401       -0.1350    5.8970   -0.2480 hc        1 TBH      0.047589
     74 H402        1.5100    6.1460    0.4850 hc        1 TBH      0.047589
     75 H403        1.2340    4.8010   -0.7200 hc        1 TBH      0.047589
     76 H391        0.8930    8.5910   -0.3800 hc        1 TBH      0.047589
     77 H392        0.9220    8.8760   -2.1700 hc        1 TBH      0.047589
     78 H393       -0.4880    8.0130   -1.4130 hc        1 TBH      0.047589
     79 H411        1.2970    6.8610   -3.7490 hc        1 TBH      0.047589
     80 H412       -0.1810    6.1270   -2.9830 hc        1 TBH      0.047589
     81 H413        1.3760    5.1920   -3.0260 hc        1 TBH      0.047589
     82 H281        5.0880    5.6570   -5.5460 hc        1 TBH      0.030700
     83 H282        5.3550    3.8770   -5.4140 hc        1 TBH      0.030700
     84 H301        3.7090    5.8280   -7.3610 ha        1 TBH      0.143000
     85 H311        1.6320    5.2450   -8.5920 ha        1 TBH      0.154500
     86 H321        0.1070    3.4720   -7.7060 ha        1 TBH      0.121000
     87 H331        0.6430    2.3160   -5.5540 ha        1 TBH      0.154500
     88 H341        2.6340    2.9930   -4.2470 ha        1 TBH      0.143000
@<TRIPOS>BOND
     1    1    2 1   
     2    2    3 1   
     3    2    4 1   
     4    4    5 ar  
     5    4    6 ar  
     6    5   14 ar  
     7    5   44 1   
     8    6    7 1   
     9    6   12 ar  
    10    7    8 1   
    11    8    9 1   
    12    8   45 1   
    13    8   46 1   
    14    9   10 1   
    15    9   11 1   
    16   12   13 ar  
    17   12   47 1   
    18   13   14 ar  
    19   13   48 1   
    20   14   15 1   
    21   15   16 1   
    22   15   49 1   
    23   15   50 1   
    24   16   17 1   
    25   16   25 1   
    26   16   51 1   
    27   17   18 1   
    28   17   24 1   
    29   17   52 1   
    30   18   19 1   
    31   18   53 1   
    32   19   20 1   
    33   19   54 1   
    34   19   55 1   
    35   20   21 1   
    36   20   56 1   
    37   20   57 1   
    38   21   22 1   
    39   21   58 1   
    40   21   59 1   
    41   22   23 1   
    42   22   60 1   
    43   22   61 1   
    44   23   62 1   
    45   23   63 1   
    46   23   64 1   
    47   24   65 1   
    48   25   26 1   
    49   25   66 1   
    50   26   27 1   
    51   26   28 1   
    52   26   67 1   
    53   27   68 1   
    54   28   29 1   
    55   28   37 1   
    56   28   69 1   
    57   29   30 1   
    58   29   70 1   
    59   30   31 1   
    60   30   32 1   
    61   30   71 1   
    62   31   72 1   
    63   32   33 1   
    64   33   34 1   
    65   33   35 1   
    66   33   36 1   
    67   34   73 1   
    68   34   74 1   
    69   34   75 1   
    70   35   76 1   
    71   35   77 1   
    72   35   78 1   
    73   36   79 1   
    74   36   80 1   
    75   36   81 1   
    76   37   38 1   
    77   37   82 1   
    78   37   83 1   
    79   38   39 ar  
    80   38   43 ar  
    81   39   40 ar  
    82   39   84 1   
    83   40   41 ar  
    84   40   85 1   
    85   41   42 ar  
    86   41   86 1   
    87   42   43 ar  
    88   42   87 1   
    89   43   88 1   
@<TRIPOS>SUBSTRUCTURE
     1 TBH         1 TEMP              0 ****  ****    0 ROOT
