@<TRIPOS>MOLECULE
TBH
   88    84     1     0     0
SMALL
bcc


@<TRIPOS>ATOM
      1 O43        -0.9450   -5.7350    3.7140 o         1 TBH     -0.523000
      2 C27        -1.3880   -4.5480    3.7170 c1        1 TBH      0.384000
      3 O42        -1.2900   -3.8390    4.7630 os        1 TBH     -0.651000
      4 C6         -2.1520   -4.0170    2.5070 c2        1 TBH     -0.120000
      5 C5         -1.4670   -3.4010    1.4730 c1        1 TBH     -0.115000
      6 C1         -3.5470   -4.0980    2.4720 c2        1 TBH      0.114000
      7 O9         -4.2640   -4.6240    3.6080 os        1 TBH     -0.190000
      8 C23        -4.6250   -5.9900    3.4790 c3        1 TBH     -0.084000
      9 C24        -4.9890   -6.5590    4.8620 c2        1 TBH      0.315000
     10 O25        -5.4380   -7.7270    4.9620 o         1 TBH     -0.586500
     11 O26        -4.8600   -5.8440    5.8900 o         1 TBH     -0.586500
     12 C2         -4.2400   -3.5670    1.4130 c1        1 TBH     -0.203000
     13 C3         -3.5470   -2.9410    0.3590 c1        1 TBH     -0.132000
     14 C4         -2.1690   -2.8600    0.3920 c1        1 TBH     -0.164000
     15 C7         -1.3750   -2.3790   -0.9040 c3        1 TBH     -0.112000
     16 C8         -0.6520   -1.0890   -0.6020 c3        1 TBH     -0.060000
     17 C11         0.8430   -1.3630   -0.4950 c3        1 TBH      0.103000
     18 N13         1.0530   -2.7140   -0.0540 n3        1 TBH     -0.343000
     19 C15         2.4570   -2.9220    0.1880 c3        1 TBH     -0.068000
     20 C16         2.6430   -3.8320    1.4640 c3        1 TBH     -0.184000
     21 C17         4.0490   -3.6280    2.0460 c3        1 TBH     -0.167000
     22 C18         4.0350   -3.9520    3.5480 c3        1 TBH     -0.144000
     23 C19         5.3420   -3.3910    4.2190 c3        1 TBH     -0.245000
     24 O14         1.4110   -0.4900    0.4130 oh        1 TBH     -0.366000
     25 N10        -0.8990   -0.1270   -1.6710 n3        1 TBH     -0.336000
     26 C12        -0.2100    1.1390   -1.3650 c3        1 TBH      0.063000
     27 O20         1.1530    0.9720   -1.5100 oh        1 TBH     -0.344000
     28 C21        -0.6830    2.2030   -2.3060 c3        1 TBH     -0.025000
     29 N22         0.1630    3.3350   -2.2080 n3        1 TBH     -0.306000
     30 C35        -0.3420    4.2280   -1.2110 c3        1 TBH      0.214000
     31 O36        -0.8740    3.4830   -0.1340 oh        1 TBH     -0.412000
     32 O37         0.7050    5.0460   -0.7470 os        1 TBH     -0.317000
     33 C38         0.3400    5.9090    0.3190 c3        1 TBH      0.095000
     34 C40         0.0640    5.0680    1.6010 c3        1 TBH     -0.232667
     35 C39         1.4770    6.8880    0.5850 c3        1 TBH     -0.232667
     36 C41        -0.9380    6.6940   -0.0630 c3        1 TBH     -0.232667
     37 C28        -0.6490    1.6530   -3.7500 c3        1 TBH     -0.100000
     38 C29        -0.0920    2.7270   -4.7010 c2        1 TBH     -0.067000
     39 C30         1.2750    2.7310   -5.0300 c2        1 TBH     -0.147000
     40 C31         1.7520    3.6050   -5.9900 c1        1 TBH     -0.155000
     41 C32         0.8800    4.4780   -6.6300 c1        1 TBH     -0.125000
     42 C33        -0.4710    4.4750   -6.3050 c1        1 TBH     -0.125000
     43 C34        -0.9530    3.5920   -5.3350 c1        1 TBH     -0.126000
     44 H51        -0.4700   -3.3430    1.5000 ha        1 TBH      0.115000
     45 H231       -5.4150   -6.0720    2.8660 h1        1 TBH      0.075500
     46 H232       -3.8820   -6.4830    3.1120 h1        1 TBH      0.075500
     47 H21        -5.2080   -3.6240    1.3900 ha        1 TBH      0.194000
     48 H31        -4.0380   -2.6380   -0.4400 ha        1 TBH      0.104000
     49 H71        -0.7150   -3.0740   -1.1610 hc        1 TBH      0.083500
     50 H72        -2.0050   -2.2380   -1.6430 hc        1 TBH      0.083500
     51 H81        -0.9850   -0.7170    0.2610 h1        1 TBH      0.121000
     52 H111        1.2750   -1.2350   -1.3990 h2        1 TBH      0.116000
     53 H131        0.5950   -2.8550    0.7030 hn        1 TBH      0.171000
     54 H151        2.8560   -3.3580   -0.5810 h1        1 TBH      0.078000
     55 H152        2.8940   -2.0540    0.3350 h1        1 TBH      0.078000
     56 H161        2.5270   -4.7850    1.2090 hc        1 TBH      0.074000
     57 H162        1.9630   -3.5860    2.1460 hc        1 TBH      0.074000
     58 H171        4.3200   -2.7050    1.9180 hc        1 TBH      0.090000
     59 H172        4.6920   -4.2320    1.5830 hc        1 TBH      0.090000
     60 H181        3.2380   -3.5310    3.9700 hc        1 TBH      0.059500
     61 H182        3.9960   -4.9380    3.6740 hc        1 TBH      0.059500
     62 H191        5.3520   -2.4310    4.1500 hc        1 TBH      0.093667
     63 H192        5.3620   -3.6510    5.1700 hc        1 TBH      0.093667
     64 H193        6.1170   -3.7540    3.7700 hc        1 TBH      0.093667
     65 H141        2.3120   -0.3920    0.2260 ho        1 TBH      0.217000
     66 H101       -1.8320    0.0320   -1.7440 hn        1 TBH      0.165000
     67 H121       -0.4110    1.4050   -0.4420 h2        1 TBH      0.109000
     68 H201        1.5680    1.5240   -0.9850 ho        1 TBH      0.197000
     69 H211       -1.5890    2.4560   -2.0780 h1        1 TBH      0.133000
     70 H221        1.0120    3.0660   -1.9770 hn        1 TBH      0.159000
     71 H351       -1.0490    4.7890   -1.6020 h3        1 TBH      0.169000
     72 H361       -1.8170    3.5660   -0.1280 ho        1 TBH      0.265000
     73 H401        0.6900    4.3300    1.6460 hc        1 TBH      0.083111
     74 H402       -0.8470    4.7190    1.5720 hc        1 TBH      0.083111
     75 H403        0.1710    5.6390    2.3960 hc        1 TBH      0.083111
     76 H391        1.3050    7.3710    1.4160 hc        1 TBH      0.083111
     77 H392        2.3180    6.3970    0.6610 hc        1 TBH      0.083111
     78 H393        1.5390    7.5310   -0.1640 hc        1 TBH      0.083111
     79 H411       -0.8350    7.0700   -0.9640 hc        1 TBH      0.083111
     80 H412       -1.0830    7.4290    0.5850 hc        1 TBH      0.083111
     81 H413       -1.6890    6.1040   -0.0470 hc        1 TBH      0.083111
     82 H281       -0.0670    0.8480   -3.7840 hc        1 TBH      0.082000
     83 H282       -1.5550    1.4120   -4.0270 hc        1 TBH      0.082000
     84 H301        1.8740    2.0570   -4.6420 ha        1 TBH      0.107000
     85 H311        2.7460    3.6080   -6.2290 ha        1 TBH      0.099000
     86 H321        1.2250    5.1110   -7.3260 ha        1 TBH      0.168000
     87 H331       -1.0810    5.0870   -6.7530 ha        1 TBH      0.168000
     88 H341       -1.9570    3.5540   -5.1320 ha        1 TBH      0.150000
@<TRIPOS>BOND
     1    1    2 1   
     2    2    4 1   
     3    4    5 1   
     4    4    6 1   
     5    5   44 1   
     6    6    7 1   
     7    6   12 1   
     8    7    8 1   
     9    8    9 1   
    10    8   45 1   
    11    8   46 1   
    12    9   10 1   
    13    9   11 1   
    14   12   47 1   
    15   13   14 1   
    16   13   48 1   
    17   14   15 1   
    18   15   16 1   
    19   15   49 1   
    20   15   50 1   
    21   16   17 1   
    22   16   25 1   
    23   16   51 1   
    24   17   18 1   
    25   17   24 1   
    26   17   52 1   
    27   18   19 1   
    28   18   53 1   
    29   19   20 1   
    30   19   54 1   
    31   19   55 1   
    32   20   21 1   
    33   20   56 1   
    34   20   57 1   
    35   21   22 1   
    36   21   58 1   
    37   21   59 1   
    38   22   23 1   
    39   22   60 1   
    40   22   61 1   
    41   23   62 1   
    42   23   63 1   
    43   23   64 1   
    44   24   65 1   
    45   25   26 1   
    46   25   66 1   
    47   26   27 1   
    48   26   28 1   
    49   26   67 1   
    50   27   68 1   
    51   28   29 1   
    52   28   37 1   
    53   28   69 1   
    54   29   30 1   
    55   29   70 1   
    56   30   31 1   
    57   30   32 1   
    58   30   71 1   
    59   31   72 1   
    60   32   33 1   
    61   33   34 1   
    62   33   35 1   
    63   33   36 1   
    64   34   73 1   
    65   34   74 1   
    66   34   75 1   
    67   35   76 1   
    68   35   77 1   
    69   35   78 1   
    70   36   79 1   
    71   36   80 1   
    72   36   81 1   
    73   37   38 1   
    74   37   82 1   
    75   37   83 1   
    76   38   39 1   
    77   38   43 1   
    78   39   40 1   
    79   39   84 1   
    80   40   85 1   
    81   41   42 1   
    82   41   86 1   
    83   42   87 1   
    84   43   88 1   
@<TRIPOS>SUBSTRUCTURE
     1 TBH         1 TEMP              0 ****  ****    0 ROOT
