@<TRIPOS>MOLECULE
TBH
   91    92     1     0     0
SMALL
bcc


@<TRIPOS>ATOM
      1 O43         0.0000    0.0000    0.0000 o         1 TBH     -0.756300
      2 C27         1.2150    0.0000    0.0000 c         1 TBH      0.935200
      3 O42         1.8880    0.0000    1.1680 o         1 TBH     -0.756300
      4 C6          1.9530   -0.0010   -1.2750 ca        1 TBH     -0.126600
      5 C5          3.3510   -0.0070   -1.2790 ca        1 TBH     -0.019000
      6 C1          1.2580   -0.0020   -2.4930 ca        1 TBH      0.213100
      7 O9         -0.0980   -0.0010   -2.5020 os        1 TBH     -0.140900
      8 C23        -0.5020   -0.0020   -3.8730 c3        1 TBH      0.045400
      9 C24        -2.0070   -0.0020   -3.9540 c         1 TBH      0.935600
     10 O25        -2.6670   -0.0010   -2.9410 o         1 TBH     -0.728300
     11 O26        -2.6160   -0.0030   -5.1500 o         1 TBH     -0.728300
     12 C2          1.9630   -0.0020   -3.6870 ca        1 TBH     -0.257000
     13 C3          3.3430   -0.0020   -3.6760 ca        1 TBH     -0.116000
     14 C4          4.0350   -0.0020   -2.4760 ca        1 TBH     -0.288300
     15 C7          5.5420   -0.0020   -2.4780 c3        1 TBH      0.049900
     16 C8          6.0530    1.4400   -2.4790 c3        1 TBH     -0.070500
     17 C11         7.5770    1.4410   -2.3560 c3        1 TBH      0.190300
     18 N13         8.1550    0.6060   -3.4180 ny        1 TBH     -0.065000
     19 C15         9.3740    1.2870   -3.8740 c3        1 TBH     -0.030200
     20 C16        10.0300    0.4660   -4.9860 c3        1 TBH     -0.037400
     21 C17        11.3000    1.1750   -5.4620 c3        1 TBH     -0.019400
     22 C18        11.9570    0.3550   -6.5740 c3        1 TBH     -0.023400
     23 C19        13.2260    1.0640   -7.0490 c3        1 TBH      0.009900
     24 O14         7.9520    0.9180   -1.0810 oh        1 TBH     -0.508800
     25 N10         5.6610    2.0960   -3.7340 ny        1 TBH     -0.230000
     26 C12         5.6580    3.5420   -3.4710 c3        1 TBH      0.182300
     27 O20         6.8670    4.1190   -3.9670 oh        1 TBH     -0.587800
     28 C21         4.4590    4.1850   -4.1730 c3        1 TBH     -0.073500
     29 N22         4.5220    5.6430   -4.0100 ny        1 TBH     -0.073000
     30 C35         3.9050    5.9500   -2.7120 c3        1 TBH      0.374100
     31 O36         4.8260    5.6440   -1.6630 oh        1 TBH     -0.595800
     32 O37         3.5680    7.3370   -2.6620 os        1 TBH     -0.405600
     33 C38         2.4650    7.4620   -1.7620 c3        1 TBH      0.146800
     34 C40         2.8430    6.8640   -0.4050 c3        1 TBH     -0.026767
     35 C39         2.1130    8.9410   -1.5870 c3        1 TBH     -0.026767
     36 C41         1.2570    6.7140   -2.3300 c3        1 TBH     -0.026767
     37 C28         4.4930    3.8350   -5.6620 c3        1 TBH      0.030900
     38 C29         3.2740    4.4060   -6.3390 ca        1 TBH     -0.202300
     39 C30         3.3440    5.6360   -6.9660 ca        1 TBH     -0.101500
     40 C31         2.2250    6.1590   -7.5880 ca        1 TBH     -0.063500
     41 C32         1.0370    5.4530   -7.5810 ca        1 TBH     -0.048000
     42 C33         0.9680    4.2230   -6.9550 ca        1 TBH     -0.063500
     43 C34         2.0870    3.6970   -6.3380 ca        1 TBH     -0.101500
     44 H51         3.8940   -0.0780   -0.3440 ha        1 TBH      0.138000
     45 H231       -0.1140    0.8820   -4.3640 h1        1 TBH      0.001200
     46 H232       -0.1140   -0.8870   -4.3630 h1        1 TBH      0.001200
     47 H21         1.4300   -0.0520   -4.6290 ha        1 TBH      0.156000
     48 H31         3.8880   -0.0090   -4.6120 ha        1 TBH      0.062000
     49 H71         5.9040   -0.5120   -1.5940 hc        1 TBH      0.035200
     50 H72         5.9010   -0.5130   -3.3630 hc        1 TBH      0.035200
     51 H81         5.6220    1.9770   -1.6420 hx        1 TBH      0.127700
     52 H111        7.9460    2.4550   -2.4530 hx        1 TBH      0.047700
     53 H131        7.5070    0.5190   -4.1760 hn        1 TBH      0.266800
     54 H151        9.1190    2.2690   -4.2530 hx        1 TBH      0.075200
     55 H152       10.0640    1.3880   -3.0450 hx        1 TBH      0.075200
     56 H161       10.2850   -0.5160   -4.6080 hc        1 TBH      0.037700
     57 H162        9.3400    0.3660   -5.8160 hc        1 TBH      0.037700
     58 H171       11.0450    2.1580   -5.8400 hc        1 TBH      0.024200
     59 H172       11.9890    1.2760   -4.6320 hc        1 TBH      0.024200
     60 H181       12.2120   -0.6280   -6.1960 hc        1 TBH      0.020700
     61 H182       11.2670    0.2540   -7.4040 hc        1 TBH      0.020700
     62 H191       12.9680    2.0340   -7.4550 hc        1 TBH      0.011700
     63 H192       13.9040    1.1900   -6.2130 hc        1 TBH      0.011700
     64 H193       13.7070    0.4680   -7.8160 hc        1 TBH      0.011700
     65 H141        8.5160    1.5340   -0.6420 ho        1 TBH      0.437000
     66 H101        4.7470    1.7950   -4.0080 hn        1 TBH      0.267800
     67 H121        5.5870    3.7150   -2.4040 hx        1 TBH      0.090700
     68 H201        7.2690    4.6380   -3.2900 ho        1 TBH      0.428000
     69 H211        3.5410    3.8120   -3.7350 hx        1 TBH      0.121700
     70 H221        5.4750    5.9480   -4.0180 hn        1 TBH      0.275300
     71 H351        3.0080    5.3560   -2.5890 hx        1 TBH      0.122700
     72 H361        5.3950    6.3820   -1.5200 ho        1 TBH      0.439000
     73 H401        3.8300    7.2080   -0.1210 hc        1 TBH      0.030144
     74 H402        2.8430    5.7830   -0.4730 hc        1 TBH      0.030144
     75 H403        2.1230    7.1780    0.3410 hc        1 TBH      0.030144
     76 H391        1.8200    9.3580   -2.5440 hc        1 TBH      0.030144
     77 H392        2.9760    9.4750   -1.2090 hc        1 TBH      0.030144
     78 H393        1.2930    9.0370   -0.8860 hc        1 TBH      0.030144
     79 H411        0.3550    7.2790   -2.1270 hc        1 TBH      0.030144
     80 H412        1.1850    5.7390   -1.8640 hc        1 TBH      0.030144
     81 H413        1.3760    6.5950   -3.4000 hc        1 TBH      0.030144
     82 H281        4.5010    2.7580   -5.7800 hc        1 TBH      0.042200
     83 H282        5.3850    4.2540   -6.1110 hc        1 TBH      0.042200
     84 H301        4.2750    6.1890   -6.9720 ha        1 TBH      0.107000
     85 H311        2.2790    7.1230   -8.0790 ha        1 TBH      0.134500
     86 H321        0.1590    5.8650   -8.0640 ha        1 TBH      0.131000
     87 H331        0.0360    3.6700   -6.9490 ha        1 TBH      0.134500
     88 H341        2.0390    2.7220   -5.8690 ha        1 TBH      0.107000
     89 H132        8.3830   -0.2980   -3.0560 hn        1 TBH      0.266800
     90 H102        6.3230    1.8820   -4.4540 hn        1 TBH      0.267800
     91 H222        4.0140    6.0920   -4.7470 hn        1 TBH      0.275300
@<TRIPOS>BOND
     1    1    2 1   
     2    2    3 1   
     3    2    4 1   
     4    4    5 ar  
     5    4    6 ar  
     6    5   14 ar  
     7    5   44 1   
     8    6    7 1   
     9    6   12 ar  
    10    7    8 1   
    11    8    9 1   
    12    8   45 1   
    13    8   46 1   
    14    9   10 1   
    15    9   11 1   
    16   12   13 ar  
    17   12   47 1   
    18   13   14 ar  
    19   13   48 1   
    20   14   15 1   
    21   15   16 1   
    22   15   49 1   
    23   15   50 1   
    24   16   17 1   
    25   16   25 1   
    26   16   51 1   
    27   17   18 1   
    28   17   24 1   
    29   17   52 1   
    30   18   19 1   
    31   18   53 1   
    32   18   89 1   
    33   19   20 1   
    34   19   54 1   
    35   19   55 1   
    36   20   21 1   
    37   20   56 1   
    38   20   57 1   
    39   21   22 1   
    40   21   58 1   
    41   21   59 1   
    42   22   23 1   
    43   22   60 1   
    44   22   61 1   
    45   23   62 1   
    46   23   63 1   
    47   23   64 1   
    48   24   65 1   
    49   25   26 1   
    50   25   66 1   
    51   25   90 1   
    52   26   27 1   
    53   26   28 1   
    54   26   67 1   
    55   27   68 1   
    56   28   29 1   
    57   28   37 1   
    58   28   69 1   
    59   29   30 1   
    60   29   70 1   
    61   29   91 1   
    62   30   31 1   
    63   30   32 1   
    64   30   71 1   
    65   31   72 1   
    66   32   33 1   
    67   33   34 1   
    68   33   35 1   
    69   33   36 1   
    70   34   73 1   
    71   34   74 1   
    72   34   75 1   
    73   35   76 1   
    74   35   77 1   
    75   35   78 1   
    76   36   79 1   
    77   36   80 1   
    78   36   81 1   
    79   37   38 1   
    80   37   82 1   
    81   37   83 1   
    82   38   39 ar  
    83   38   43 ar  
    84   39   40 ar  
    85   39   84 1   
    86   40   41 ar  
    87   40   85 1   
    88   41   42 ar  
    89   41   86 1   
    90   42   43 ar  
    91   42   87 1   
    92   43   88 1   
@<TRIPOS>SUBSTRUCTURE
     1 TBH         1 TEMP              0 ****  ****    0 ROOT
