@<TRIPOS>MOLECULE
TBI
   34    34     1     0     0
SMALL
bcc


@<TRIPOS>ATOM
      1 C18        -0.1180    0.0130   -0.0230 cc        1 TBI     -0.201600
      2 C19         1.2670    0.2330    0.0550 cd        1 TBI      0.258200
      3 N17         1.5710    0.4460    1.4160 nd        1 TBI     -0.338000
      4 N16         0.5120    0.3710    2.1130 nc        1 TBI     -0.225800
      5 N15        -0.5540    0.1210    1.3090 na        1 TBI      0.046400
      6 C14        -1.9130   -0.0460    1.7640 c3        1 TBI      0.049300
      7 C2         -2.2730   -1.4300    2.3400 c3        1 TBI     -0.240200
      8 S1         -3.8670   -1.2340    3.0920 s6        1 TBI      1.279000
      9 O12        -3.6440   -0.4660    4.2520 o         1 TBI     -0.649300
     10 O13        -4.7370   -0.6990    2.1320 o         1 TBI     -0.649300
     11 C20        -2.3970   -2.4170    1.1880 c3        1 TBI     -0.099100
     12 C3         -1.2300   -1.9860    3.3130 c3        1 TBI     -0.030500
     13 C9         -1.7450   -3.3840    3.9280 c         1 TBI      0.912600
     14 O11        -1.3310   -4.4060    3.3630 o         1 TBI     -0.754800
     15 O10        -2.5130   -3.2530    4.9180 o         1 TBI     -0.754800
     16 N4         -0.9380   -1.0560    4.4600 n4        1 TBI     -0.637800
     17 C5          0.3610   -1.3290    5.0560 c2        1 TBI     -0.059000
     18 C6          0.5360   -1.8960    6.2560 ce        1 TBI     -0.185200
     19 C7         -0.5370   -2.3730    7.1620 c         1 TBI      0.523100
     20 O8         -0.5660   -2.0350    8.3450 o         1 TBI     -0.487100
     21 H18        -0.7890   -0.1900   -0.8550 h4        1 TBI      0.201000
     22 H19         2.0290    0.2560   -0.7210 h4        1 TBI      0.067100
     23 H141       -2.5920    0.1470    0.8790 h1        1 TBI      0.090200
     24 H142       -2.1290    0.7480    2.5420 h1        1 TBI      0.090200
     25 H201       -2.5220   -3.4640    1.5720 hc        1 TBI      0.074033
     26 H202       -1.4770   -2.4030    0.5550 hc        1 TBI      0.074033
     27 H203       -3.2730   -2.1430    0.5490 hc        1 TBI      0.074033
     28 H3         -0.2700   -2.2020    2.7670 hx        1 TBI      0.118700
     29 HN4        -0.9700   -0.0750    4.1680 hn        1 TBI      0.464800
     30 H5          1.2040   -1.0240    4.4040 hx        1 TBI      0.195000
     31 H6          1.5670   -2.0470    6.6290 ha        1 TBI      0.182000
     32 H77        -1.2870   -3.0660    6.7050 h4        1 TBI      0.088200
     33 HS1        -4.1330   -2.3960    3.3110 hs        1 TBI      0.060800
     34 H42        -1.7020   -1.2100    5.1540 hn        1 TBI      0.464800
@<TRIPOS>BOND
     1    1    2 2   
     2    1    5 1   
     3    1   21 1   
     4    2    3 1   
     5    2   22 1   
     6    3    4 2   
     7    4    5 1   
     8    5    6 1   
     9    6    7 1   
    10    6   23 1   
    11    6   24 1   
    12    7    8 1   
    13    7   11 1   
    14    7   12 1   
    15    8    9 2   
    16    8   10 2   
    17    8   33 1   
    18   11   25 1   
    19   11   26 1   
    20   11   27 1   
    21   12   13 1   
    22   12   16 1   
    23   12   28 1   
    24   13   14 1   
    25   13   15 1   
    26   16   17 1   
    27   16   29 1   
    28   16   34 1   
    29   17   18 2   
    30   17   30 1   
    31   18   19 1   
    32   18   31 1   
    33   19   20 2   
    34   19   32 1   
@<TRIPOS>SUBSTRUCTURE
     1 TBI         1 TEMP              0 ****  ****    0 ROOT
