@<TRIPOS>MOLECULE
TBI
   34    34     1     0     0
SMALL
bcc


@<TRIPOS>ATOM
      1 C18        -0.1230   -0.0040   -0.0320 cc        1 TBI     -0.201600
      2 C19         1.2670    0.1880    0.0320 cd        1 TBI      0.258200
      3 N17         1.5890    0.3930    1.3900 nd        1 TBI     -0.338000
      4 N16         0.5360    0.3380    2.0970 nc        1 TBI     -0.225800
      5 N15        -0.5430    0.1100    1.3040 na        1 TBI      0.046400
      6 C14        -1.9000   -0.0290    1.7740 c3        1 TBI      0.049300
      7 C2         -2.2820   -1.4070    2.3520 c3        1 TBI     -0.240200
      8 S1         -3.8630   -1.1800    3.1210 s6        1 TBI      1.279000
      9 O12        -3.6130   -0.4190    4.2790 o         1 TBI     -0.649300
     10 O13        -4.7330   -0.6260    2.1710 o         1 TBI     -0.649300
     11 C20        -2.4380   -2.3900    1.2000 c3        1 TBI     -0.099100
     12 C3         -1.2400   -1.9850    3.3120 c3        1 TBI     -0.030500
     13 C9         -1.7770   -3.3740    3.9310 c         1 TBI      0.912600
     14 O11        -1.3900   -4.4030    3.3600 o         1 TBI     -0.754800
     15 O10        -2.5320   -3.2280    4.9290 o         1 TBI     -0.754800
     16 N4         -0.9170   -1.0630    4.4580 n4        1 TBI     -0.637800
     17 C5          0.3820   -1.3640    5.0390 c2        1 TBI     -0.059000
     18 C6          0.5590   -1.9360    6.2370 ce        1 TBI     -0.185200
     19 C7         -0.5140   -2.3920    7.1540 c         1 TBI      0.523100
     20 O8         -0.5240   -2.0560    8.3370 o         1 TBI     -0.487100
     21 H18        -0.8070   -0.1930   -0.8570 h4        1 TBI      0.201000
     22 H19         2.0210    0.1970   -0.7520 h4        1 TBI      0.067100
     23 H141       -2.5840    0.1790    0.8960 h1        1 TBI      0.090200
     24 H142       -2.0910    0.7670    2.5550 h1        1 TBI      0.090200
     25 H201       -1.5240   -2.3930    0.5570 hc        1 TBI      0.074033
     26 H202       -2.5800   -3.4340    1.5830 hc        1 TBI      0.074033
     27 H203       -3.3150   -2.0970    0.5700 hc        1 TBI      0.074033
     28 H3         -0.2910   -2.2200    2.7560 hx        1 TBI      0.118700
     29 HN4        -0.9330   -0.0820    4.1670 hn        1 TBI      0.464800
     30 H5          1.2240   -1.0750    4.3780 hx        1 TBI      0.195000
     31 H6          1.5900   -2.1080    6.5990 ha        1 TBI      0.182000
     32 H77        -1.2830   -3.0690    6.7030 h4        1 TBI      0.088200
     33 HS1        -4.1510   -2.3370    3.3400 hs        1 TBI      0.060800
     34 H42        -1.6770   -1.2040    5.1600 hn        1 TBI      0.464800
@<TRIPOS>BOND
     1    1    2 2   
     2    1    5 1   
     3    1   21 1   
     4    2    3 1   
     5    2   22 1   
     6    3    4 2   
     7    4    5 1   
     8    5    6 1   
     9    6    7 1   
    10    6   23 1   
    11    6   24 1   
    12    7    8 1   
    13    7   11 1   
    14    7   12 1   
    15    8    9 2   
    16    8   10 2   
    17    8   33 1   
    18   11   25 1   
    19   11   26 1   
    20   11   27 1   
    21   12   13 1   
    22   12   16 1   
    23   12   28 1   
    24   13   14 1   
    25   13   15 1   
    26   16   17 1   
    27   16   29 1   
    28   16   34 1   
    29   17   18 2   
    30   17   30 1   
    31   18   19 1   
    32   18   31 1   
    33   19   20 2   
    34   19   32 1   
@<TRIPOS>SUBSTRUCTURE
     1 TBI         1 TEMP              0 ****  ****    0 ROOT
