@<TRIPOS>MOLECULE
TBI
   34    34     1     0     0
SMALL
bcc


@<TRIPOS>ATOM
      1 C18         0.2790   -0.1950    0.3940 cc        1 TBI     -0.203600
      2 C19         1.6410   -0.1800    0.7410 cd        1 TBI      0.255200
      3 N17         1.7030   -0.0910    2.1470 nd        1 TBI     -0.334000
      4 N16         0.5280   -0.0540    2.6290 nc        1 TBI     -0.231800
      5 N15        -0.3870   -0.1050    1.6270 na        1 TBI      0.045400
      6 C14        -1.8200   -0.0850    1.8100 c3        1 TBI      0.056300
      7 C2         -2.4710   -1.4230    2.2030 c3        1 TBI     -0.221200
      8 S1         -4.1820   -1.0520    2.6180 s6        1 TBI      1.312000
      9 O12        -4.1970   -0.7510    3.9890 o         1 TBI     -0.670300
     10 O13        -4.5200    0.0410    1.7920 o         1 TBI     -0.670300
     11 C20        -2.4650   -2.3490    0.9970 c3        1 TBI     -0.090100
     12 C3         -1.7410   -2.1510    3.3330 c3        1 TBI     -0.015500
     13 C9         -2.5990   -3.4250    3.7870 c         1 TBI      0.932600
     14 O11        -1.9680   -4.3700    4.2880 o         1 TBI     -0.767300
     15 O10        -3.8350   -3.2650    3.6120 o         1 TBI     -0.767300
     16 N4         -1.5300   -1.3120    4.5650 ny        1 TBI     -0.641800
     17 C5         -0.5720   -1.9480    5.4600 c2        1 TBI     -0.035000
     18 C6          0.4500   -1.2930    6.0290 ce        1 TBI     -0.217200
     19 C7          1.3720   -1.9970    6.9480 c         1 TBI      0.561100
     20 O8          2.2010   -1.3850    7.6180 o         1 TBI     -0.483100
     21 H18        -0.2400   -0.2490   -0.5610 h4        1 TBI      0.199000
     22 H19         2.5330   -0.2220    0.1210 h4        1 TBI      0.066100
     23 H141       -2.0740    0.6950    2.5880 h1        1 TBI      0.091700
     24 H142       -2.2810    0.2560    0.8340 h1        1 TBI      0.091700
     25 H201       -3.0600   -1.8940    0.1670 hc        1 TBI      0.065700
     26 H202       -2.9090   -3.3410    1.2690 hc        1 TBI      0.065700
     27 H203       -1.4250   -2.5240    0.6300 hc        1 TBI      0.065700
     28 H3         -0.7360   -2.5150    2.9800 hx        1 TBI      0.114700
     29 HN4        -1.2310   -0.3630    4.3250 hn        1 TBI      0.464800
     30 H5         -0.7860   -3.0360    5.5980 hx        1 TBI      0.235000
     31 H6          0.6730   -0.2250    5.8550 ha        1 TBI      0.171000
     32 H77         1.2690   -3.1040    6.9900 h4        1 TBI      0.025200
     33 HS1        -4.8080   -2.0030    2.2010 hs        1 TBI      0.064800
     34 H42        -2.4490   -1.2480    5.0510 hn        1 TBI      0.464800
@<TRIPOS>BOND
     1    1    2 2   
     2    1    5 1   
     3    1   21 1   
     4    2    3 1   
     5    2   22 1   
     6    3    4 2   
     7    4    5 1   
     8    5    6 1   
     9    6    7 1   
    10    6   23 1   
    11    6   24 1   
    12    7    8 1   
    13    7   11 1   
    14    7   12 1   
    15    8    9 2   
    16    8   10 2   
    17    8   33 1   
    18   11   25 1   
    19   11   26 1   
    20   11   27 1   
    21   12   13 1   
    22   12   16 1   
    23   12   28 1   
    24   13   14 1   
    25   13   15 1   
    26   16   17 1   
    27   16   29 1   
    28   16   34 1   
    29   17   18 2   
    30   17   30 1   
    31   18   19 1   
    32   18   31 1   
    33   19   20 2   
    34   19   32 1   
@<TRIPOS>SUBSTRUCTURE
     1 TBI         1 TEMP              0 ****  ****    0 ROOT
