@<TRIPOS>MOLECULE
TBI
   33    33     1     0     0
SMALL
bcc


@<TRIPOS>ATOM
      1 C18        -0.1170    1.7580    2.1470 cc        1 TBI     -0.232600
      2 C19        -1.2360    1.8030    2.9970 cd        1 TBI      0.230200
      3 N17        -2.1530    2.6970    2.4110 nd        1 TBI     -0.376000
      4 N16        -1.6740    3.1580    1.3250 nc        1 TBI     -0.168800
      5 N15        -0.4420    2.6440    1.1080 na        1 TBI      0.075400
      6 C14         0.4140    2.9120   -0.0330 c3        1 TBI      0.069300
      7 C2          0.3180    1.9100   -1.1900 c3        1 TBI     -0.210200
      8 S1          1.5690    2.3490   -2.3930 s6        1 TBI      1.325000
      9 O12         1.1360    3.2650   -3.3530 o         1 TBI     -0.685800
     10 O13         2.6320    2.8800   -1.6010 o         1 TBI     -0.685800
     11 C20         0.6150    0.5080   -0.6950 c3        1 TBI     -0.088100
     12 C3         -1.0940    1.9010   -1.8330 c3        1 TBI      0.103500
     13 C9         -1.0010    0.9510   -3.0830 c         1 TBI      0.910600
     14 O11         0.1280    1.0000   -3.6720 o         1 TBI     -0.811300
     15 O10        -1.9700    0.2300   -3.3840 o         1 TBI     -0.811300
     16 N4         -1.5360    3.2190   -2.2260 nh        1 TBI     -0.741000
     17 C5         -2.7440    3.7170   -1.8460 c2        1 TBI      0.193000
     18 C6         -3.3210    4.8490   -2.3550 ce        1 TBI     -0.456200
     19 C7         -4.5660    5.3460   -1.8250 c         1 TBI      0.593100
     20 O8         -5.1420    6.3670   -2.2350 o         1 TBI     -0.608100
     21 H18         0.8220    1.2130    2.1850 h4        1 TBI      0.187000
     22 H19        -1.4380    1.2900    3.9320 h4        1 TBI      0.045100
     23 H141        1.4760    2.9050    0.3590 h1        1 TBI      0.093200
     24 H142        0.1850    3.9490   -0.4150 h1        1 TBI      0.093200
     25 H201        1.6140    0.4850   -0.1930 hc        1 TBI      0.051700
     26 H202       -0.1550    0.1610    0.0360 hc        1 TBI      0.051700
     27 H203        0.6130   -0.2120   -1.5530 hc        1 TBI      0.051700
     28 H3         -1.8230    1.4540   -1.1020 h1        1 TBI      0.076700
     29 HN4        -1.0930    3.5890   -3.0450 hn        1 TBI      0.457800
     30 H5         -3.2510    3.1590   -1.0280 h4        1 TBI      0.142000
     31 H6         -2.8640    5.4190   -3.1750 ha        1 TBI      0.144000
     32 H77        -5.0160    4.7530   -0.9920 h4        1 TBI     -0.036800
     33 HS1         2.0150    1.2710   -2.7540 hs        1 TBI      0.019800
@<TRIPOS>BOND
     1    1    2 2   
     2    1    5 1   
     3    1   21 1   
     4    2    3 1   
     5    2   22 1   
     6    3    4 2   
     7    4    5 1   
     8    5    6 1   
     9    6    7 1   
    10    6   23 1   
    11    6   24 1   
    12    7    8 1   
    13    7   11 1   
    14    7   12 1   
    15    8    9 2   
    16    8   10 2   
    17    8   33 1   
    18   11   25 1   
    19   11   26 1   
    20   11   27 1   
    21   12   13 1   
    22   12   16 1   
    23   12   28 1   
    24   13   14 1   
    25   13   15 1   
    26   16   17 1   
    27   16   29 1   
    28   17   18 2   
    29   17   30 1   
    30   18   19 1   
    31   18   31 1   
    32   19   20 2   
    33   19   32 1   
@<TRIPOS>SUBSTRUCTURE
     1 TBI         1 TEMP              0 ****  ****    0 ROOT
