@<TRIPOS>MOLECULE
TBL
   30    30     1     0     0
SMALL
bcc


@<TRIPOS>ATOM
      1 O4         -0.0720    0.0090   -0.2660 o         1 TBL     -0.596300
      2 S1          1.3060   -0.1330   -0.1490 sy        1 TBL      1.457200
      3 O3          1.9070    0.0200    1.1000 o         1 TBL     -0.596300
      4 N1          2.0800    1.1410   -1.1510 n4        1 TBL     -0.731900
      5 C2          1.1910    1.8780   -2.1010 c3        1 TBL     -0.072500
      6 C10         1.2340    1.3340   -3.5090 c3        1 TBL     -0.099100
      7 C1          1.6020    3.4350   -2.1140 c         1 TBL      0.937600
      8 O2          1.0380    4.1250   -2.9780 o         1 TBL     -0.757300
      9 O1          2.4370    3.7610   -1.2290 o         1 TBL     -0.757300
     10 C3          1.8650   -1.4470   -0.9400 ca        1 TBL     -0.530500
     11 C4          3.0770   -2.0620   -0.5550 ca        1 TBL      0.037500
     12 C5          3.5420   -3.2000   -1.1810 ca        1 TBL     -0.212500
     13 C6          2.7840   -3.7670   -2.2330 ca        1 TBL      0.230100
     14 C8          1.5690   -3.1790   -2.6300 ca        1 TBL     -0.212500
     15 C9          1.1270   -2.0370   -1.9830 ca        1 TBL      0.037500
     16 O5          3.3230   -4.8880   -2.7950 os        1 TBL     -0.304900
     17 C7          2.5890   -5.5000   -3.8580 c3        1 TBL      0.104700
     18 HN1         2.8710    0.7860   -1.6860 hn        1 TBL      0.473800
     19 H2          0.1410    1.8400   -1.6920 hx        1 TBL      0.107700
     20 H10         2.2720    1.3360   -3.9220 hc        1 TBL      0.053700
     21 H10A        0.6120    2.0200   -4.1420 hc        1 TBL      0.053700
     22 H10B        0.8180    0.3000   -3.5710 hc        1 TBL      0.053700
     23 H4          3.6550   -1.6270    0.2820 ha        1 TBL      0.166000
     24 H5          4.4860   -3.6790   -0.8780 ha        1 TBL      0.167000
     25 H8          0.9680   -3.6170   -3.4410 ha        1 TBL      0.167000
     26 H9          0.1650   -1.5800   -2.2840 ha        1 TBL      0.166000
     27 H7          1.5890   -5.8380   -3.4960 h1        1 TBL      0.061033
     28 H7A         2.4870   -4.7950   -4.7170 h1        1 TBL      0.061033
     29 H7B         3.2310   -6.3760   -4.1340 h1        1 TBL      0.061033
     30 H12         2.4780    1.9100   -0.5450 hn        1 TBL      0.473800
@<TRIPOS>BOND
     1    1    2 2   
     2    2    3 2   
     3    2    4 1   
     4    2   10 1   
     5    4    5 1   
     6    4   18 1   
     7    4   30 1   
     8    5    6 1   
     9    5    7 1   
    10    5   19 1   
    11    6   20 1   
    12    6   21 1   
    13    6   22 1   
    14    7    8 1   
    15    7    9 1   
    16   10   11 ar  
    17   10   15 ar  
    18   11   12 ar  
    19   11   23 1   
    20   12   13 ar  
    21   12   24 1   
    22   13   14 ar  
    23   13   16 1   
    24   14   15 ar  
    25   14   25 1   
    26   15   26 1   
    27   16   17 1   
    28   17   27 1   
    29   17   28 1   
    30   17   29 1   
@<TRIPOS>SUBSTRUCTURE
     1 TBL         1 TEMP              0 ****  ****    0 ROOT
