@<TRIPOS>MOLECULE
TBL
   30    30     1     0     0
SMALL
bcc


@<TRIPOS>ATOM
      1 O4          0.2130   -0.0250    0.1610 o         1 TBL     -0.596300
      2 S1          1.5890    0.1380    0.0010 sy        1 TBL      1.457200
      3 O3          2.4240    0.0140    1.1060 o         1 TBL     -0.596300
      4 N1          2.0340   -1.1450   -1.1750 ny        1 TBL     -0.731900
      5 C2          3.3190   -1.8680   -0.9220 c3        1 TBL     -0.072500
      6 C10         4.4810   -1.3220   -1.7160 c3        1 TBL     -0.099100
      7 C1          3.1240   -3.4300   -1.2600 c         1 TBL      0.937600
      8 O2          1.9330   -3.7690   -1.4900 o         1 TBL     -0.757300
      9 O1          4.1620   -4.1110   -1.2380 o         1 TBL     -0.757300
     10 C3          1.9480    1.4460   -0.9070 ca        1 TBL     -0.530500
     11 C4          0.9710    2.0440   -1.7320 ca        1 TBL      0.037500
     12 C5          1.2430    3.1770   -2.4710 ca        1 TBL     -0.212500
     13 C6          2.5330    3.7560   -2.3970 ca        1 TBL      0.230100
     14 C8          3.5210    3.1850   -1.5750 ca        1 TBL     -0.212500
     15 C9          3.2190    2.0470   -0.8450 ca        1 TBL      0.037500
     16 O5          2.7100    4.8700   -3.1640 os        1 TBL     -0.304900
     17 C7          3.9950    5.4940   -3.1170 c3        1 TBL      0.104700
     18 HN1         2.0610   -0.7990   -2.1320 hn        1 TBL      0.473800
     19 H2          3.5340   -1.8160    0.1830 hx        1 TBL      0.107700
     20 H10         5.3550   -1.9980   -1.5220 hc        1 TBL      0.053700
     21 H10A        4.7470   -0.2810   -1.4080 hc        1 TBL      0.053700
     22 H10B        4.2760   -1.3370   -2.8140 hc        1 TBL      0.053700
     23 H4         -0.0420    1.5990   -1.7700 ha        1 TBL      0.166000
     24 H5          0.4800    3.6430   -3.1130 ha        1 TBL      0.167000
     25 H8          4.5240    3.6320   -1.5040 ha        1 TBL      0.167000
     26 H9          3.9910    1.6040   -0.1870 ha        1 TBL      0.166000
     27 H7          4.7830    4.7920   -3.4820 h1        1 TBL      0.061033
     28 H7A         4.2200    5.8450   -2.0810 h1        1 TBL      0.061033
     29 H7B         3.8790    6.3620   -3.8160 h1        1 TBL      0.061033
     30 H12         1.3170   -1.9210   -1.1790 hn        1 TBL      0.473800
@<TRIPOS>BOND
     1    1    2 2   
     2    2    3 2   
     3    2    4 1   
     4    2   10 1   
     5    4    5 1   
     6    4   18 1   
     7    4   30 1   
     8    5    6 1   
     9    5    7 1   
    10    5   19 1   
    11    6   20 1   
    12    6   21 1   
    13    6   22 1   
    14    7    8 1   
    15    7    9 1   
    16   10   11 ar  
    17   10   15 ar  
    18   11   12 ar  
    19   11   23 1   
    20   12   13 ar  
    21   12   24 1   
    22   13   14 ar  
    23   13   16 1   
    24   14   15 ar  
    25   14   25 1   
    26   15   26 1   
    27   16   17 1   
    28   17   27 1   
    29   17   28 1   
    30   17   29 1   
@<TRIPOS>SUBSTRUCTURE
     1 TBL         1 TEMP              0 ****  ****    0 ROOT
