@<TRIPOS>MOLECULE
TBL
   29    29     1     0     0
SMALL
bcc


@<TRIPOS>ATOM
      1 O4          0.7120   -2.7100    0.0510 o         1 TBL     -0.680300
      2 S1          0.7340   -1.3640    0.5160 sy        1 TBL      1.502200
      3 O3          0.9350   -1.2170    1.9150 o         1 TBL     -0.680300
      4 N1          1.7140   -0.4970   -0.3550 n3        1 TBL     -0.918100
      5 C2          2.3880    0.7180    0.0440 c3        1 TBL      0.087500
      6 C10         1.4910    1.9500    0.0810 c3        1 TBL     -0.096100
      7 C1          3.5990    1.0620   -0.9120 c         1 TBL      0.924600
      8 O2          3.6450    0.5090   -2.0440 o         1 TBL     -0.822800
      9 O1          4.4300    1.8890   -0.4580 o         1 TBL     -0.822800
     10 C3         -0.8250   -0.7280    0.1830 ca        1 TBL     -0.362500
     11 C4         -1.5280   -1.1300   -0.9590 ca        1 TBL      0.011000
     12 C5         -2.7970   -0.6400   -1.2370 ca        1 TBL     -0.212000
     13 C6         -3.3810    0.2790   -0.3460 ca        1 TBL      0.158100
     14 C8         -2.7000    0.6910    0.8070 ca        1 TBL     -0.212000
     15 C9         -1.4270    0.1800    1.0560 ca        1 TBL      0.011000
     16 O5         -4.6450    0.7110   -0.7000 os        1 TBL     -0.332900
     17 C7         -5.2300    1.6940    0.1440 c3        1 TBL      0.115700
     18 HN1         1.9810   -0.7480   -1.2900 hn        1 TBL      0.485800
     19 H2          2.8180    0.5570    1.0770 h1        1 TBL      0.052700
     20 H10         2.1240    2.8220    0.3760 hc        1 TBL      0.028700
     21 H10A        1.0500    2.1550   -0.9240 hc        1 TBL      0.028700
     22 H10B        0.6600    1.8360    0.8200 hc        1 TBL      0.028700
     23 H4         -1.0640   -1.8630   -1.6440 ha        1 TBL      0.154000
     24 H5         -3.3480   -0.9540   -2.1330 ha        1 TBL      0.138000
     25 H8         -3.1490    1.4050    1.5090 ha        1 TBL      0.138000
     26 H9         -0.8840    0.4900    1.9670 ha        1 TBL      0.154000
     27 H7         -5.3920    1.2840    1.1710 h1        1 TBL      0.041033
     28 H7A        -4.5930    2.6110    0.1870 h1        1 TBL      0.041033
     29 H7B        -6.2090    1.9150   -0.3500 h1        1 TBL      0.041033
@<TRIPOS>BOND
     1    1    2 2   
     2    2    3 2   
     3    2    4 1   
     4    2   10 1   
     5    4    5 1   
     6    4   18 1   
     7    5    6 1   
     8    5    7 1   
     9    5   19 1   
    10    6   20 1   
    11    6   21 1   
    12    6   22 1   
    13    7    8 1   
    14    7    9 1   
    15   10   11 ar  
    16   10   15 ar  
    17   11   12 ar  
    18   11   23 1   
    19   12   13 ar  
    20   12   24 1   
    21   13   14 ar  
    22   13   16 1   
    23   14   15 ar  
    24   14   25 1   
    25   15   26 1   
    26   16   17 1   
    27   17   27 1   
    28   17   28 1   
    29   17   29 1   
@<TRIPOS>SUBSTRUCTURE
     1 TBL         1 TEMP              0 ****  ****    0 ROOT
