@<TRIPOS>MOLECULE
TBL
   30    30     1     0     0
SMALL
bcc


@<TRIPOS>ATOM
      1 O4         -0.1130   -0.0800   -0.2800 o         1 TBL     -0.596300
      2 S1          1.2670   -0.1910   -0.1510 sy        1 TBL      1.457200
      3 O3          1.8530   -0.0270    1.1030 o         1 TBL     -0.596300
      4 N1          2.0200    1.1000   -1.1450 n4        1 TBL     -0.731900
      5 C2          1.1220    1.8190   -2.1020 c3        1 TBL     -0.072500
      6 C10         1.1880    1.2770   -3.5100 c3        1 TBL     -0.099100
      7 C1          1.4980    3.3840   -2.1110 c         1 TBL      0.937600
      8 O2          2.3180    3.7280   -1.2180 o         1 TBL     -0.757300
      9 O1          0.9260    4.0620   -2.9780 o         1 TBL     -0.757300
     10 C3          1.8620   -1.4920   -0.9380 ca        1 TBL     -0.530500
     11 C4          3.0830   -2.0800   -0.5440 ca        1 TBL      0.037500
     12 C5          1.6180   -3.2290   -2.6320 ca        1 TBL     -0.212500
     13 C6          2.8430   -3.7890   -2.2260 ca        1 TBL      0.230100
     14 C8          3.5790   -3.2060   -1.1670 ca        1 TBL     -0.212500
     15 C9          1.1460   -2.0980   -1.9880 ca        1 TBL      0.037500
     16 O5          3.4120   -4.8970   -2.7840 os        1 TBL     -0.304900
     17 C7          2.7010   -5.5250   -3.8540 c3        1 TBL      0.104700
     18 HN1         2.8230    0.7640   -1.6740 hn        1 TBL      0.473800
     19 H2          0.0700    1.7560   -1.7020 hx        1 TBL      0.107700
     20 H10         0.7960    0.2330   -3.5760 hc        1 TBL      0.053700
     21 H10A        0.5560    1.9490   -4.1480 hc        1 TBL      0.053700
     22 H10B        2.2290    1.3020   -3.9140 hc        1 TBL      0.053700
     23 H4          3.6450   -1.6320    0.2980 ha        1 TBL      0.166000
     24 H5          1.0340   -3.6800   -3.4480 ha        1 TBL      0.167000
     25 H8          4.5310   -3.6640   -0.8580 ha        1 TBL      0.167000
     26 H9          0.1750   -1.6630   -2.2960 ha        1 TBL      0.166000
     27 H7          1.7050   -5.8860   -3.5000 h1        1 TBL      0.061033
     28 H7A         2.5900   -4.8210   -4.7130 h1        1 TBL      0.061033
     29 H7B         3.3650   -6.3860   -4.1250 h1        1 TBL      0.061033
     30 H12         2.3950    1.8780   -0.5360 hn        1 TBL      0.473800
@<TRIPOS>BOND
     1    1    2 2   
     2    2    3 2   
     3    2    4 1   
     4    2   10 1   
     5    4    5 1   
     6    4   18 1   
     7    4   30 1   
     8    5    6 1   
     9    5    7 1   
    10    5   19 1   
    11    6   20 1   
    12    6   21 1   
    13    6   22 1   
    14    7    8 1   
    15    7    9 1   
    16   10   11 ar  
    17   10   15 ar  
    18   11   14 ar  
    19   11   23 1   
    20   12   13 ar  
    21   12   15 ar  
    22   12   24 1   
    23   13   14 ar  
    24   13   16 1   
    25   14   25 1   
    26   15   26 1   
    27   16   17 1   
    28   17   27 1   
    29   17   28 1   
    30   17   29 1   
@<TRIPOS>SUBSTRUCTURE
     1 TBL         1 TEMP              0 ****  ****    0 ROOT
