@<TRIPOS>MOLECULE
TBN
   33    35     1     0     0
SMALL
bcc


@<TRIPOS>ATOM
      1 O5'        -2.8120   -2.4830    1.1190 oh        1 TBN     -0.590800
      2 C5'        -2.9290   -1.6680   -0.0260 c3        1 TBN      0.121400
      3 C4'        -2.9670   -0.1880    0.3530 c3        1 TBN      0.055100
      4 O4'        -1.7450    0.1690    1.0100 os        1 TBN     -0.417600
      5 C1'        -0.9110    0.9890    0.1720 c3        1 TBN      0.248800
      6 N9          0.2360    0.2610   -0.3090 na        1 TBN     -0.190100
      7 C8          0.2660   -0.6810   -1.3570 cc        1 TBN     -0.131100
      8 C7          1.5040   -1.3060   -1.4180 cd        1 TBN     -0.139200
      9 C5          2.3010   -0.7720   -0.3450 ca        1 TBN     -0.381400
     10 C6          3.6290   -0.9680    0.1410 ca        1 TBN      0.726200
     11 N1          4.0590   -0.2640    1.2380 nb        1 TBN     -0.786000
     12 C2          3.1810    0.6170    1.7920 ca        1 TBN      0.682900
     13 N3          1.9110    0.9130    1.4380 nb        1 TBN     -0.734000
     14 C4          1.4760    0.2000    0.3530 ca        1 TBN      0.493800
     15 N6          4.4900   -1.8200   -0.5290 nh        1 TBN     -0.945500
     16 C2'        -1.8220    1.5330   -0.9730 c3        1 TBN      0.076100
     17 O2'        -2.0390    2.8990   -0.6790 oh        1 TBN     -0.585800
     18 C3'        -3.1410    0.7310   -0.8680 c3        1 TBN      0.087100
     19 O3'        -4.2460    1.5970   -0.7410 oh        1 TBN     -0.586800
     20 H5'        -2.0370   -2.1760    1.6090 ho        1 TBN      0.418000
     21 H5'1       -3.8980   -1.9700   -0.5040 h1        1 TBN      0.050200
     22 H5'2       -2.0750   -1.8650   -0.7290 h1        1 TBN      0.050200
     23 H4'        -3.7730   -0.0130    1.1200 h1        1 TBN      0.097700
     24 H1'        -0.5540    1.8280    0.8450 h2        1 TBN      0.144700
     25 H8         -0.6070   -0.8120   -1.9990 h4        1 TBN      0.164000
     26 H7          1.8190   -2.0520   -2.1420 ha        1 TBN      0.155000
     27 H2          3.5720    1.1710    2.6730 h5        1 TBN      0.052100
     28 HN61        5.3450   -2.0700   -0.0910 hn        1 TBN      0.427300
     29 HN62        4.0690   -2.4940   -1.1200 hn        1 TBN      0.427300
     30 H2'        -1.3590    1.4280   -1.9880 h1        1 TBN      0.070700
     31 H1         -2.6460    3.2350   -1.3540 ho        1 TBN      0.423000
     32 H3'        -3.3460    0.1450   -1.8040 h1        1 TBN      0.094700
     33 H3         -4.1260    2.1070    0.0740 ho        1 TBN      0.421000
@<TRIPOS>BOND
     1    1    2 1   
     2    1   20 1   
     3    2    3 1   
     4    2   21 1   
     5    2   22 1   
     6    3    4 1   
     7    3   18 1   
     8    3   23 1   
     9    4    5 1   
    10    5    6 1   
    11    5   16 1   
    12    5   24 1   
    13    6    7 1   
    14    6   14 1   
    15    7    8 2   
    16    7   25 1   
    17    8    9 1   
    18    8   26 1   
    19    9   10 ar  
    20    9   14 ar  
    21   10   11 ar  
    22   10   15 1   
    23   11   12 ar  
    24   12   13 ar  
    25   12   27 1   
    26   13   14 ar  
    27   15   28 1   
    28   15   29 1   
    29   16   17 1   
    30   16   18 1   
    31   16   30 1   
    32   17   31 1   
    33   18   19 1   
    34   18   32 1   
    35   19   33 1   
@<TRIPOS>SUBSTRUCTURE
     1 TBN         1 TEMP              0 ****  ****    0 ROOT
