@<TRIPOS>MOLECULE
TBN
   34    36     1     0     0
SMALL
bcc


@<TRIPOS>ATOM
      1 O5'         0.6490   -1.8000    0.4260 oh        1 TBN     -0.600800
      2 C5'         1.9100   -1.1970    0.2300 c3        1 TBN      0.111400
      3 C4'         2.1900   -0.1190    1.2770 c3        1 TBN      0.083100
      4 O4'         1.5960   -0.4860    2.5360 os        1 TBN     -0.395600
      5 C1'         2.5830   -0.8770    3.4840 c3        1 TBN      0.210800
      6 N9          2.5020   -2.3180    3.7140 na        1 TBN     -0.174100
      7 C8          1.6590   -3.2270    3.0730 cc        1 TBN      0.006900
      8 C7          1.7630   -4.4980    3.6480 cd        1 TBN     -0.239200
      9 C5          2.7050   -4.3980    4.7190 ca        1 TBN     -0.272400
     10 C6          3.2750   -5.2220    5.6990 ca        1 TBN      0.489200
     11 N1          4.1780   -4.7740    6.6100 nb        1 TBN     -0.688000
     12 C2          4.5140   -3.4560    6.5310 ca        1 TBN      0.661900
     13 N3          4.0630   -2.5230    5.6550 nb        1 TBN     -0.622000
     14 C4          3.1640   -2.9870    4.7520 ca        1 TBN      0.463800
     15 N6          2.8840   -6.6460    5.7620 n4        1 TBN     -0.816300
     16 C2'         3.9730   -0.3920    2.9510 c3        1 TBN      0.088100
     17 O2'         4.4730    0.6360    3.7640 oh        1 TBN     -0.564800
     18 C3'         3.6950    0.0920    1.5070 c3        1 TBN      0.088100
     19 O3'         3.9400    1.4810    1.4030 oh        1 TBN     -0.583800
     20 H5'        -0.0150   -1.0980    0.4350 ho        1 TBN      0.422000
     21 H5'1        1.9750   -0.7380   -0.7930 h1        1 TBN      0.063700
     22 H5'2        2.6400   -2.0470    0.3070 h1        1 TBN      0.063700
     23 H4'         1.6810    0.8490    1.0020 h1        1 TBN      0.117700
     24 H1'         2.3160   -0.3580    4.4550 h2        1 TBN      0.124700
     25 H8          1.0270   -2.8910    2.2310 h4        1 TBN      0.240000
     26 H7          1.2170   -5.3810    3.3260 ha        1 TBN      0.170000
     27 H2          5.2540   -3.1040    7.2880 h5        1 TBN      0.097100
     28 HN61        2.2190   -6.8370    5.0060 hn        1 TBN      0.471467
     29 HN62        3.7140   -7.2420    5.6550 hn        1 TBN      0.471467
     30 H2'         4.7560   -1.1940    2.9870 h1        1 TBN      0.108700
     31 H1          3.9140    1.4210    3.6430 ho        1 TBN      0.429000
     32 H3'         4.3150   -0.4750    0.7640 h1        1 TBN      0.074700
     33 H3          4.8970    1.6090    1.4680 ho        1 TBN      0.431000
     34 H63         2.4460   -6.8460    6.6700 hn        1 TBN      0.471467
@<TRIPOS>BOND
     1    1    2 1   
     2    1   20 1   
     3    2    3 1   
     4    2   21 1   
     5    2   22 1   
     6    3    4 1   
     7    3   18 1   
     8    3   23 1   
     9    4    5 1   
    10    5    6 1   
    11    5   16 1   
    12    5   24 1   
    13    6    7 1   
    14    6   14 1   
    15    7    8 2   
    16    7   25 1   
    17    8    9 1   
    18    8   26 1   
    19    9   10 ar  
    20    9   14 ar  
    21   10   11 ar  
    22   10   15 1   
    23   11   12 ar  
    24   12   13 ar  
    25   12   27 1   
    26   13   14 ar  
    27   15   28 1   
    28   15   29 1   
    29   15   34 1   
    30   16   17 1   
    31   16   18 1   
    32   16   30 1   
    33   17   31 1   
    34   18   19 1   
    35   18   32 1   
    36   19   33 1   
@<TRIPOS>SUBSTRUCTURE
     1 TBN         1 TEMP              0 ****  ****    0 ROOT
