@<TRIPOS>MOLECULE
TBN
   33    35     1     0     0
SMALL
bcc


@<TRIPOS>ATOM
      1 O5'         0.7670   -1.2810   -0.2720 oh        1 TBN     -0.592800
      2 C5'         2.1190   -1.1310    0.1090 c3        1 TBN      0.115400
      3 C4'         2.2780   -0.0730    1.1990 c3        1 TBN      0.052100
      4 O4'         1.5380   -0.4900    2.3590 os        1 TBN     -0.416600
      5 C1'         2.4160   -0.8860    3.4150 c3        1 TBN      0.224800
      6 N9          2.3640   -2.3170    3.6220 na        1 TBN     -0.196100
      7 C8          1.5780   -3.2640    2.9450 cc        1 TBN     -0.103100
      8 C7          1.7480   -4.5240    3.5100 cd        1 TBN     -0.156200
      9 C5          2.6750   -4.3790    4.6000 ca        1 TBN     -0.374400
     10 C6          3.2630   -5.2400    5.5790 ca        1 TBN      0.736200
     11 N1          4.1470   -4.7230    6.4940 nb        1 TBN     -0.791000
     12 C2          4.4000   -3.3870    6.4270 ca        1 TBN      0.684900
     13 N3          3.9220   -2.4550    5.5750 nb        1 TBN     -0.764000
     14 C4          3.0460   -2.9750    4.6550 ca        1 TBN      0.466800
     15 N6          2.9050   -6.5710    5.6270 nv        1 TBN     -0.952500
     16 C2'         3.8480   -0.3600    3.0620 c3        1 TBN      0.083100
     17 O2'         4.1480    0.7430    3.8890 oh        1 TBN     -0.594800
     18 C3'         3.7500    0.1350    1.6020 c3        1 TBN      0.134100
     19 O3'         4.1570    1.4680    1.4250 oh        1 TBN     -0.573800
     20 H5'         0.2510   -1.3870    0.5380 ho        1 TBN      0.409000
     21 H5'1        2.5240   -2.1170    0.4660 h1        1 TBN      0.056200
     22 H5'2        2.6530   -0.8100   -0.8240 h1        1 TBN      0.056200
     23 H4'         1.7970    0.8920    0.8790 h1        1 TBN      0.101700
     24 H1'         2.0220   -0.3740    4.3460 h2        1 TBN      0.105700
     25 H8          0.9540   -2.9460    2.1060 h4        1 TBN      0.178000
     26 H7          1.2660   -5.4440    3.1940 ha        1 TBN      0.156000
     27 H2          5.1140   -3.0140    7.1930 h5        1 TBN      0.050100
     28 HN61        3.4140   -7.1910    6.2090 hn        1 TBN      0.433800
     29 HN62        2.4450   -6.9440    4.8340 hn        1 TBN      0.433800
     30 H2'         4.6330   -1.1550    3.1600 h1        1 TBN      0.083700
     31 H1          4.4200    0.3830    4.7450 ho        1 TBN      0.435000
     32 H3'         4.4370   -0.4600    0.9380 h1        1 TBN      0.093700
     33 H3          3.7720    2.0010    2.1350 ho        1 TBN      0.426000
@<TRIPOS>BOND
     1    1    2 1   
     2    1   20 1   
     3    2    3 1   
     4    2   21 1   
     5    2   22 1   
     6    3    4 1   
     7    3   18 1   
     8    3   23 1   
     9    4    5 1   
    10    5    6 1   
    11    5   16 1   
    12    5   24 1   
    13    6    7 1   
    14    6   14 1   
    15    7    8 2   
    16    7   25 1   
    17    8    9 1   
    18    8   26 1   
    19    9   10 ar  
    20    9   14 ar  
    21   10   11 ar  
    22   10   15 1   
    23   11   12 ar  
    24   12   13 ar  
    25   12   27 1   
    26   13   14 ar  
    27   15   28 1   
    28   15   29 1   
    29   16   17 1   
    30   16   18 1   
    31   16   30 1   
    32   17   31 1   
    33   18   19 1   
    34   18   32 1   
    35   19   33 1   
@<TRIPOS>SUBSTRUCTURE
     1 TBN         1 TEMP              0 ****  ****    0 ROOT
