@<TRIPOS>MOLECULE
TBN
   33    35     1     0     0
SMALL
bcc


@<TRIPOS>ATOM
      1 O5'         0.8060   -1.0810   -0.4340 oh        1 TBN     -0.590800
      2 C5'         2.0550   -1.1330    0.2330 c3        1 TBN      0.109400
      3 C4'         2.0200   -0.0590    1.3200 c3        1 TBN      0.126100
      4 O4'         1.3580   -0.5600    2.4910 os        1 TBN     -0.393600
      5 C1'         2.3010   -0.9100    3.5070 c3        1 TBN      0.221800
      6 N9          2.3080   -2.3450    3.7110 na        1 TBN     -0.194100
      7 C8          1.4200   -3.2850    3.1630 cc        1 TBN     -0.098100
      8 C7          1.6820   -4.5510    3.6770 cd        1 TBN     -0.166200
      9 C5          2.7760   -4.4170    4.6000 ca        1 TBN     -0.369400
     10 C6          3.5220   -5.2910    5.4500 ca        1 TBN      0.728200
     11 N1          4.5230   -4.7790    6.2380 nb        1 TBN     -0.789000
     12 C2          4.7690   -3.4430    6.1420 ca        1 TBN      0.682900
     13 N3          4.1630   -2.5040    5.3840 nb        1 TBN     -0.767000
     14 C4          3.1510   -3.0130    4.6090 ca        1 TBN      0.463800
     15 N6          3.2690   -6.6500    5.4320 nh        1 TBN     -0.945500
     16 C2'         3.6930   -0.3320    3.0870 c3        1 TBN      0.084100
     17 O2'         4.1290    0.6200    4.0300 oh        1 TBN     -0.599800
     18 C3'         3.4400    0.3790    1.7380 c3        1 TBN      0.130100
     19 O3'         3.4370    1.7890    1.8070 oh        1 TBN     -0.587800
     20 H5'         0.8200   -1.7780   -1.1010 ho        1 TBN      0.403000
     21 H5'1        2.2080   -2.1480    0.6910 h1        1 TBN      0.034200
     22 H5'2        2.8820   -0.9200   -0.4960 h1        1 TBN      0.034200
     23 H4'         1.3960    0.8180    0.9900 h1        1 TBN      0.124700
     24 H1'         1.9330   -0.4120    4.4550 h2        1 TBN      0.103700
     25 H8          0.6610   -2.9530    2.4480 h4        1 TBN      0.190000
     26 H7          1.1620   -5.4710    3.4260 ha        1 TBN      0.155000
     27 H2          5.5920   -3.0770    6.7930 h5        1 TBN      0.049100
     28 HN61        2.3910   -6.9290    5.0670 hn        1 TBN      0.428300
     29 HN62        3.6710   -7.2190    6.1390 hn        1 TBN      0.428300
     30 H2'         4.4630   -1.1390    2.9600 h1        1 TBN      0.075700
     31 H1          4.4230    0.1300    4.8100 ho        1 TBN      0.441000
     32 H3'         4.2140    0.0600    0.9880 h1        1 TBN      0.057700
     33 H3          4.0860    2.0610    2.4700 ho        1 TBN      0.432000
@<TRIPOS>BOND
     1    1    2 1   
     2    1   20 1   
     3    2    3 1   
     4    2   21 1   
     5    2   22 1   
     6    3    4 1   
     7    3   18 1   
     8    3   23 1   
     9    4    5 1   
    10    5    6 1   
    11    5   16 1   
    12    5   24 1   
    13    6    7 1   
    14    6   14 1   
    15    7    8 2   
    16    7   25 1   
    17    8    9 1   
    18    8   26 1   
    19    9   10 ar  
    20    9   14 ar  
    21   10   11 ar  
    22   10   15 1   
    23   11   12 ar  
    24   12   13 ar  
    25   12   27 1   
    26   13   14 ar  
    27   15   28 1   
    28   15   29 1   
    29   16   17 1   
    30   16   18 1   
    31   16   30 1   
    32   17   31 1   
    33   18   19 1   
    34   18   32 1   
    35   19   33 1   
@<TRIPOS>SUBSTRUCTURE
     1 TBN         1 TEMP              0 ****  ****    0 ROOT
