@<TRIPOS>MOLECULE
TBO
   41    43     1     0     0
SMALL
bcc


@<TRIPOS>ATOM
      1 N1         -0.9700    1.1000    3.5490 n         1 TBO     -0.401100
      2 C1A        -1.6260    0.4080    2.5230 ca        1 TBO     -0.008400
      3 C2          0.3840    1.2760    3.2100 c         1 TBO      0.515400
      4 S2          1.4780    1.9970    4.1110 s         1 TBO     -0.518400
      5 N3          0.5740    0.6820    1.9400 n         1 TBO     -0.289000
      6 C3A        -0.6460    0.1420    1.4830 ca        1 TBO      0.028600
      7 C4          1.8580    0.7100    1.2960 c3        1 TBO      0.101000
      8 C5          2.0420   -0.3570    0.1860 c3        1 TBO      0.185500
      9 N6          1.1060   -0.0820   -0.9000 n3        1 TBO     -0.757600
     10 C7         -0.1040   -0.8770   -0.8170 c3        1 TBO      0.223100
     11 C7A        -1.0200   -0.5490    0.3260 ca        1 TBO     -0.053300
     12 C8         -2.3610   -0.9790    0.2550 ca        1 TBO      0.008400
     13 CL8        -2.9060   -1.8710   -1.0950 cl        1 TBO     -0.093400
     14 C9         -3.2990   -0.7160    1.2580 ca        1 TBO     -0.117000
     15 C10        -2.9460   -0.0130    2.4070 ca        1 TBO     -0.126000
     16 C11         3.5270   -0.3640   -0.1690 c3        1 TBO     -0.105100
     17 C12         1.6750   -0.0360   -2.2370 c3        1 TBO      0.222000
     18 C13         0.7610    0.5400   -3.2720 c2        1 TBO     -0.188200
     19 C14         0.8950    0.2910   -4.5830 c2        1 TBO     -0.115400
     20 C15        -0.0010    0.9200   -5.5840 c3        1 TBO     -0.060900
     21 C16         1.9330   -0.6150   -5.1320 c3        1 TBO     -0.060900
     22 HN1        -1.3760    1.4330    4.3860 hn        1 TBO      0.366500
     23 H41         2.6420    0.5400    2.0940 h1        1 TBO      0.077700
     24 H42         2.0210    1.7390    0.8600 h1        1 TBO      0.077700
     25 H5          1.8160   -1.3750    0.6370 h1        1 TBO      0.045700
     26 H71         0.1260   -1.9860   -0.7510 h1        1 TBO      0.059200
     27 H72        -0.6820   -0.7140   -1.7770 h1        1 TBO      0.059200
     28 H9         -4.3360   -1.0700    1.1420 ha        1 TBO      0.153000
     29 H10        -3.6860    0.1940    3.1920 ha        1 TBO      0.149000
     30 H111        4.1110   -0.6740    0.7320 hc        1 TBO      0.048033
     31 H112        3.7380   -1.0910   -0.9890 hc        1 TBO      0.048033
     32 H113        3.8770    0.6490   -0.4800 hc        1 TBO      0.048033
     33 H121        2.5850    0.6350   -2.2010 h1        1 TBO      0.040700
     34 H122        2.0200   -1.0620   -2.5710 h1        1 TBO      0.040700
     35 H13        -0.0190    1.2300   -2.9080 ha        1 TBO      0.140000
     36 H151       -0.5130    0.1310   -6.1890 hc        1 TBO      0.042700
     37 H152       -0.7820    1.5560   -5.1000 hc        1 TBO      0.042700
     38 H153        0.5950    1.5620   -6.2810 hc        1 TBO      0.042700
     39 H161        1.7270   -1.6720   -4.8270 hc        1 TBO      0.042700
     40 H162        1.9580   -0.5720   -6.2480 hc        1 TBO      0.042700
     41 H163        2.9450   -0.3340   -4.7470 hc        1 TBO      0.042700
@<TRIPOS>BOND
     1    1    2 1   
     2    1    3 1   
     3    1   22 1   
     4    2    6 ar  
     5    2   15 ar  
     6    3    4 2   
     7    3    5 1   
     8    5    6 1   
     9    5    7 1   
    10    6   11 ar  
    11    7    8 1   
    12    7   23 1   
    13    7   24 1   
    14    8    9 1   
    15    8   16 1   
    16    8   25 1   
    17    9   10 1   
    18    9   17 1   
    19   10   11 1   
    20   10   26 1   
    21   10   27 1   
    22   11   12 ar  
    23   12   13 1   
    24   12   14 ar  
    25   14   15 ar  
    26   14   28 1   
    27   15   29 1   
    28   16   30 1   
    29   16   31 1   
    30   16   32 1   
    31   17   18 1   
    32   17   33 1   
    33   17   34 1   
    34   18   19 2   
    35   18   35 1   
    36   19   20 1   
    37   19   21 1   
    38   20   36 1   
    39   20   37 1   
    40   20   38 1   
    41   21   39 1   
    42   21   40 1   
    43   21   41 1   
@<TRIPOS>SUBSTRUCTURE
     1 TBO         1 TEMP              0 ****  ****    0 ROOT
