@<TRIPOS>MOLECULE
TBO
   41    43     1     0     0
SMALL
bcc


@<TRIPOS>ATOM
      1 N1          0.2230    1.2120    0.0180 ns        1 TBO     -0.401100
      2 C1A         1.4240    0.4940   -0.0660 ca        1 TBO     -0.008400
      3 C2         -0.1780    1.3050    1.3630 c         1 TBO      0.515400
      4 S2         -1.4970    2.0240    1.8870 s         1 TBO     -0.518400
      5 N3          0.7970    0.6320    2.1350 n         1 TBO     -0.289000
      6 C3A         1.8040    0.1240    1.2880 ca        1 TBO      0.028600
      7 C4          0.6880    0.5640    3.5660 c3        1 TBO      0.101000
      8 C5          1.5180   -0.5720    4.2190 c3        1 TBO      0.185500
      9 N6          2.9380   -0.3160    3.9930 n3        1 TBO     -0.757600
     10 C7          3.4710   -1.0470    2.8600 c3        1 TBO      0.223100
     11 C7A         2.9710   -0.6130    1.5130 ca        1 TBO     -0.053300
     12 C8          3.7120   -0.9830    0.3720 ca        1 TBO      0.008400
     13 Cl8         5.1270   -1.9230    0.5360 cl        1 TBO     -0.093400
     14 C9          3.3420   -0.6210   -0.9270 ca        1 TBO     -0.117000
     15 C10         2.1930    0.1290   -1.1650 ca        1 TBO     -0.126000
     16 C11         1.0570   -0.6680    5.6710 c3        1 TBO     -0.105100
     17 C12         3.7910   -0.3710    5.1690 c3        1 TBO      0.222000
     18 C13         5.1630    0.1870    4.9570 c2        1 TBO     -0.188200
     19 C14         6.2110   -0.1420    5.7270 c2        1 TBO     -0.115400
     20 C15         7.5460    0.4710    5.5160 c3        1 TBO     -0.060900
     21 C16         6.1240   -1.1250    6.8340 c3        1 TBO     -0.060900
     22 HN1        -0.2770    1.6100   -0.7360 hn        1 TBO      0.366500
     23 H41         1.0030    1.5570    4.0000 h1        1 TBO      0.077700
     24 H42        -0.4040    0.4030    3.8160 h1        1 TBO      0.077700
     25 H5          1.2240   -1.5510    3.7240 h1        1 TBO      0.045700
     26 H71         3.2690   -2.1600    2.9470 h1        1 TBO      0.059200
     27 H72         4.5950   -0.9110    2.8690 h1        1 TBO      0.059200
     28 H9          3.9660   -0.9320   -1.7800 ha        1 TBO      0.153000
     29 H10         1.9060    0.4140   -2.1860 ha        1 TBO      0.149000
     30 H111        1.1690    0.3080    6.2010 hc        1 TBO      0.048033
     31 H112       -0.0230   -0.9540    5.6880 hc        1 TBO      0.048033
     32 H113        1.6340   -1.4490    6.2220 hc        1 TBO      0.048033
     33 H121        3.3080    0.2570    5.9760 h1        1 TBO      0.040700
     34 H122        3.8740   -1.4290    5.5640 h1        1 TBO      0.040700
     35 H13         5.2700    0.9320    4.1500 ha        1 TBO      0.140000
     36 H151        7.5480    1.1690    4.6440 hc        1 TBO      0.042700
     37 H152        7.8510    1.0440    6.4270 hc        1 TBO      0.042700
     38 H153        8.3090   -0.3270    5.3340 hc        1 TBO      0.042700
     39 H161        5.9440   -2.1520    6.4280 hc        1 TBO      0.042700
     40 H162        5.2790   -0.8700    7.5220 hc        1 TBO      0.042700
     41 H163        7.0690   -1.1460    7.4310 hc        1 TBO      0.042700
@<TRIPOS>BOND
     1    1    2 1   
     2    1    3 1   
     3    1   22 1   
     4    2    6 ar  
     5    2   15 ar  
     6    3    4 2   
     7    3    5 1   
     8    5    6 1   
     9    5    7 1   
    10    6   11 ar  
    11    7    8 1   
    12    7   23 1   
    13    7   24 1   
    14    8    9 1   
    15    8   16 1   
    16    8   25 1   
    17    9   10 1   
    18    9   17 1   
    19   10   11 1   
    20   10   26 1   
    21   10   27 1   
    22   11   12 ar  
    23   12   13 1   
    24   12   14 ar  
    25   14   15 ar  
    26   14   28 1   
    27   15   29 1   
    28   16   30 1   
    29   16   31 1   
    30   16   32 1   
    31   17   18 1   
    32   17   33 1   
    33   17   34 1   
    34   18   19 2   
    35   18   35 1   
    36   19   20 1   
    37   19   21 1   
    38   20   36 1   
    39   20   37 1   
    40   20   38 1   
    41   21   39 1   
    42   21   40 1   
    43   21   41 1   
@<TRIPOS>SUBSTRUCTURE
     1 TBO         1 TEMP              0 ****  ****    0 ROOT
