@<TRIPOS>MOLECULE
TBO
   41    43     1     0     0
SMALL
bcc


@<TRIPOS>ATOM
      1 N1          0.1970    1.0790   -0.0100 n         1 TBO     -0.401100
      2 C1A         1.4030    0.3700   -0.0770 ca        1 TBO     -0.008400
      3 C2         -0.2000    1.2110    1.3330 c         1 TBO      0.515400
      4 S2         -1.5210    1.9350    1.8410 s         1 TBO     -0.518400
      5 N3          0.7850    0.5700    2.1220 n         1 TBO     -0.289000
      6 C3A         1.7920    0.0450    1.2860 ca        1 TBO      0.028600
      7 C4          0.6820    0.5460    3.5540 c3        1 TBO      0.101000
      8 C5          1.5250   -0.5620    4.2390 c3        1 TBO      0.185500
      9 N6          2.9410   -0.3010    3.9980 n3        1 TBO     -0.757600
     10 C7          3.4750   -1.0630    2.8860 c3        1 TBO      0.223100
     11 C7A         2.9660   -0.6750    1.5290 ca        1 TBO     -0.053300
     12 C8          3.7050   -1.0750    0.3970 ca        1 TBO      0.008400
     13 CL8         5.1290   -1.9980    0.5830 cl        1 TBO     -0.093400
     14 C9          3.3270   -0.7560   -0.9120 ca        1 TBO     -0.117000
     15 C10         2.1700   -0.0240   -1.1680 ca        1 TBO     -0.126000
     16 C11         1.0710   -0.6160    5.6960 c3        1 TBO     -0.105100
     17 C12         3.8000   -0.3130    5.1720 c3        1 TBO      0.222000
     18 C13         5.1660    0.2500    4.9350 c2        1 TBO     -0.188200
     19 C14         6.2210   -0.0460    5.7110 c2        1 TBO     -0.115400
     20 C15         7.5490    0.5710    5.4750 c3        1 TBO     -0.060900
     21 C16         6.1470   -0.9940    6.8480 c3        1 TBO     -0.060900
     22 HN1        -0.3100    1.4500   -0.7730 hn        1 TBO      0.366500
     23 H41        -0.4070    0.3840    3.8140 h1        1 TBO      0.077700
     24 H42         0.9910    1.5550    3.9560 h1        1 TBO      0.077700
     25 H5          1.2370   -1.5580    3.7760 h1        1 TBO      0.045700
     26 H71         3.2830   -2.1750    3.0080 h1        1 TBO      0.059200
     27 H72         4.5980   -0.9180    2.8860 h1        1 TBO      0.059200
     28 H9          3.9500   -1.0890   -1.7570 ha        1 TBO      0.153000
     29 H10         1.8770    0.2270   -2.1960 ha        1 TBO      0.149000
     30 H111       -0.0070   -0.9100    5.7260 hc        1 TBO      0.048033
     31 H112        1.6570   -1.3750    6.2670 hc        1 TBO      0.048033
     32 H113        1.1770    0.3770    6.1940 hc        1 TBO      0.048033
     33 H121        3.8940   -1.3570    5.5980 h1        1 TBO      0.040700
     34 H122        3.3160    0.3360    5.9600 h1        1 TBO      0.040700
     35 H13         5.2630    0.9700    4.1050 ha        1 TBO      0.140000
     36 H151        7.8540    1.1750    6.3660 hc        1 TBO      0.042700
     37 H152        8.3180   -0.2250    5.3140 hc        1 TBO      0.042700
     38 H153        7.5420    1.2420    4.5810 hc        1 TBO      0.042700
     39 H161        5.9730   -2.0350    6.4760 hc        1 TBO      0.042700
     40 H162        5.3030   -0.7240    7.5320 hc        1 TBO      0.042700
     41 H163        7.0940   -0.9890    7.4410 hc        1 TBO      0.042700
@<TRIPOS>BOND
     1    1    2 1   
     2    1    3 1   
     3    1   22 1   
     4    2    6 ar  
     5    2   15 ar  
     6    3    4 2   
     7    3    5 1   
     8    5    6 1   
     9    5    7 1   
    10    6   11 ar  
    11    7    8 1   
    12    7   23 1   
    13    7   24 1   
    14    8    9 1   
    15    8   16 1   
    16    8   25 1   
    17    9   10 1   
    18    9   17 1   
    19   10   11 1   
    20   10   26 1   
    21   10   27 1   
    22   11   12 ar  
    23   12   13 1   
    24   12   14 ar  
    25   14   15 ar  
    26   14   28 1   
    27   15   29 1   
    28   16   30 1   
    29   16   31 1   
    30   16   32 1   
    31   17   18 1   
    32   17   33 1   
    33   17   34 1   
    34   18   19 2   
    35   18   35 1   
    36   19   20 1   
    37   19   21 1   
    38   20   36 1   
    39   20   37 1   
    40   20   38 1   
    41   21   39 1   
    42   21   40 1   
    43   21   41 1   
@<TRIPOS>SUBSTRUCTURE
     1 TBO         1 TEMP              0 ****  ****    0 ROOT
