@<TRIPOS>MOLECULE
TBP
   13    13     1     0     0
SMALL
bcc


@<TRIPOS>ATOM
      1 O1         -0.2040    0.2260    2.6300 oh        1 TBP     -0.470100
      2 C1         -0.0940    0.1410    1.2690 ca        1 TBP      0.199100
      3 C2          1.1470    0.1350    0.5970 ca        1 TBP     -0.093900
      4 C3          1.1810    0.0460   -0.7960 ca        1 TBP     -0.030500
      5 C4         -0.0060   -0.0370   -1.5250 ca        1 TBP     -0.071900
      6 C5         -1.2350   -0.0320   -0.8610 ca        1 TBP     -0.030500
      7 C6         -1.2950    0.0570    0.5300 ca        1 TBP     -0.093900
      8 BR2         2.7730    0.2440    1.5240 br        1 TBP     -0.056600
      9 BR4         0.0490   -0.1570   -3.3900 br        1 TBP     -0.066100
     10 BR6        -2.9840    0.0580    1.3400 br        1 TBP     -0.056600
     11 H1          0.6890    0.2780    3.0130 ho        1 TBP      0.439000
     12 H3          2.1520    0.0410   -1.3200 ha        1 TBP      0.166000
     13 H5         -2.1720   -0.0980   -1.4420 ha        1 TBP      0.166000
@<TRIPOS>BOND
     1    1    2 1   
     2    1   11 1   
     3    2    3 ar  
     4    2    7 ar  
     5    3    4 ar  
     6    3    8 1   
     7    4    5 ar  
     8    4   12 1   
     9    5    6 ar  
    10    5    9 1   
    11    6    7 ar  
    12    6   13 1   
    13    7   10 1   
@<TRIPOS>SUBSTRUCTURE
     1 TBP         1 TEMP              0 ****  ****    0 ROOT
