@<TRIPOS>MOLECULE
TBP
   13    13     1     0     0
SMALL
bcc


@<TRIPOS>ATOM
      1 O1         -0.0210    0.2180    0.2020 oh        1 TBP     -0.470100
      2 C1          1.3400    0.1360    0.0930 ca        1 TBP      0.199100
      3 C2          2.0770    0.0500    1.2950 ca        1 TBP     -0.093900
      4 C3          3.4690   -0.0360    1.2360 ca        1 TBP     -0.030500
      5 C4          4.1340   -0.0370    0.0070 ca        1 TBP     -0.071900
      6 C5          3.4050    0.0480   -1.1800 ca        1 TBP     -0.030500
      7 C6          2.0130    0.1350   -1.1470 ca        1 TBP     -0.093900
      8 BR2         1.2660    0.0450    2.9830 br        1 TBP     -0.056600
      9 BR4         5.9990   -0.1530   -0.0460 br        1 TBP     -0.066100
     10 BR6         1.0870    0.2470   -2.7740 br        1 TBP     -0.056600
     11 H1         -0.4040    0.2720   -0.6910 ho        1 TBP      0.439000
     12 H3          4.0490   -0.1040    2.1730 ha        1 TBP      0.166000
     13 H5          3.9310    0.0470   -2.1510 ha        1 TBP      0.166000
@<TRIPOS>BOND
     1    1    2 1   
     2    1   11 1   
     3    2    3 ar  
     4    2    7 ar  
     5    3    4 ar  
     6    3    8 1   
     7    4    5 ar  
     8    4   12 1   
     9    5    6 ar  
    10    5    9 1   
    11    6    7 ar  
    12    6   13 1   
    13    7   10 1   
@<TRIPOS>SUBSTRUCTURE
     1 TBP         1 TEMP              0 ****  ****    0 ROOT
