@<TRIPOS>MOLECULE
TBS
   14    15     1     0     0
SMALL
bcc


@<TRIPOS>ATOM
      1 C1         -0.4450    0.0010   -0.7040 ca        1 TBS      0.042100
      2 C2         -0.4290    0.0010    0.7120 ca        1 TBS     -0.024900
      3 C3          0.7670    0.0020    1.4350 ca        1 TBS      0.080100
      4 C4          0.7330    0.0030   -1.4530 ca        1 TBS     -0.011900
      5 N5          3.2930    0.0050   -1.0890 na        1 TBS     -0.046100
      6 C6          1.9370    0.0040   -0.7400 ca        1 TBS     -0.041200
      7 C7          1.9610    0.0030    0.7080 ca        1 TBS      0.032400
      8 N8          3.3390    0.0040    1.0810 nc        1 TBS     -0.189400
      9 N9          4.0450    0.0050    0.0330 nd        1 TBS     -0.116400
     10 BR10        0.7460    0.0030   -3.3140 br        1 TBS     -0.029100
     11 BR11       -2.0830    0.0000   -1.6050 br        1 TBS     -0.016100
     12 BR12       -2.0500   -0.0010    1.6420 br        1 TBS     -0.020100
     13 BR13        0.7990    0.0010    3.2950 br        1 TBS     -0.002100
     14 H51         3.6900    0.0060   -2.0000 hn        1 TBS      0.345700
@<TRIPOS>BOND
     1    1    2 ar  
     2    1    4 ar  
     3    1   11 1   
     4    2    3 ar  
     5    2   12 1   
     6    3    7 ar  
     7    3   13 1   
     8    4    6 ar  
     9    4   10 1   
    10    5    6 1   
    11    5    9 1   
    12    5   14 1   
    13    6    7 ar  
    14    7    8 1   
    15    8    9 2   
@<TRIPOS>SUBSTRUCTURE
     1 TBS         1 TEMP              0 ****  ****    0 ROOT
