@<TRIPOS>MOLECULE
TBS
   14    10     1     0     0
SMALL
bcc


@<TRIPOS>ATOM
      1 C1         -0.5700    0.0030   -1.5710 c1        1 TBS     -0.118750
      2 C2          0.8170    0.0030   -1.5710 c1        1 TBS     -0.118750
      3 C3          1.5100    0.0030   -0.3710 c1        1 TBS     -0.118750
      4 C4         -1.2630    0.0030   -0.3710 c1        1 TBS     -0.118750
      5 N5         -0.9780    0.0030    2.1390 n2        1 TBS     -0.221000
      6 C6         -0.5600    0.0030    0.8490 c1        1 TBS      0.004000
      7 C7          0.8070    0.0030    0.8490 c1        1 TBS     -0.107000
      8 N8          1.2250    0.0030    2.1390 n1        1 TBS     -0.050000
      9 N9          0.1240    0.0030    2.9390 n2        1 TBS      0.063000
     10 BR10       -3.1370   -0.1250   -0.7250 br        1 TBS      0.123250
     11 BR11       -1.3760    0.1290   -3.3000 br        1 TBS      0.123250
     12 BR12        1.8280   -0.0580   -3.1920 br        1 TBS      0.123250
     13 BR13        3.4170    0.0230   -0.2360 br        1 TBS      0.123250
     14 H51        -1.8450    0.0030    2.4220 DU        1 TBS      0.296000
@<TRIPOS>BOND
     1    1    4 1   
     2    1   11 1   
     3    2    3 1   
     4    2   12 1   
     5    3   13 1   
     6    4   10 1   
     7    5    6 1   
     8    5    9 1   
     9    6    7 1   
    10    8    9 1   
@<TRIPOS>SUBSTRUCTURE
     1 TBS         1 TEMP              0 ****  ****    0 ROOT
