@<TRIPOS>MOLECULE
TBT
   37    40     1     0     0
SMALL
bcc


@<TRIPOS>ATOM
      1 C4C         0.0390   -0.0930    0.1680 c3        1 TBT     -0.071100
      2 C9C         1.5520    0.0040    0.0250 c3        1 TBT      0.108100
      3 O3          2.0770   -1.1670   -0.5900 oh        1 TBT     -0.610800
      4 C8B         2.2310    0.0910    1.3990 c3        1 TBT      0.156100
      5 O2          1.9890   -1.0690    2.1790 oh        1 TBT     -0.600800
      6 C3B         1.7080    1.2880    2.2120 c3        1 TBT      0.189400
      7 O1          2.6130    2.3510    1.9150 oh        1 TBT     -0.600800
      8 C3A         0.2830    1.6800    1.9390 ca        1 TBT     -0.104300
      9 C2A        -3.4420    4.5860    3.1040 ca        1 TBT     -0.113000
     10 C4A        -0.5070    1.0380    0.9610 ca        1 TBT     -0.047300
     11 C1A        -2.1620    4.1770    3.2900 ca        1 TBT     -0.117000
     12 C5A        -1.8200    1.4410    0.7570 ca        1 TBT     -0.120000
     13 C4B        -2.3990    2.4840    1.5090 ca        1 TBT     -0.010000
     14 C6A        -5.6070    4.4100    1.9270 ca        1 TBT     -0.117000
     15 C7A        -6.4150    3.8250    0.9730 ca        1 TBT     -0.125000
     16 C8A        -5.9110    2.7830    0.1750 ca        1 TBT     -0.127000
     17 C5B        -4.2760    3.9720    2.1100 ca        1 TBT     -0.034000
     18 C9B        -3.7630    2.9220    1.3090 ca        1 TBT     -0.021000
     19 C11        -1.6070    3.1170    2.4960 ca        1 TBT     -0.035000
     20 C9A        -4.6130    2.3410    0.3400 ca        1 TBT     -0.118000
     21 C10        -0.2750    2.7000    2.6960 ca        1 TBT     -0.117000
     22 H4C1       -0.4320   -0.1260   -0.8500 hc        1 TBT      0.063200
     23 H4C2       -0.2090   -1.0590    0.6910 hc        1 TBT      0.063200
     24 H9C         1.8340    0.9100   -0.5800 h1        1 TBT      0.060700
     25 H3          1.6440   -1.2520   -1.4470 ho        1 TBT      0.409000
     26 H8B         3.3420    0.2100    1.2470 h1        1 TBT      0.071700
     27 HO2         2.2250   -1.8250    1.6240 ho        1 TBT      0.422000
     28 H3B         1.8030    1.0310    3.3090 h1        1 TBT      0.070700
     29 H1          2.2210    3.1660    2.2510 ho        1 TBT      0.408000
     30 H2A        -3.8750    5.3980    3.7090 ha        1 TBT      0.135000
     31 H1A        -1.5190    4.6430    4.0510 ha        1 TBT      0.134000
     32 H5A        -2.4140    0.9250   -0.0120 ha        1 TBT      0.134000
     33 H6A        -5.9890    5.2270    2.5580 ha        1 TBT      0.134000
     34 H7A        -7.4500    4.1670    0.8320 ha        1 TBT      0.134000
     35 H8A        -6.5600    2.3200   -0.5830 ha        1 TBT      0.133000
     36 H9A        -4.2420    1.5240   -0.2960 ha        1 TBT      0.132000
     37 H10         0.3220    3.1960    3.4780 ha        1 TBT      0.131000
@<TRIPOS>BOND
     1    1    2 1   
     2    1   10 1   
     3    1   22 1   
     4    1   23 1   
     5    2    3 1   
     6    2    4 1   
     7    2   24 1   
     8    3   25 1   
     9    4    5 1   
    10    4    6 1   
    11    4   26 1   
    12    5   27 1   
    13    6    7 1   
    14    6    8 1   
    15    6   28 1   
    16    7   29 1   
    17    8   10 ar  
    18    8   21 ar  
    19    9   11 ar  
    20    9   17 ar  
    21    9   30 1   
    22   10   12 ar  
    23   11   19 ar  
    24   11   31 1   
    25   12   13 ar  
    26   12   32 1   
    27   13   18 ar  
    28   13   19 ar  
    29   14   15 ar  
    30   14   17 ar  
    31   14   33 1   
    32   15   16 ar  
    33   15   34 1   
    34   16   20 ar  
    35   16   35 1   
    36   17   18 ar  
    37   18   20 ar  
    38   19   21 ar  
    39   20   36 1   
    40   21   37 1   
@<TRIPOS>SUBSTRUCTURE
     1 TBT         1 TEMP              0 ****  ****    0 ROOT
