@<TRIPOS>MOLECULE
TBT
   37    40     1     0     0
SMALL
bcc


@<TRIPOS>ATOM
      1 C4C         0.0420   -0.0880    0.1630 c3        1 TBT     -0.071100
      2 C9C         1.5550    0.0110    0.0220 c3        1 TBT      0.108100
      3 O3          2.0810   -1.1580   -0.5960 oh        1 TBT     -0.610800
      4 C8B         2.2330    0.0940    1.3960 c3        1 TBT      0.156100
      5 O2          1.9910   -1.0680    2.1730 oh        1 TBT     -0.600800
      6 C3B         1.7080    1.2890    2.2120 c3        1 TBT      0.189400
      7 O1          2.6120    2.3530    1.9190 oh        1 TBT     -0.600800
      8 C3A         0.2830    1.6800    1.9400 ca        1 TBT     -0.104300
      9 C2A        -3.4460    4.5790    3.1100 ca        1 TBT     -0.113000
     10 C4A        -0.5060    1.0400    0.9590 ca        1 TBT     -0.047300
     11 C1A        -2.1650    4.1710    3.2950 ca        1 TBT     -0.117000
     12 C5A        -1.8190    1.4430    0.7550 ca        1 TBT     -0.120000
     13 C4B        -2.4000    2.4830    1.5100 ca        1 TBT     -0.010000
     14 C6A        -5.6090    4.4050    1.9310 ca        1 TBT     -0.117000
     15 C7A        -6.4160    3.8210    0.9750 ca        1 TBT     -0.125000
     16 C8A        -5.9110    2.7820    0.1740 ca        1 TBT     -0.127000
     17 C5B        -4.2780    3.9670    2.1130 ca        1 TBT     -0.034000
     18 C9B        -3.7640    2.9200    1.3100 ca        1 TBT     -0.021000
     19 C11        -1.6090    3.1140    2.4990 ca        1 TBT     -0.035000
     20 C9A        -4.6120    2.3410    0.3390 ca        1 TBT     -0.118000
     21 C10        -0.2770    2.6970    2.6980 ca        1 TBT     -0.117000
     22 H4C1       -0.4290   -0.1190   -0.8550 hc        1 TBT      0.063200
     23 H4C2       -0.2060   -1.0560    0.6830 hc        1 TBT      0.063200
     24 H9C         1.8370    0.9190   -0.5810 h1        1 TBT      0.060700
     25 H3          1.6490   -1.2410   -1.4540 ho        1 TBT      0.409000
     26 H8B         3.3440    0.2140    1.2450 h1        1 TBT      0.071700
     27 HO2         2.2290   -1.8220    1.6160 ho        1 TBT      0.422000
     28 H3B         1.8020    1.0290    3.3090 h1        1 TBT      0.070700
     29 H1          2.2200    3.1670    2.2570 ho        1 TBT      0.408000
     30 H2A        -3.8800    5.3890    3.7170 ha        1 TBT      0.135000
     31 H1A        -1.5230    4.6360    4.0590 ha        1 TBT      0.134000
     32 H5A        -2.4130    0.9280   -0.0160 ha        1 TBT      0.134000
     33 H6A        -5.9930    5.2200    2.5640 ha        1 TBT      0.134000
     34 H7A        -7.4520    4.1630    0.8340 ha        1 TBT      0.134000
     35 H8A        -6.5590    2.3210   -0.5860 ha        1 TBT      0.133000
     36 H9A        -4.2410    1.5260   -0.2990 ha        1 TBT      0.132000
     37 H10         0.3200    3.1920    3.4820 ha        1 TBT      0.131000
@<TRIPOS>BOND
     1    1    2 1   
     2    1   10 1   
     3    1   22 1   
     4    1   23 1   
     5    2    3 1   
     6    2    4 1   
     7    2   24 1   
     8    3   25 1   
     9    4    5 1   
    10    4    6 1   
    11    4   26 1   
    12    5   27 1   
    13    6    7 1   
    14    6    8 1   
    15    6   28 1   
    16    7   29 1   
    17    8   10 ar  
    18    8   21 ar  
    19    9   11 ar  
    20    9   17 ar  
    21    9   30 1   
    22   10   12 ar  
    23   11   19 ar  
    24   11   31 1   
    25   12   13 ar  
    26   12   32 1   
    27   13   18 ar  
    28   13   19 ar  
    29   14   15 ar  
    30   14   17 ar  
    31   14   33 1   
    32   15   16 ar  
    33   15   34 1   
    34   16   20 ar  
    35   16   35 1   
    36   17   18 ar  
    37   18   20 ar  
    38   19   21 ar  
    39   20   36 1   
    40   21   37 1   
@<TRIPOS>SUBSTRUCTURE
     1 TBT         1 TEMP              0 ****  ****    0 ROOT
