@<TRIPOS>MOLECULE
TBU
   15    14     1     0     0
SMALL
bcc


@<TRIPOS>ATOM
      1 O           0.0230    0.0390   -0.0230 oh        1 TBU     -0.598800
      2 C           1.4520   -0.0080    0.0040 c3        1 TBU      0.145800
      3 C1          1.9430   -0.0060    1.4470 c3        1 TBU     -0.109100
      4 C2          1.9440   -1.2560   -0.7190 c3        1 TBU     -0.109100
      5 C3          1.9150    1.2500   -0.7210 c3        1 TBU     -0.109100
      6 HO         -0.2890   -0.7510    0.4330 ho        1 TBU      0.397000
      7 H11         3.0570    0.0370    1.4700 hc        1 TBU      0.042700
      8 H12         1.6070   -0.9310    1.9730 hc        1 TBU      0.042700
      9 H13         1.5330    0.8800    1.9870 hc        1 TBU      0.042700
     10 H21         1.6080   -2.1740   -0.1800 hc        1 TBU      0.042700
     11 H22         1.5340   -1.2800   -1.7560 hc        1 TBU      0.042700
     12 H23         3.0580   -1.2540   -0.7670 hc        1 TBU      0.042700
     13 H31         1.5280    2.1550   -0.1980 hc        1 TBU      0.042700
     14 H32         1.5280    1.2500   -1.7670 hc        1 TBU      0.042700
     15 H33         3.0300    1.2810   -0.7390 hc        1 TBU      0.042700
@<TRIPOS>BOND
     1    1    2 1   
     2    1    6 1   
     3    2    3 1   
     4    2    4 1   
     5    2    5 1   
     6    3    7 1   
     7    3    8 1   
     8    3    9 1   
     9    4   10 1   
    10    4   11 1   
    11    4   12 1   
    12    5   13 1   
    13    5   14 1   
    14    5   15 1   
@<TRIPOS>SUBSTRUCTURE
     1 TBU         1 TEMP              0 ****  ****    0 ROOT
