@<TRIPOS>MOLECULE
TBU
   15    14     1     0     0
SMALL
bcc


@<TRIPOS>ATOM
      1 O           0.5960   -0.0000   -1.2710 oh        1 TBU     -0.598800
      2 C          -0.0180   -0.0000    0.0200 c3        1 TBU      0.145800
      3 C1          0.3910    1.2500    0.7890 c3        1 TBU     -0.109100
      4 C2         -1.5190   -0.0000   -0.2420 c3        1 TBU     -0.109100
      5 C3          0.3910   -1.2500    0.7900 c3        1 TBU     -0.109100
      6 HO          1.5490   -0.0000   -1.1250 ho        1 TBU      0.397000
      7 H11         0.1410    2.1610    0.1950 hc        1 TBU      0.042700
      8 H12        -0.1480    1.2920    1.7640 hc        1 TBU      0.042700
      9 H13         1.4900    1.2430    0.9850 hc        1 TBU      0.042700
     10 H21        -1.8030   -0.9060   -0.8270 hc        1 TBU      0.042700
     11 H22        -2.0670   -0.0000    0.7290 hc        1 TBU      0.042700
     12 H23        -1.8040    0.9060   -0.8280 hc        1 TBU      0.042700
     13 H31         1.4900   -1.2430    0.9850 hc        1 TBU      0.042700
     14 H32        -0.1470   -1.2910    1.7650 hc        1 TBU      0.042700
     15 H33         0.1410   -2.1610    0.1960 hc        1 TBU      0.042700
@<TRIPOS>BOND
     1    1    2 1   
     2    1    6 1   
     3    2    3 1   
     4    2    4 1   
     5    2    5 1   
     6    3    7 1   
     7    3    8 1   
     8    3    9 1   
     9    4   10 1   
    10    4   11 1   
    11    4   12 1   
    12    5   13 1   
    13    5   14 1   
    14    5   15 1   
@<TRIPOS>SUBSTRUCTURE
     1 TBU         1 TEMP              0 ****  ****    0 ROOT
