@<TRIPOS>MOLECULE
TBV
   91    87     1     0     0
SMALL
bcc


@<TRIPOS>ATOM
      1 CHA        -0.3430   -1.1180    0.9140 c3        1 TBV     -0.035000
      2 CHB         4.4850   -0.6950    2.2320 c3        1 TBV     -0.144000
      3 CHD        -2.2430   -3.6560   -2.9830 c3        1 TBV     -0.048000
      4 NA          2.0010   -0.9840    1.8150 na        1 TBV     -0.125000
      5 C1A         1.1030   -0.8320    0.7320 c2        1 TBV     -0.107000
      6 C2A         1.8210   -0.3700   -0.3800 c2        1 TBV     -0.044000
      7 C3A         3.2140   -0.2200    0.0310 c2        1 TBV     -0.225000
      8 C4A         3.2530   -0.6250    1.4160 c2        1 TBV      0.039000
      9 CAA         1.3500   -0.1460   -1.7570 c3        1 TBV     -0.105000
     10 CBA         0.2590    0.8950   -1.8990 c3        1 TBV     -0.213000
     11 CGA        -0.4880    0.7150   -3.2200 c2        1 TBV      0.330000
     12 O1A        -1.2320   -0.3130   -3.3690 o         1 TBV     -0.593000
     13 O2A        -0.3740    1.5870   -4.1260 o         1 TBV     -0.593000
     14 CMA         4.3510    0.1880   -0.6280 c1        1 TBV     -0.189000
     15 NB          3.6140    0.5310    4.2500 n         1 TBV     -0.223000
     16 C1B         4.5530    0.3060    3.3330 c2        1 TBV      0.314000
     17 C2B         5.7410    1.1150    3.5580 c2        1 TBV     -0.524000
     18 C3B         5.5420    1.8800    4.9060 c3        1 TBV      0.198000
     19 C4B         4.0890    1.4880    5.2620 c2        1 TBV      0.293000
     20 CMB         6.8330    1.3630    2.8520 c1        1 TBV      0.380000
     21 CAB         5.7510    3.2660    4.8330 c1        1 TBV     -0.718000
     22 CBB         5.9590    4.4790    4.7980 c1        1 TBV     -0.135000
     23 NC         -4.3710   -4.3640   -1.7870 na        1 TBV     -0.191000
     24 C1C        -5.5820   -4.9400   -2.1020 c2        1 TBV      0.201000
     25 C2C        -5.6600   -5.1570   -3.5260 c2        1 TBV     -0.229000
     26 C3C        -4.3900   -4.6560   -4.0420 c2        1 TBV     -0.165000
     27 C4C        -3.6210   -4.2060   -2.9770 c2        1 TBV     -0.066000
     28 CBC        -1.5640   -0.0690   -6.3430 c2        1 TBV     -0.543000
     29 ND         -1.3160   -2.1640   -1.1790 na        1 TBV     -0.131000
     30 C1D        -1.6960   -3.4240   -1.6230 c2        1 TBV     -0.101000
     31 C2D        -1.4620   -4.3550   -0.5800 c2        1 TBV     -0.191000
     32 C3D        -0.9110   -3.6210    0.5170 c2        1 TBV     -0.203000
     33 C4D        -0.8220   -2.2720    0.1160 c2        1 TBV     -0.086000
     34 OC         -6.5980   -5.1250   -1.2140 os        1 TBV     -0.181000
     35 CBD         1.8950   -3.3680    5.9450 c1        1 TBV     -0.129000
     36 C46        -5.5370   -7.1360   -0.3030 c3        1 TBV     -0.234000
     37 CGD         2.2690   -2.3540    4.9760 c2        1 TBV      0.419000
     38 O2D         3.4070   -2.3840    4.4200 o         1 TBV     -0.583500
     39 O1D         1.4490   -1.4210    4.6830 o         1 TBV     -0.583500
     40 C47        -5.5640   -4.9830    1.0000 c3        1 TBV     -0.234000
     41 C44        -6.3070   -5.8640    0.0050 c3        1 TBV      0.080000
     42 OB          3.3680    1.8040    6.1950 o         1 TBV     -0.236000
     43 C45        -7.7020   -6.2010    0.5300 c3        1 TBV     -0.234000
     44 HHA1       -0.5670   -1.3410    1.9970 hc        1 TBV      0.108500
     45 HHA2       -0.9210   -0.1890    0.6460 hc        1 TBV      0.108500
     46 HHB         4.5740   -1.7210    2.7120 hc        1 TBV      0.184000
     47 HHD1       -1.5740   -4.3880   -3.5170 hc        1 TBV      0.127500
     48 HHD2       -2.2350   -2.6950   -3.5790 hc        1 TBV      0.127500
     49 HAA1        0.9810   -1.1250   -2.1740 hc        1 TBV      0.097000
     50 HAA2        2.2240    0.1650   -2.3950 hc        1 TBV      0.097000
     51 HMA1        6.2300   -1.2260   -0.5400 ha        1 TBV      0.001600
     52 HMA2        6.6710   -1.7440   -0.5470 ha        1 TBV      0.001600
     53 HMA3        4.2750    0.4960   -1.6790 ha        1 TBV      0.055000
     54 HBA1       -0.4810    0.8080   -1.0640 hc        1 TBV      0.078500
     55 HBA2        0.7020    1.9220   -1.8610 hc        1 TBV      0.078500
     56 HB          2.7410    0.0150    4.3410 hn        1 TBV      0.326000
     57 HMB1        7.0550    0.7980    0.6950 ha        1 TBV      0.001600
     58 HMB2        6.4360    0.8970    0.4250 ha        1 TBV      0.001600
     59 HMB3        5.3550   -0.5390    1.5240 hc        1 TBV      0.184000
     60 HC         -4.0120   -4.1470   -0.8870 hn        1 TBV      0.271000
     61 HMC1       -6.6450   -5.8440   -5.2630 ha        1 TBV      0.029000
     62 HMC2       -3.3910    1.5310   -4.4210 ha        1 TBV      0.001600
     63 HMC3       -2.7620    1.2790   -4.3650 ha        1 TBV      0.001600
     64 HAC        -4.1090   -4.6450   -5.0910 ha        1 TBV      0.155000
     65 HBC1       -1.0410    0.8440   -5.9590 ha        1 TBV      0.259500
     66 HBC2       -1.7850   -0.6590   -5.4240 ha        1 TBV      0.259500
     67 HD         -1.2890   -1.3380   -1.7610 hn        1 TBV      0.315000
     68 HMD1       -0.7780   -6.3520   -0.3040 hc        1 TBV      0.064333
     69 HMD2       -2.5220   -6.0800    0.0970 hc        1 TBV      0.064333
     70 HMD3       -1.9910   -6.1340   -1.6380 hc        1 TBV      0.064333
     71 HAD1       -0.6020   -4.0240    1.4760 ha        1 TBV      0.148000
     72 HAD2        1.3140   -4.9390    7.4530 ha        1 TBV      0.198000
     73 HBD1        1.3110   -4.1510    2.6210 ha        1 TBV      0.001600
     74 HBD2        1.5520   -3.7070    3.0730 ha        1 TBV      0.001600
     75 H471       -5.7990   -3.9070    0.8130 hc        1 TBV      0.090444
     76 H472       -5.8800   -5.2370    2.0400 hc        1 TBV      0.090444
     77 H473       -4.4590   -5.1340    0.9340 hc        1 TBV      0.090444
     78 H461       -6.0620   -7.7130   -1.1030 hc        1 TBV      0.090444
     79 H462       -5.4680   -7.7630    0.6170 hc        1 TBV      0.090444
     80 H463       -4.5020   -6.9020   -0.6530 hc        1 TBV      0.090444
     81 H451       -8.2490   -5.2630    0.7830 hc        1 TBV      0.090444
     82 H452       -7.6090   -6.8350    1.4420 hc        1 TBV      0.090444
     83 H453       -8.2770   -6.7510   -0.2520 hc        1 TBV      0.090444
     84 HAB         6.1970    1.3740    5.6740 hc        1 TBV      0.101000
     85 HBB1        1.0070    0.5970    5.8000 ha        1 TBV      0.001600
     86 HBB2        0.9640    1.1900    5.4740 ha        1 TBV      0.001600
     87 HA1         1.7460   -1.3380    2.7210 hn        1 TBV      0.305000
     88 CMD        -1.7000   -5.7970   -0.6120 c3        1 TBV     -0.135000
     89 CMC        -6.7250   -5.7460   -4.1690 c1        1 TBV     -0.152000
     90 CAD         1.5880   -4.2020    6.7460 c1        1 TBV     -0.268000
     91 CAC        -1.8340   -0.3490   -7.5700 c1        1 TBV      0.005000
@<TRIPOS>BOND
     1    1    5 1   
     2    1   33 1   
     3    1   44 1   
     4    1   45 1   
     5    2    8 1   
     6    2   16 1   
     7    2   46 1   
     8    2   59 1   
     9    3   27 1   
    10    3   30 1   
    11    3   47 1   
    12    3   48 1   
    13    4    5 1   
    14    4    8 1   
    15    4   87 1   
    16    5    6 1   
    17    6    7 1   
    18    6    9 1   
    19    7    8 1   
    20    7   14 1   
    21    9   10 1   
    22    9   49 1   
    23    9   50 1   
    24   10   11 1   
    25   10   54 1   
    26   10   55 1   
    27   11   12 1   
    28   11   13 1   
    29   14   53 1   
    30   15   16 1   
    31   15   19 1   
    32   15   56 1   
    33   16   17 1   
    34   17   18 1   
    35   17   20 1   
    36   18   19 1   
    37   18   21 1   
    38   18   84 1   
    39   19   42 1   
    40   21   22 1   
    41   23   24 1   
    42   23   27 1   
    43   23   60 1   
    44   24   25 1   
    45   24   34 1   
    46   25   26 1   
    47   25   89 1   
    48   26   27 1   
    49   26   64 1   
    50   28   65 1   
    51   28   66 1   
    52   28   91 1   
    53   29   30 1   
    54   29   33 1   
    55   29   67 1   
    56   30   31 1   
    57   31   32 1   
    58   31   88 1   
    59   32   33 1   
    60   32   71 1   
    61   34   41 1   
    62   35   37 1   
    63   35   90 1   
    64   36   41 1   
    65   36   78 1   
    66   36   79 1   
    67   36   80 1   
    68   37   38 1   
    69   37   39 1   
    70   40   41 1   
    71   40   75 1   
    72   40   76 1   
    73   40   77 1   
    74   41   43 1   
    75   43   81 1   
    76   43   82 1   
    77   43   83 1   
    78   51   52 1   
    79   57   58 1   
    80   61   89 1   
    81   62   63 1   
    82   68   88 1   
    83   69   88 1   
    84   70   88 1   
    85   72   90 1   
    86   73   74 1   
    87   85   86 1   
@<TRIPOS>SUBSTRUCTURE
     1 TBV         1 TEMP              0 ****  ****    0 ROOT
