@<TRIPOS>MOLECULE
TBV
   91    94     1     0     0
SMALL
bcc


@<TRIPOS>ATOM
      1 CHA        -0.8110    0.5750   -1.4610 c3        1 TBV      0.056200
      2 CHB        -5.3560    0.4380    0.6120 ce        1 TBV     -0.044200
      3 CHD         3.4790    1.4690    0.9800 c3        1 TBV      0.042200
      4 NA         -3.1080    0.2220   -0.5200 na        1 TBV     -0.132100
      5 C1A        -1.9950    1.0360   -0.6890 cc        1 TBV     -0.082600
      6 C2A        -2.2440    2.2910   -0.0730 cd        1 TBV     -0.134300
      7 C3A        -3.5590    2.2190    0.4850 cd        1 TBV     -0.141300
      8 C4A        -4.0700    0.9150    0.2130 cc        1 TBV     -0.126100
      9 CAA        -1.3120    3.4190    0.0990 c3        1 TBV     -0.000100
     10 CBA        -0.8240    4.0680   -1.1790 c3        1 TBV     -0.190400
     11 CGA         0.4890    4.8230   -0.9390 c         1 TBV      0.907600
     12 O1A         1.5160    4.1570   -0.5840 o         1 TBV     -0.857800
     13 O2A         0.5180    6.0720   -1.1160 o         1 TBV     -0.857800
     14 CMA        -4.2520    3.2880    1.2040 c3        1 TBV     -0.011800
     15 NB         -5.7340   -1.6580   -0.7270 n         1 TBV     -0.445100
     16 C1B        -6.0580   -0.6560    0.2290 cd        1 TBV     -0.029400
     17 C2B        -7.4500   -0.9140    0.6980 cd        1 TBV     -0.033200
     18 C3B        -7.9370   -2.0170    0.0490 cc        1 TBV     -0.186200
     19 C4B        -6.8360   -2.5360   -0.8490 c         1 TBV      0.692700
     20 CMB        -8.1170   -0.0580    1.6840 c3        1 TBV     -0.049900
     21 CAB        -9.2340   -2.6190    0.1760 ce        1 TBV     -0.095000
     22 CBB        -9.6350   -3.7240   -0.4580 c2        1 TBV     -0.224000
     23 NC          4.9260   -0.1690   -0.2980 na        1 TBV     -0.157100
     24 C1C         6.2920   -0.3920   -0.5150 cc        1 TBV      0.008800
     25 C2C         7.0380    0.5880    0.1680 cd        1 TBV     -0.117300
     26 C3C         6.0830    1.4450    0.8250 cd        1 TBV     -0.166800
     27 C4C         4.7880    0.9430    0.5150 cc        1 TBV     -0.033600
     28 CBC         7.4690    3.0050    2.1560 c2        1 TBV     -0.280000
     29 ND          1.3410    1.2700   -0.3310 na        1 TBV     -0.131100
     30 C1D         2.3170    0.6990    0.4770 cc        1 TBV     -0.150600
     31 C2D         1.9740   -0.6570    0.7050 cd        1 TBV     -0.189300
     32 C3D         0.7420   -0.9030    0.0120 cd        1 TBV     -0.134300
     33 C4D         0.3730    0.3130   -0.6100 cc        1 TBV     -0.116600
     34 OC          6.7310   -1.3490   -1.3960 os        1 TBV     -0.311900
     35 CBD        -1.0910   -2.2940    0.9810 c3        1 TBV     -0.186400
     36 C46         8.0660   -2.6730    0.1530 c3        1 TBV     -0.107767
     37 CGD        -2.2740   -3.1140    0.4630 c         1 TBV      0.912600
     38 O2D        -2.5910   -4.1830    1.0500 o         1 TBV     -0.863800
     39 O1D        -2.9200   -2.6770   -0.5510 o         1 TBV     -0.863800
     40 C47         5.6410   -3.1860   -0.1820 c3        1 TBV     -0.107767
     41 C44         6.9130   -2.6790   -0.8390 c3        1 TBV      0.144800
     42 OB         -6.8920   -3.5080   -1.6170 o         1 TBV     -0.630500
     43 C45         7.2570   -3.5300   -2.0570 c3        1 TBV     -0.107767
     44 HHA1       -1.0510   -0.3830   -2.0080 hc        1 TBV      0.066200
     45 HHA2       -0.5730    1.3510   -2.2410 hc        1 TBV      0.066200
     46 HHB        -5.8510    1.1070    1.3430 ha        1 TBV      0.123000
     47 HHD1        3.4720    1.4390    2.1060 hc        1 TBV      0.086700
     48 HHD2        3.3990    2.5540    0.6680 hc        1 TBV      0.086700
     49 HAA1       -1.8040    4.2070    0.7320 hc        1 TBV      0.044200
     50 HAA2       -0.4190    3.0570    0.6840 hc        1 TBV      0.044200
     51 HMA1       -3.9690    4.2900    0.7910 hc        1 TBV      0.026033
     52 HMA2       -5.3630    3.1820    1.1240 hc        1 TBV      0.026033
     53 HMA3       -3.9770    3.2720    2.2900 hc        1 TBV      0.026033
     54 HBA1       -0.6400    3.2980   -1.9680 hc        1 TBV      0.028200
     55 HBA2       -1.5960    4.7770   -1.5680 hc        1 TBV      0.028200
     56 HB         -4.7970   -2.0200   -0.8060 hn        1 TBV      0.389500
     57 HMB1       -8.2100    0.9870    1.2920 hc        1 TBV      0.043700
     58 HMB2       -9.1400   -0.4360    1.9270 hc        1 TBV      0.043700
     59 HMB3       -7.5190   -0.0230    2.6310 hc        1 TBV      0.043700
     60 HC          4.1730   -0.7100   -0.6490 hn        1 TBV      0.321700
     61 HMC1        8.9370   -0.0130   -0.5840 hc        1 TBV      0.031700
     62 HMC2        8.8100    1.7390   -0.1060 hc        1 TBV      0.031700
     63 HMC3        8.9170    0.4540    1.1700 hc        1 TBV      0.031700
     64 HAC         5.3950    3.2180    1.8000 ha        1 TBV      0.128000
     65 HBC1        8.4060    2.4510    2.0330 ha        1 TBV      0.097500
     66 HBC2        7.5450    3.9220    2.7520 ha        1 TBV      0.097500
     67 HD          1.2890    2.2520   -0.5660 hn        1 TBV      0.365700
     68 HMD1        1.9950   -2.1630    2.2050 hc        1 TBV      0.024367
     69 HMD2        3.1960   -2.4010    0.8720 hc        1 TBV      0.024367
     70 HMD3        3.4920   -1.1300    2.1340 hc        1 TBV      0.024367
     71 HAD1       -0.4630   -2.2720   -1.0840 hc        1 TBV      0.037700
     72 HAD2        0.7240   -3.0280    0.0570 hc        1 TBV      0.037700
     73 HBD1       -0.6850   -2.7700    1.9080 hc        1 TBV      0.036200
     74 HBD2       -1.4710   -1.2770    1.2560 hc        1 TBV      0.036200
     75 H471        4.7660   -3.0320   -0.8590 hc        1 TBV      0.043811
     76 H472        5.7380   -4.2770    0.0350 hc        1 TBV      0.043811
     77 H473        5.4510   -2.6470    0.7780 hc        1 TBV      0.043811
     78 H461        7.8930   -1.8870    0.9290 hc        1 TBV      0.043811
     79 H462        8.1490   -3.6680    0.6470 hc        1 TBV      0.043811
     80 H463        9.0230   -2.4430   -0.3720 hc        1 TBV      0.043811
     81 H451        8.1240   -3.0880   -2.6010 hc        1 TBV      0.043811
     82 H452        7.5160   -4.5620   -1.7240 hc        1 TBV      0.043811
     83 H453        6.3850   -3.5730   -2.7520 hc        1 TBV      0.043811
     84 HAB        -9.9240   -2.0950    0.8640 ha        1 TBV      0.098000
     85 HBB1      -10.6420   -4.1350   -0.3170 ha        1 TBV      0.118500
     86 HBB2       -8.9810   -4.2790   -1.1470 ha        1 TBV      0.118500
     87 HA1        -3.1010   -0.7700   -0.6940 hn        1 TBV      0.357700
     88 CMD         2.7010   -1.6290    1.5200 c3        1 TBV     -0.009800
     89 CMC         8.4960    0.6980    0.1600 c3        1 TBV     -0.012800
     90 CAD         0.0040   -2.1750   -0.0640 c3        1 TBV      0.005900
     91 CAC         6.3070    2.6120    1.6270 cf        1 TBV     -0.036200
@<TRIPOS>BOND
     1    1    5 1   
     2    1   33 1   
     3    1   44 1   
     4    1   45 1   
     5    2    8 1   
     6    2   16 2   
     7    2   46 1   
     8    3   27 1   
     9    3   30 1   
    10    3   47 1   
    11    3   48 1   
    12    4    5 1   
    13    4    8 1   
    14    4   87 1   
    15    5    6 2   
    16    6    7 1   
    17    6    9 1   
    18    7    8 2   
    19    7   14 1   
    20    9   10 1   
    21    9   49 1   
    22    9   50 1   
    23   10   11 1   
    24   10   54 1   
    25   10   55 1   
    26   11   12 1   
    27   11   13 1   
    28   14   51 1   
    29   14   52 1   
    30   14   53 1   
    31   15   16 1   
    32   15   19 1   
    33   15   56 1   
    34   16   17 1   
    35   17   18 2   
    36   17   20 1   
    37   18   19 1   
    38   18   21 1   
    39   19   42 2   
    40   20   57 1   
    41   20   58 1   
    42   20   59 1   
    43   21   22 2   
    44   21   84 1   
    45   22   85 1   
    46   22   86 1   
    47   23   24 1   
    48   23   27 1   
    49   23   60 1   
    50   24   25 2   
    51   24   34 1   
    52   25   26 1   
    53   25   89 1   
    54   26   27 2   
    55   26   91 1   
    56   28   65 1   
    57   28   66 1   
    58   28   91 2   
    59   29   30 1   
    60   29   33 1   
    61   29   67 1   
    62   30   31 2   
    63   31   32 1   
    64   31   88 1   
    65   32   33 2   
    66   32   90 1   
    67   34   41 1   
    68   35   37 1   
    69   35   73 1   
    70   35   74 1   
    71   35   90 1   
    72   36   41 1   
    73   36   78 1   
    74   36   79 1   
    75   36   80 1   
    76   37   38 1   
    77   37   39 1   
    78   40   41 1   
    79   40   75 1   
    80   40   76 1   
    81   40   77 1   
    82   41   43 1   
    83   43   81 1   
    84   43   82 1   
    85   43   83 1   
    86   61   89 1   
    87   62   89 1   
    88   63   89 1   
    89   64   91 1   
    90   68   88 1   
    91   69   88 1   
    92   70   88 1   
    93   71   90 1   
    94   72   90 1   
@<TRIPOS>SUBSTRUCTURE
     1 TBV         1 TEMP              0 ****  ****    0 ROOT
