@<TRIPOS>MOLECULE
TBV
   91    80     1     0     0
SMALL
bcc


@<TRIPOS>ATOM
      1 CHA         1.4930   -0.2080    1.9820 c3        1 TBV     -0.037000
      2 CHB        -2.4060    2.2160    4.2420 c1        1 TBV     -0.068000
      3 CHD         2.5890   -0.7010   -2.8090 c3        1 TBV     -0.037000
      4 NA         -0.3130    1.3110    3.0250 n2        1 TBV     -0.148000
      5 C1A         0.0880    0.1180    2.4920 c2        1 TBV     -0.042000
      6 C2A        -0.9570   -0.7810    2.6240 c1        1 TBV     -0.138000
      7 C3A        -1.9880   -0.1400    3.2340 c1        1 TBV     -0.141000
      8 C4A        -1.5930    1.1610    3.4860 c1        1 TBV     -0.028000
      9 CAA        -0.9660   -2.2220    2.1290 c2        1 TBV     -0.082500
     10 CBA        -0.5190   -3.1460    3.2510 c3        1 TBV     -0.215500
     11 CGA        -1.2810   -4.4530    3.1620 c2        1 TBV      0.329000
     12 O1A        -0.9430   -5.3200    2.3200 o         1 TBV     -0.599750
     13 O2A        -2.2190   -4.6940    3.9750 o         1 TBV     -0.599750
     14 CMA        -3.3270   -0.7500    3.5930 c2        1 TBV     -0.129333
     15 NB         -1.6940    4.1060    2.5630 n         1 TBV     -0.300000
     16 C1B        -2.4250    3.5070    3.8020 c2        1 TBV     -0.016000
     17 C2B        -3.1290    4.6330    4.3820 c2        1 TBV     -0.036000
     18 C3B        -2.9450    5.7720    3.7150 c1        1 TBV     -0.160000
     19 C4B        -2.0860    5.6300    2.5690 c2        1 TBV      0.333000
     20 CMB        -3.4190    4.6620    5.8740 c3        1 TBV     -0.171000
     21 CAB        -3.0200    7.1010    4.4480 c1        1 TBV     -0.163250
     22 CBB        -3.5740    8.1720    3.8490 c1        1 TBV     -0.163250
     23 NC          1.6690   -2.7340   -3.3870 n2        1 TBV     -0.148000
     24 C1C         1.0920   -3.1410   -4.5660 c1        1 TBV     -0.028000
     25 C2C         0.3480   -2.0830   -5.0640 c1        1 TBV     -0.141000
     26 C3C         0.4700   -1.0370   -4.1940 c1        1 TBV     -0.138000
     27 C4C         1.2910   -1.4400   -3.1520 c2        1 TBV     -0.042000
     28 CMC        -0.3990   -2.0610   -6.3850 c2        1 TBV     -0.129333
     29 CAC        -0.1110    0.3460   -4.3810 c1        1 TBV     -0.163250
     30 CBC        -1.4370    0.5400   -4.2620 c1        1 TBV     -0.163250
     31 ND          1.4460   -0.2920   -0.5150 n2        1 TBV     -0.140000
     32 C1D         2.4770   -0.0960   -1.3950 c2        1 TBV     -0.089500
     33 C2D         3.3830    0.7690   -0.8060 c1        1 TBV     -0.144500
     34 C3D         2.9070    1.0990    0.4280 c1        1 TBV     -0.144500
     35 C4D         1.7030    0.4410    0.6110 c2        1 TBV     -0.089500
     36 CMD         4.7140    1.2050   -1.3950 c2        1 TBV     -0.129333
     37 OC          1.3450   -4.3620   -5.2340 o         1 TBV     -0.215000
     38 CAD         3.6000    1.9970    1.4440 c2        1 TBV     -0.082500
     39 CBD         3.2070    3.4420    1.1920 c3        1 TBV     -0.215500
     40 C46        -0.2640   -5.8670   -6.1670 c3        1 TBV     -0.233000
     41 CGD         2.9300    4.1310    2.5200 c2        1 TBV      0.329000
     42 O2D         1.7760    4.1020    3.0130 o         1 TBV     -0.599750
     43 O1D         3.8450    4.7670    3.1000 o         1 TBV     -0.599750
     44 C47        -0.6010   -4.8700   -3.9390 c3        1 TBV     -0.233000
     45 C44         0.4280   -5.3960   -4.9110 c3        1 TBV      0.082000
     46 OB         -1.7420    6.4950    1.7780 o         1 TBV     -0.355000
     47 C45         1.1720   -6.5500   -4.2830 c3        1 TBV     -0.233000
     48 HHA1        1.5950   -1.1830    1.9010 hc        1 TBV      0.103500
     49 HHA2        2.1570    0.1380    2.6110 hc        1 TBV      0.103500
     50 HHB        -2.9120    1.9630    5.0420 ha        1 TBV      0.122000
     51 HHD1        2.7390    0.0120   -3.4570 hc        1 TBV      0.103500
     52 HHD2        3.3340   -1.3250   -2.8360 hc        1 TBV      0.103500
     53 HAA1       -0.3550   -2.3100    1.3710 ha        1 TBV      0.080250
     54 HAA2       -1.8700   -2.4640    1.8490 ha        1 TBV      0.080250
     55 HMA1       -3.1990   -1.4370    4.2780 ha        1 TBV      0.063556
     56 HMA2       -3.9230   -0.0510    3.9390 ha        1 TBV      0.063556
     57 HMA3       -3.7270   -1.1540    2.7950 ha        1 TBV      0.063556
     58 HBA1        0.4330   -3.3200    3.1660 hc        1 TBV      0.075250
     59 HBA2       -0.6970   -2.7230    4.1110 hc        1 TBV      0.075250
     60 HB         -1.1520    3.6680    1.9640 hn        1 TBV      0.310000
     61 HMB1       -3.8730    5.5100    6.1060 hc        1 TBV      0.083000
     62 HMB2       -3.9990    3.9060    6.1090 hc        1 TBV      0.083000
     63 HMB3       -2.5790    4.5950    6.3710 hc        1 TBV      0.083000
     64 HC          2.2100   -3.2370   -2.8550 DU        1 TBV      0.234400
     65 HMC1       -1.3580   -2.1660   -6.2200 ha        1 TBV      0.063556
     66 HMC2       -0.0830   -2.7950   -6.9510 ha        1 TBV      0.063556
     67 HMC3       -0.2370   -1.2070   -6.8380 ha        1 TBV      0.063556
     68 HAC         0.4780    1.1010   -4.5880 ha        1 TBV      0.100250
     69 HBC1       -2.0270   -0.2150   -4.0540 DU        1 TBV      0.234400
     70 HBC2       -1.8140    1.4370   -4.3820 ha        1 TBV      0.100250
     71 HD          0.7440   -0.8590   -0.6340 DU        1 TBV      0.234400
     72 HMD1        5.4040    0.5540   -1.1570 ha        1 TBV      0.063556
     73 HMD2        4.6380    1.2580   -2.3710 ha        1 TBV      0.063556
     74 HMD3        4.9580    2.0880   -1.0360 ha        1 TBV      0.063556
     75 HAD1        4.5710    1.9020    1.3540 ha        1 TBV      0.080250
     76 HAD2        3.3280    1.7380    2.3480 ha        1 TBV      0.080250
     77 HBD1        3.9390    3.9040    0.7310 hc        1 TBV      0.075250
     78 HBD2        2.4050    3.4690    0.6390 hc        1 TBV      0.075250
     79 H471       -1.0520   -4.0880   -4.3310 hc        1 TBV      0.088889
     80 H472       -0.1580   -4.6070   -3.1050 hc        1 TBV      0.088889
     81 H473       -1.2570   -5.5640   -3.7540 hc        1 TBV      0.088889
     82 H461        0.3420   -5.7750   -6.9270 hc        1 TBV      0.088889
     83 H462       -0.5200   -6.8020   -6.0650 hc        1 TBV      0.088889
     84 H463       -1.0710   -5.3210   -6.3220 hc        1 TBV      0.088889
     85 H451        1.8780   -6.8580   -4.8960 hc        1 TBV      0.088889
     86 H452        0.5500   -7.2810   -4.1080 hc        1 TBV      0.088889
     87 H453        1.5780   -6.2560   -3.4370 hc        1 TBV      0.088889
     88 HAB        -2.6670    7.1780    5.3520 ha        1 TBV      0.100250
     89 HBB1       -3.9260    8.0950    2.9480 DU        1 TBV      0.234400
     90 HBB2       -3.6220    9.0250    4.3200 ha        1 TBV      0.100250
     91 HA1         0.1850    2.0780    3.0620 DU        1 TBV      0.234400
@<TRIPOS>BOND
     1    1    5 1   
     2    1   35 1   
     3    1   48 1   
     4    1   49 1   
     5    2   16 1   
     6    2   50 1   
     7    3   27 1   
     8    3   32 1   
     9    3   51 1   
    10    3   52 1   
    11    4    5 1   
    12    4    8 1   
    13    5    6 1   
    14    6    7 1   
    15    7    8 1   
    16    9   10 1   
    17    9   53 1   
    18    9   54 1   
    19   10   11 1   
    20   10   58 1   
    21   10   59 1   
    22   11   12 1   
    23   11   13 1   
    24   14   55 1   
    25   14   56 1   
    26   14   57 1   
    27   15   16 1   
    28   15   19 1   
    29   15   60 1   
    30   16   17 1   
    31   17   18 1   
    32   17   20 1   
    33   18   19 1   
    34   19   46 1   
    35   20   61 1   
    36   20   62 1   
    37   20   63 1   
    38   21   22 1   
    39   21   88 1   
    40   22   90 1   
    41   23   24 1   
    42   23   27 1   
    43   24   25 1   
    44   25   26 1   
    45   26   27 1   
    46   28   65 1   
    47   28   66 1   
    48   28   67 1   
    49   29   30 1   
    50   29   68 1   
    51   30   70 1   
    52   31   32 1   
    53   31   35 1   
    54   32   33 1   
    55   33   34 1   
    56   34   35 1   
    57   36   72 1   
    58   36   73 1   
    59   36   74 1   
    60   37   45 1   
    61   38   39 1   
    62   38   75 1   
    63   38   76 1   
    64   39   41 1   
    65   39   77 1   
    66   39   78 1   
    67   40   45 1   
    68   40   82 1   
    69   40   83 1   
    70   40   84 1   
    71   41   42 1   
    72   41   43 1   
    73   44   45 1   
    74   44   79 1   
    75   44   80 1   
    76   44   81 1   
    77   45   47 1   
    78   47   85 1   
    79   47   86 1   
    80   47   87 1   
@<TRIPOS>SUBSTRUCTURE
     1 TBV         1 TEMP              0 ****  ****    0 ROOT
