@<TRIPOS>MOLECULE
TBV
   91    87     1     0     0
SMALL
bcc


@<TRIPOS>ATOM
      1 CHA        -0.3800   -0.4920    0.4400 c3        1 TBV     -0.031000
      2 CHB         4.3940   -0.8720    1.8320 c3        1 TBV     -0.150000
      3 CHD        -2.0990   -3.6970   -2.9970 c3        1 TBV     -0.069000
      4 NA          1.9240   -0.5220    1.4050 na        1 TBV     -0.132000
      5 C1A         1.0880   -0.3300    0.2790 c2        1 TBV     -0.110000
      6 C2A         1.8960   -0.0920   -0.8380 c2        1 TBV     -0.046000
      7 C3A         3.2890   -0.1410   -0.3880 c2        1 TBV     -0.227000
      8 C4A         3.2250   -0.4730    1.0180 c2        1 TBV      0.072000
      9 CAA         1.5130    0.0350   -2.2530 c3        1 TBV     -0.104000
     10 CBA         0.4560    1.0700   -2.5690 c3        1 TBV     -0.214000
     11 CGA        -0.3210    0.6830   -3.8280 c2        1 TBV      0.330000
     12 O1A        -1.0050   -0.3960   -3.8270 o         1 TBV     -0.591000
     13 O2A        -0.2840    1.4390   -4.8380 o         1 TBV     -0.591000
     14 CMA         4.4910    0.0640   -1.0200 c1        1 TBV     -0.199000
     15 NB          3.6090   -0.7040    4.2130 n         1 TBV     -0.214000
     16 C1B         4.4240   -0.3450    3.2240 c2        1 TBV      0.285000
     17 C2B         5.4540    0.5840    3.6660 c2        1 TBV     -0.526000
     18 C3B         5.2780    0.7820    5.2050 c3        1 TBV      0.196000
     19 C4B         4.0240   -0.0810    5.4790 c2        1 TBV      0.285000
     20 CMB         6.3840    1.2850    3.0380 c1        1 TBV      0.375000
     21 CAB         5.1380    2.1190    5.6100 c1        1 TBV     -0.717000
     22 CBB         5.0430    3.2870    5.9860 c1        1 TBV     -0.134000
     23 NC         -4.2900   -4.2630   -1.8290 na        1 TBV     -0.210000
     24 C1C        -5.6020   -4.4800   -2.1770 c2        1 TBV      0.217000
     25 C2C        -5.7680   -4.3320   -3.6050 c2        1 TBV     -0.232000
     26 C3C        -4.4290   -3.9940   -4.0850 c2        1 TBV     -0.140000
     27 C4C        -3.5590   -3.9580   -3.0070 c2        1 TBV     -0.083000
     28 CBC        -2.0170   -0.3790   -6.6380 c2        1 TBV     -0.541000
     29 ND         -1.2110   -1.9410   -1.4460 na        1 TBV     -0.103000
     30 C1D        -1.6050   -3.2190   -1.6780 c2        1 TBV      0.007000
     31 C2D        -1.5150   -3.9780   -0.4370 c2        1 TBV     -0.262000
     32 C3D        -1.0190   -3.0280    0.5580 c2        1 TBV      0.003000
     33 C4D        -0.8460   -1.7990   -0.0890 c2        1 TBV     -0.137000
     34 OC         -6.5960   -4.8480   -1.3160 os        1 TBV     -0.116000
     35 CBD         0.5730   -3.9550    2.2640 c3        1 TBV     -0.176000
     36 C46        -3.1910   -6.4400    2.6570 c3        1 TBV     -0.297000
     37 CGD         1.5090   -3.0270    3.0070 c2        1 TBV      0.311000
     38 O2D         2.7700   -3.1670    2.9200 o         1 TBV     -0.611000
     39 O1D         1.0700   -2.0550    3.7190 o         1 TBV     -0.611000
     40 C47        -6.0180   -3.4940    0.5820 c2        1 TBV     -0.250000
     41 C44        -6.3420   -4.6820    0.0610 c2        1 TBV     -0.007000
     42 OB          3.4250   -0.3190    6.5170 o         1 TBV     -0.231000
     43 C45        -6.5890   -5.9370    0.8080 c3        1 TBV     -0.185000
     44 HHA1       -0.6690   -0.4430    1.5290 hc        1 TBV      0.110000
     45 HHA2       -0.9070    0.3560   -0.0770 hc        1 TBV      0.110000
     46 HHB         4.3800   -2.0110    1.8880 hc        1 TBV      0.186500
     47 HHD1       -1.5550   -4.6520   -3.2440 hc        1 TBV      0.133500
     48 HHD2       -1.8670   -2.9430   -3.8070 hc        1 TBV      0.133500
     49 HAA1        1.1480   -0.9750   -2.6010 hc        1 TBV      0.096500
     50 HAA2        2.4330    0.2660   -2.8590 hc        1 TBV      0.096500
     51 HMA1        6.6560   -0.8400   -0.5390 ha        1 TBV      0.001000
     52 HMA2        7.2300   -1.1630   -0.3680 ha        1 TBV      0.001000
     53 HMA3        4.4950    0.3160   -2.0880 ha        1 TBV      0.051000
     54 HBA1       -0.2750    1.1670   -1.7290 hc        1 TBV      0.078500
     55 HBA2        0.9320    2.0710   -2.7230 hc        1 TBV      0.078500
     56 HB          2.8390   -1.3860    4.1330 hn        1 TBV      0.349000
     57 HMB1        6.5820    1.4460    0.7980 ha        1 TBV      0.001000
     58 HMB2        6.0900    1.2160    0.3850 ha        1 TBV      0.001000
     59 HMB3        5.3210   -0.5480    1.2700 hc        1 TBV      0.186500
     60 HC         -3.9030   -4.2600   -0.9120 hn        1 TBV      0.279000
     61 HMC1       -6.9450   -4.3300   -5.3610 ha        1 TBV      0.037000
     62 HMC2       -6.0230   -0.3660   -0.5480 ha        1 TBV      0.001000
     63 HMC3       -5.5460   -0.4310   -1.0230 ha        1 TBV      0.001000
     64 HAC        -4.1810   -3.7960   -5.1250 ha        1 TBV      0.160000
     65 HBC1       -2.1840   -1.0560   -5.7820 ha        1 TBV      0.253500
     66 HBC2       -1.3630    0.4480   -6.2340 ha        1 TBV      0.253500
     67 HD         -1.1280   -1.2060   -2.1470 hn        1 TBV      0.324000
     68 HMD1       -1.0230   -7.3510    0.8470 ha        1 TBV      0.001000
     69 HMD2       -2.0420   -5.9270   -1.0830 ha        1 TBV      0.027000
     70 HMD3       -0.8190   -7.9880    0.9710 ha        1 TBV      0.001000
     71 HAD1       -0.9230   -2.4250    2.6060 hc        1 TBV      0.101000
     72 HAD2       -1.5810   -4.0930    2.2870 hc        1 TBV      0.101000
     73 HBD1        0.4430   -4.8700    2.8990 hc        1 TBV      0.094500
     74 HBD2        1.0710   -4.2780    1.3140 hc        1 TBV      0.094500
     75 H471       -5.8500   -2.5990   -0.0330 ha        1 TBV      0.140500
     76 H472       -5.8920   -3.3620    1.6640 ha        1 TBV      0.140500
     77 H473       -2.6230   -6.0760    1.7610 hc        1 TBV      0.072000
     78 H461       -2.8580   -7.4700    2.9090 hc        1 TBV      0.072000
     79 H462       -4.2810   -6.4470    2.4340 hc        1 TBV      0.072000
     80 H463       -2.9940   -5.7650    3.5180 hc        1 TBV      0.072000
     81 H451       -6.6400   -5.7310    1.9050 hc        1 TBV      0.097667
     82 H452       -7.5490   -6.4020    0.4740 hc        1 TBV      0.097667
     83 H453       -5.7590   -6.6630    0.6160 hc        1 TBV      0.097667
     84 HAB         6.1390    0.2550    5.7100 hc        1 TBV      0.098000
     85 HBB1        2.2960   -0.6090    8.7190 ha        1 TBV      0.001000
     86 HBB2        1.8810   -0.2410    8.3300 ha        1 TBV      0.001000
     87 HA1         1.5680   -0.7840    2.3070 hn        1 TBV      0.300000
     88 CMD        -1.7910   -5.3000   -0.2140 c1        1 TBV     -0.197000
     89 CMC        -6.9580   -4.4910   -4.2720 c1        1 TBV     -0.156000
     90 CAD        -0.7920   -3.3500    1.9780 c3        1 TBV     -0.106000
     91 CAC        -2.4330   -0.4420   -7.8550 c1        1 TBV      0.014000
@<TRIPOS>BOND
     1    1    5 1   
     2    1   33 1   
     3    1   44 1   
     4    1   45 1   
     5    2    8 1   
     6    2   16 1   
     7    2   46 1   
     8    2   59 1   
     9    3   27 1   
    10    3   30 1   
    11    3   47 1   
    12    3   48 1   
    13    4    5 1   
    14    4    8 1   
    15    4   87 1   
    16    5    6 1   
    17    6    7 1   
    18    6    9 1   
    19    7    8 1   
    20    7   14 1   
    21    9   10 1   
    22    9   49 1   
    23    9   50 1   
    24   10   11 1   
    25   10   54 1   
    26   10   55 1   
    27   11   12 1   
    28   11   13 1   
    29   14   53 1   
    30   15   16 1   
    31   15   19 1   
    32   15   56 1   
    33   16   17 1   
    34   17   18 1   
    35   17   20 1   
    36   18   19 1   
    37   18   21 1   
    38   18   84 1   
    39   19   42 1   
    40   21   22 1   
    41   23   24 1   
    42   23   27 1   
    43   23   60 1   
    44   24   25 1   
    45   24   34 1   
    46   25   26 1   
    47   25   89 1   
    48   26   27 1   
    49   26   64 1   
    50   28   65 1   
    51   28   66 1   
    52   28   91 1   
    53   29   30 1   
    54   29   33 1   
    55   29   67 1   
    56   30   31 1   
    57   31   32 1   
    58   31   88 1   
    59   32   33 1   
    60   32   90 1   
    61   34   41 1   
    62   35   37 1   
    63   35   73 1   
    64   35   74 1   
    65   35   90 1   
    66   36   77 1   
    67   36   78 1   
    68   36   79 1   
    69   36   80 1   
    70   37   38 1   
    71   37   39 1   
    72   40   41 1   
    73   40   75 1   
    74   40   76 1   
    75   41   43 1   
    76   43   81 1   
    77   43   82 1   
    78   43   83 1   
    79   51   52 1   
    80   57   58 1   
    81   61   89 1   
    82   62   63 1   
    83   68   70 1   
    84   69   88 1   
    85   71   90 1   
    86   72   90 1   
    87   85   86 1   
@<TRIPOS>SUBSTRUCTURE
     1 TBV         1 TEMP              0 ****  ****    0 ROOT
