@<TRIPOS>MOLECULE
TBV
   91    88     1     0     0
SMALL
bcc


@<TRIPOS>ATOM
      1 CHA        -0.0150   -1.3270    1.0010 c3        1 TBV     -0.036000
      2 CHB         4.8290   -0.5970    2.1250 c3        1 TBV     -0.150000
      3 CHD        -1.8390   -3.9980   -2.8440 c3        1 TBV     -0.048000
      4 NA          2.3510   -1.0480    1.8080 na        1 TBV     -0.131000
      5 C1A         1.3990   -0.9350    0.7670 c2        1 TBV     -0.106000
      6 C2A         2.0330   -0.3950   -0.3600 c2        1 TBV     -0.044000
      7 C3A         3.4280   -0.1540   -0.0010 c2        1 TBV     -0.225000
      8 C4A         3.5570   -0.5920    1.3680 c2        1 TBV      0.041000
      9 CAA         1.4940   -0.1770   -1.7120 c3        1 TBV     -0.105000
     10 CBA         0.3200    0.7770   -1.7900 c3        1 TBV     -0.213000
     11 CGA        -0.4680    0.5560   -3.0820 c2        1 TBV      0.330000
     12 O1A        -1.0780   -0.5530   -3.2470 o         1 TBV     -0.592000
     13 O2A        -0.5140    1.4760   -3.9470 o         1 TBV     -0.592000
     14 CMA         4.5010    0.3590   -0.6950 c1        1 TBV     -0.190000
     15 NB          4.0290    0.3500    4.3080 ns        1 TBV     -0.222000
     16 C1B         4.8630    0.3570    3.2690 c2        1 TBV      0.314000
     17 C2B         5.8880    1.3790    3.4000 c2        1 TBV     -0.523000
     18 C3B         5.7180    2.0390    4.8080 c3        1 TBV      0.197000
     19 C4B         4.4360    1.3390    5.3150 c2        1 TBV      0.294000
     20 CMB         6.8210    1.8700    2.5980 c1        1 TBV      0.380000
     21 CAB         5.6270    3.4410    4.7960 c1        1 TBV     -0.717000
     22 CBB         5.5760    4.6700    4.8120 c1        1 TBV     -0.137000
     23 NC         -3.9150   -4.8720   -1.6730 na        1 TBV     -0.172000
     24 C1C        -5.2360   -5.1840   -2.0180 c2        1 TBV      0.000000
     25 C2C        -5.4170   -4.9570   -3.3980 c2        1 TBV     -0.137000
     26 C3C        -4.1600   -4.4810   -3.8990 c2        1 TBV     -0.208000
     27 C4C        -3.2580   -4.4300   -2.8180 c2        1 TBV     -0.043000
     28 CBC        -2.3330   -0.0360   -5.8840 c2        1 TBV     -0.541000
     29 ND         -0.9610   -2.4420   -1.0710 na        1 TBV     -0.131000
     30 C1D        -1.2810   -3.7240   -1.4970 c2        1 TBV     -0.095000
     31 C2D        -0.9790   -4.6310   -0.4510 c2        1 TBV     -0.188000
     32 C3D        -0.4520   -3.8580    0.6310 c2        1 TBV     -0.199000
     33 C4D        -0.4420   -2.5100    0.2160 c2        1 TBV     -0.092000
     34 OC         -6.1020   -5.7490   -1.1170 os        1 TBV     -0.201000
     35 CBD         2.9780   -4.1280    5.3530 c1        1 TBV     -0.130000
     36 C46        -5.8180   -4.0270    0.6090 c3        1 TBV     -0.225667
     37 CGD         3.2510   -2.8350    4.7540 c2        1 TBV      0.423000
     38 O2D         2.2980   -1.9980    4.5970 o         1 TBV     -0.582500
     39 O1D         4.4250   -2.5300    4.3920 o         1 TBV     -0.582500
     40 C47        -7.6770   -3.8820   -1.0580 c3        1 TBV     -0.225667
     41 C44        -6.7980   -4.8170   -0.2440 c3        1 TBV      0.075000
     42 OB          3.8020    1.4600    6.3530 o         1 TBV     -0.240000
     43 C45        -7.6510   -5.7270    0.6350 c3        1 TBV     -0.225667
     44 HHA1       -0.1800   -1.5740    2.0900 hc        1 TBV      0.107000
     45 HHA2       -0.6690   -0.4420    0.7620 hc        1 TBV      0.107000
     46 HHB         5.0270   -1.6350    2.5470 hc        1 TBV      0.185000
     47 HHD1       -1.2260   -4.8120   -3.3250 hc        1 TBV      0.123000
     48 HHD2       -1.7610   -3.0790   -3.4970 hc        1 TBV      0.123000
     49 HAA1        1.1880   -1.1720   -2.1420 hc        1 TBV      0.098000
     50 HAA2        2.3160    0.2170   -2.3730 hc        1 TBV      0.098000
     51 HMA1        6.4850   -0.9060   -0.7340 ha        1 TBV      0.002500
     52 HMA2        6.9690   -1.3800   -0.7900 ha        1 TBV      0.002500
     53 HMA3        4.3550    0.6850   -1.7320 ha        1 TBV      0.055000
     54 HBA1       -0.3760    0.6180   -0.9280 hc        1 TBV      0.077500
     55 HBA2        0.6800    1.8350   -1.7510 hc        1 TBV      0.077500
     56 HB          3.3030   -0.3480    4.4700 hn        1 TBV      0.328000
     57 HMB1        6.5340    1.2140    0.2600 ha        1 TBV      0.002500
     58 HMB2        7.1660    1.1530    0.5140 ha        1 TBV      0.002500
     59 HMB3        5.6480   -0.3370    1.3890 hc        1 TBV      0.185000
     60 HC         -3.5150   -4.9110   -0.7690 hn        1 TBV      0.263000
     61 HMC1       -6.5790   -6.1560   -4.7210 hc        1 TBV      0.069667
     62 HMC2       -7.5310   -5.2050   -3.5040 hc        1 TBV      0.069667
     63 HMC3       -6.7740   -4.3660   -4.9290 hc        1 TBV      0.069667
     64 HAC        -3.9460   -4.1910   -4.9220 ha        1 TBV      0.151000
     65 HBC1       -1.6760    0.7760   -5.4620 ha        1 TBV      0.261000
     66 HBC2       -2.3170   -0.8260   -5.1060 ha        1 TBV      0.261000
     67 HD         -1.0030   -1.6180   -1.6550 hn        1 TBV      0.313000
     68 HMD1       -0.1920   -6.5850   -0.1360 hc        1 TBV      0.065333
     69 HMD2       -1.9540   -6.4050    0.2300 hc        1 TBV      0.065333
     70 HMD3       -1.3900   -6.4500   -1.4940 hc        1 TBV      0.065333
     71 HAD1       -0.1160   -4.2310    1.5930 ha        1 TBV      0.147000
     72 HAD2        2.5570   -6.1380    6.2820 ha        1 TBV      0.198000
     73 HBD1       -0.2690   -3.1980    3.7350 ha        1 TBV      0.002500
     74 HBD2        0.3220   -2.9430    3.9500 ha        1 TBV      0.002500
     75 H471       -8.4990   -4.4540   -1.5490 hc        1 TBV      0.083778
     76 H472       -8.1200   -3.1030   -0.3940 hc        1 TBV      0.083778
     77 H473       -7.0680   -3.3820   -1.8520 hc        1 TBV      0.083778
     78 H461       -5.0430   -4.7070    1.0360 hc        1 TBV      0.083778
     79 H462       -6.3640   -3.5350    1.4490 hc        1 TBV      0.083778
     80 H463       -5.3150   -3.2360    0.0030 hc        1 TBV      0.083778
     81 H451       -8.2830   -6.3910   -0.0010 hc        1 TBV      0.083778
     82 H452       -8.3070   -5.1020    1.2840 hc        1 TBV      0.083778
     83 H453       -6.9960   -6.3640    1.2750 hc        1 TBV      0.083778
     84 HAB         6.5590    1.6570    5.4570 hc        1 TBV      0.101000
     85 HBB1        1.5940    0.3610    6.0030 ha        1 TBV      0.002500
     86 HBB2        1.5060   -0.3100    5.9930 ha        1 TBV      0.002500
     87 HA1         2.1610   -1.4570    2.7060 hn        1 TBV      0.302000
     88 CMD        -1.1370   -6.0850   -0.4670 c3        1 TBV     -0.136000
     89 CMC        -6.6350   -5.1800   -4.1740 c3        1 TBV     -0.135000
     90 CAD         2.7560   -5.1950    5.8480 c1        1 TBV     -0.267000
     91 CAC        -2.9370    0.0000   -7.0190 c1        1 TBV     -0.001000
@<TRIPOS>BOND
     1    1    5 1   
     2    1   33 1   
     3    1   44 1   
     4    1   45 1   
     5    2    8 1   
     6    2   16 1   
     7    2   46 1   
     8    2   59 1   
     9    3   27 1   
    10    3   30 1   
    11    3   47 1   
    12    3   48 1   
    13    4    5 1   
    14    4    8 1   
    15    4   87 1   
    16    5    6 1   
    17    6    7 1   
    18    6    9 1   
    19    7    8 1   
    20    7   14 1   
    21    9   10 1   
    22    9   49 1   
    23    9   50 1   
    24   10   11 1   
    25   10   54 1   
    26   10   55 1   
    27   11   12 1   
    28   11   13 1   
    29   14   53 1   
    30   15   16 1   
    31   15   19 1   
    32   15   56 1   
    33   16   17 1   
    34   17   18 1   
    35   17   20 1   
    36   18   19 1   
    37   18   21 1   
    38   18   84 1   
    39   19   42 1   
    40   21   22 1   
    41   23   24 1   
    42   23   27 1   
    43   23   60 1   
    44   24   25 1   
    45   24   34 1   
    46   25   26 1   
    47   25   89 1   
    48   26   27 1   
    49   26   64 1   
    50   28   65 1   
    51   28   66 1   
    52   28   91 1   
    53   29   30 1   
    54   29   33 1   
    55   29   67 1   
    56   30   31 1   
    57   31   32 1   
    58   31   88 1   
    59   32   33 1   
    60   32   71 1   
    61   34   41 1   
    62   35   37 1   
    63   35   90 1   
    64   36   41 1   
    65   36   78 1   
    66   36   79 1   
    67   36   80 1   
    68   37   38 1   
    69   37   39 1   
    70   40   41 1   
    71   40   75 1   
    72   40   76 1   
    73   40   77 1   
    74   41   43 1   
    75   43   81 1   
    76   43   82 1   
    77   43   83 1   
    78   51   52 1   
    79   57   58 1   
    80   61   89 1   
    81   62   89 1   
    82   63   89 1   
    83   68   88 1   
    84   69   88 1   
    85   70   88 1   
    86   72   90 1   
    87   73   74 1   
    88   85   86 1   
@<TRIPOS>SUBSTRUCTURE
     1 TBV         1 TEMP              0 ****  ****    0 ROOT
