@<TRIPOS>MOLECULE
TBZ
   70    77     1     0     0
SMALL
bcc


@<TRIPOS>ATOM
      1 N1          0.4960    0.3080    1.9940 nz        1 TBZ     -0.844600
      2 C1          1.1580    0.0580    0.6710 c3        1 TBZ      0.074500
      3 C2          2.6380   -0.4090    0.8840 c3        1 TBZ      0.135800
      4 N2          3.4650    0.7990    0.8950 nh        1 TBZ     -0.564000
      5 C3          2.8200    1.7140   -0.0530 c3        1 TBZ      0.139800
      6 C4          1.3180    1.3550   -0.1510 c3        1 TBZ     -0.134400
      7 C5          3.6690    1.2980    2.2280 ca        1 TBZ      0.052600
      8 C6          2.9410    2.3810    2.7550 ca        1 TBZ     -0.230000
      9 C7          3.2460    2.8000    4.0500 ca        1 TBZ     -0.068200
     10 C8          4.2510    2.1230    4.8580 ca        1 TBZ      0.083400
     11 C9          4.9550    1.0500    4.3050 ca        1 TBZ     -0.046000
     12 C10         4.6620    0.6510    3.0090 ca        1 TBZ     -0.143000
     13 N3          2.7250    3.8120    4.8590 na        1 TBZ     -0.286300
     14 C11         3.4410    3.7560    6.0890 cc        1 TBZ      0.515400
     15 N4          4.3360    2.7410    6.1180 nd        1 TBZ     -0.555100
     16 C12         3.1640    4.6940    7.1780 ca        1 TBZ     -0.142900
     17 C13         3.3230    4.2560    8.4940 ca        1 TBZ     -0.067000
     18 C14         3.0470    5.1730    9.5110 ca        1 TBZ     -0.089200
     19 C15         2.6120    6.5320    9.2190 ca        1 TBZ      0.101400
     20 C16         2.4790    6.9340    7.8820 ca        1 TBZ     -0.073000
     21 C17         2.7580    6.0160    6.8830 ca        1 TBZ     -0.139000
     22 N5          3.0840    5.0780   10.9030 na        1 TBZ     -0.272300
     23 C18         2.6930    6.3420   11.4080 cc        1 TBZ      0.508400
     24 N6          2.4010    7.2260   10.4200 nd        1 TBZ     -0.568100
     25 C19         2.6300    6.6120   12.8470 ca        1 TBZ     -0.131900
     26 C20         2.9150    7.9010   13.2980 ca        1 TBZ     -0.072000
     27 C21         2.8490    8.1260   14.6760 ca        1 TBZ     -0.087200
     28 C22         2.4950    7.0640   15.6070 ca        1 TBZ      0.095400
     29 C23         2.2080    5.7850   15.1090 ca        1 TBZ     -0.074000
     30 C24         2.2770    5.5770   13.7420 ca        1 TBZ     -0.139000
     31 N7          3.0770    9.2580   15.4600 na        1 TBZ     -0.276300
     32 C25         2.8530    8.8730   16.8050 cc        1 TBZ      0.503400
     33 N8          2.5090    7.5660   16.9180 nd        1 TBZ     -0.566100
     34 C26         2.9880    9.8210   17.9110 ca        1 TBZ     -0.170900
     35 C27         3.9200   10.8630   17.8550 ca        1 TBZ     -0.061500
     36 C28         4.0430   11.7600   18.9130 ca        1 TBZ     -0.187000
     37 C29         3.2240   11.6080   20.0410 ca        1 TBZ      0.151100
     38 C30         2.2880   10.5570   20.1100 ca        1 TBZ     -0.187000
     39 C31         2.1770    9.6710   19.0490 ca        1 TBZ     -0.061500
     40 O1          3.2520   12.4330   21.1430 os        1 TBZ     -0.318900
     41 C32         4.2040   13.4920   21.1190 c3        1 TBZ      0.110700
     42 HN11       -0.4290    0.7210    1.8550 hn        1 TBZ      0.461133
     43 HN12        0.4020   -0.5730    2.5060 hn        1 TBZ      0.461133
     44 HN13        1.0800    0.9560    2.5490 hn        1 TBZ      0.461133
     45 H1          0.5500   -0.7170    0.1290 hx        1 TBZ      0.119700
     46 H21         2.9290   -1.0220   -0.0150 h1        1 TBZ      0.099200
     47 H22         2.7850   -1.0320    1.8040 h1        1 TBZ      0.099200
     48 H31A        3.3140    1.5390   -1.0500 h1        1 TBZ      0.093700
     49 H32         2.9760    2.7900    0.2190 h1        1 TBZ      0.093700
     50 H41         1.0360    1.1510   -1.2150 hc        1 TBZ      0.084700
     51 H42         0.6780    2.1930    0.2150 hc        1 TBZ      0.084700
     52 H6          2.2110    2.9430    2.1560 ha        1 TBZ      0.124000
     53 H9          5.7390    0.5390    4.8880 ha        1 TBZ      0.171000
     54 H10         5.2360   -0.1800    2.5670 ha        1 TBZ      0.157000
     55 HN3         2.1630    4.5650    4.5610 hn        1 TBZ      0.310700
     56 H13         3.6580    3.2340    8.7220 ha        1 TBZ      0.159000
     57 H16         2.1670    7.9610    7.6410 ha        1 TBZ      0.159000
     58 H17         2.6820    6.3450    5.8360 ha        1 TBZ      0.124000
     59 HN5         3.3950    4.3090   11.4350 hn        1 TBZ      0.315700
     60 H20         3.1780    8.7080   12.5990 ha        1 TBZ      0.159000
     61 H23         1.9310    4.9720   15.7960 ha        1 TBZ      0.156000
     62 H24         2.0280    4.5790   13.3490 ha        1 TBZ      0.129000
     63 HN7         3.2840   10.1650   15.1380 hn        1 TBZ      0.311700
     64 H27         4.5820   10.9800   16.9830 ha        1 TBZ      0.145500
     65 H28         4.7820   12.5710   18.8550 ha        1 TBZ      0.152000
     66 H30         1.6600   10.4520   21.0070 ha        1 TBZ      0.152000
     67 H31         1.4510    8.8430   19.1020 ha        1 TBZ      0.145500
     68 H321        4.0450   14.0030   22.1030 h1        1 TBZ      0.049367
     69 H322        5.2420   13.0860   21.0480 h1        1 TBZ      0.049367
     70 H323        3.9950   14.1910   20.2730 h1        1 TBZ      0.049367
@<TRIPOS>BOND
     1    1    2 1   
     2    1   42 1   
     3    1   43 1   
     4    1   44 1   
     5    2    3 1   
     6    2    6 1   
     7    2   45 1   
     8    3    4 1   
     9    3   46 1   
    10    3   47 1   
    11    4    5 1   
    12    4    7 1   
    13    5    6 1   
    14    5   48 1   
    15    5   49 1   
    16    6   50 1   
    17    6   51 1   
    18    7    8 ar  
    19    7   12 ar  
    20    8    9 ar  
    21    8   52 1   
    22    9   10 ar  
    23    9   13 1   
    24   10   11 ar  
    25   10   15 1   
    26   11   12 ar  
    27   11   53 1   
    28   12   54 1   
    29   13   14 1   
    30   13   55 1   
    31   14   15 2   
    32   14   16 1   
    33   16   17 ar  
    34   16   21 ar  
    35   17   18 ar  
    36   17   56 1   
    37   18   19 ar  
    38   18   22 1   
    39   19   20 ar  
    40   19   24 1   
    41   20   21 ar  
    42   20   57 1   
    43   21   58 1   
    44   22   23 1   
    45   22   59 1   
    46   23   24 2   
    47   23   25 1   
    48   25   26 ar  
    49   25   30 ar  
    50   26   27 ar  
    51   26   60 1   
    52   27   28 ar  
    53   27   31 1   
    54   28   29 ar  
    55   28   33 1   
    56   29   30 ar  
    57   29   61 1   
    58   30   62 1   
    59   31   32 1   
    60   31   63 1   
    61   32   33 2   
    62   32   34 1   
    63   34   35 ar  
    64   34   39 ar  
    65   35   36 ar  
    66   35   64 1   
    67   36   37 ar  
    68   36   65 1   
    69   37   38 ar  
    70   37   40 1   
    71   38   39 ar  
    72   38   66 1   
    73   39   67 1   
    74   40   41 1   
    75   41   68 1   
    76   41   69 1   
    77   41   70 1   
@<TRIPOS>SUBSTRUCTURE
     1 TBZ         1 TEMP              0 ****  ****    0 ROOT
