@<TRIPOS>MOLECULE
TBZ
   70    77     1     0     0
SMALL
bcc


@<TRIPOS>ATOM
      1 N1          0.4750    0.3550    1.9690 n4        1 TBZ     -0.844600
      2 C1          1.1480    0.0880    0.6540 c3        1 TBZ      0.074500
      3 C2          2.6140   -0.4120    0.8870 c3        1 TBZ      0.135800
      4 N2          3.4670    0.7770    0.9070 nh        1 TBZ     -0.564000
      5 C3          2.8560    1.7050   -0.0500 c3        1 TBZ      0.139800
      6 C4          1.3470    1.3800   -0.1670 c3        1 TBZ     -0.134400
      7 C5          3.6660    1.2720    2.2420 ca        1 TBZ      0.052600
      8 C6          2.9570    2.3730    2.7590 ca        1 TBZ     -0.230000
      9 C7          3.2550    2.7870    4.0580 ca        1 TBZ     -0.068200
     10 C8          4.2340    2.0880    4.8780 ca        1 TBZ      0.083400
     11 C9          4.9210    0.9970    4.3350 ca        1 TBZ     -0.046000
     12 C10         4.6340    0.6040    3.0360 ca        1 TBZ     -0.143000
     13 N3          2.7470    3.8110    4.8580 na        1 TBZ     -0.286300
     14 C11         3.4460    3.7400    6.0980 cc        1 TBZ      0.515400
     15 N4          4.3170    2.7050    6.1380 nd        1 TBZ     -0.555100
     16 C12         3.1770    4.6860    7.1830 ca        1 TBZ     -0.142900
     17 C13         3.3090    4.2450    8.5010 ca        1 TBZ     -0.067000
     18 C14         3.0410    5.1690    9.5140 ca        1 TBZ     -0.089200
     19 C15         2.6410    6.5370    9.2150 ca        1 TBZ      0.101400
     20 C16         2.5350    6.9410    7.8760 ca        1 TBZ     -0.073000
     21 C17         2.8050    6.0150    6.8820 ca        1 TBZ     -0.139000
     22 N5          3.0580    5.0750   10.9060 na        1 TBZ     -0.272300
     23 C18         2.6900    6.3480   11.4050 cc        1 TBZ      0.508400
     24 N6          2.4300    7.2370   10.4120 nd        1 TBZ     -0.568100
     25 C19         2.6150    6.6210   12.8430 ca        1 TBZ     -0.131900
     26 C20         2.9230    7.9040   13.2960 ca        1 TBZ     -0.072000
     27 C21         2.8440    8.1310   14.6730 ca        1 TBZ     -0.087200
     28 C22         2.4550    7.0790   15.6010 ca        1 TBZ      0.095400
     29 C23         2.1450    5.8060   15.0990 ca        1 TBZ     -0.074000
     30 C24         2.2270    5.5940   13.7330 ca        1 TBZ     -0.139000
     31 N7          3.0880    9.2580   15.4590 na        1 TBZ     -0.276300
     32 C25         2.8380    8.8800   16.8010 cc        1 TBZ      0.503400
     33 N8          2.4640    7.5810   16.9110 nd        1 TBZ     -0.566100
     34 C26         2.9800    9.8260   17.9080 ca        1 TBZ     -0.170900
     35 C27         3.9360   10.8470   17.8630 ca        1 TBZ     -0.061500
     36 C28         4.0650   11.7420   18.9230 ca        1 TBZ     -0.187000
     37 C29         3.2300   11.6090   20.0400 ca        1 TBZ      0.151100
     38 C30         2.2700   10.5790   20.0990 ca        1 TBZ     -0.187000
     39 C31         2.1520    9.6950   19.0360 ca        1 TBZ     -0.061500
     40 O1          3.2620   12.4340   21.1420 os        1 TBZ     -0.318900
     41 C32         4.2380   13.4720   21.1290 c3        1 TBZ      0.110700
     42 HN11        0.3540   -0.5220    2.4810 hn        1 TBZ      0.461133
     43 HN12        1.0660    0.9910    2.5310 hn        1 TBZ      0.461133
     44 HN13       -0.4390    0.7900    1.8180 hn        1 TBZ      0.461133
     45 H1          0.5290   -0.6730    0.1050 hx        1 TBZ      0.119700
     46 H21         2.9010   -1.0320   -0.0080 h1        1 TBZ      0.099200
     47 H22         2.7350   -1.0360    1.8100 h1        1 TBZ      0.099200
     48 H31A        3.3590    1.5180   -1.0400 h1        1 TBZ      0.093700
     49 H32         3.0330    2.7780    0.2240 h1        1 TBZ      0.093700
     50 H41         1.0750    1.1810   -1.2340 hc        1 TBZ      0.084700
     51 H42         0.7220    2.2340    0.1910 hc        1 TBZ      0.084700
     52 H6          2.2470    2.9510    2.1500 ha        1 TBZ      0.124000
     53 H9          5.6850    0.4690    4.9280 ha        1 TBZ      0.171000
     54 H10         5.1950   -0.2410    2.6020 ha        1 TBZ      0.157000
     55 HN3         2.2060    4.5760    4.5530 hn        1 TBZ      0.310700
     56 H13         3.6180    3.2160    8.7340 ha        1 TBZ      0.159000
     57 H16         2.2480    7.9740    7.6300 ha        1 TBZ      0.159000
     58 H17         2.7500    6.3450    5.8330 ha        1 TBZ      0.124000
     59 HN5         3.3450    4.2990   11.4420 hn        1 TBZ      0.315700
     60 H20         3.2130    8.7040   12.6000 ha        1 TBZ      0.159000
     61 H23         1.8410    5.0000   15.7840 ha        1 TBZ      0.156000
     62 H24         1.9610    4.6020   13.3380 ha        1 TBZ      0.129000
     63 HN7         3.3200   10.1600   15.1390 hn        1 TBZ      0.311700
     64 H27         4.6110   10.9480   17.0000 ha        1 TBZ      0.145500
     65 H28         4.8230   12.5370   18.8740 ha        1 TBZ      0.152000
     66 H30         1.6280   10.4890   20.9870 ha        1 TBZ      0.152000
     67 H31         1.4070    8.8840   19.0810 ha        1 TBZ      0.145500
     68 H321        5.2680   13.0430   21.0710 h1        1 TBZ      0.049367
     69 H322        4.0540   14.1740   20.2800 h1        1 TBZ      0.049367
     70 H323        4.0780   13.9870   22.1110 h1        1 TBZ      0.049367
@<TRIPOS>BOND
     1    1    2 1   
     2    1   42 1   
     3    1   43 1   
     4    1   44 1   
     5    2    3 1   
     6    2    6 1   
     7    2   45 1   
     8    3    4 1   
     9    3   46 1   
    10    3   47 1   
    11    4    5 1   
    12    4    7 1   
    13    5    6 1   
    14    5   48 1   
    15    5   49 1   
    16    6   50 1   
    17    6   51 1   
    18    7    8 ar  
    19    7   12 ar  
    20    8    9 ar  
    21    8   52 1   
    22    9   10 ar  
    23    9   13 1   
    24   10   11 ar  
    25   10   15 1   
    26   11   12 ar  
    27   11   53 1   
    28   12   54 1   
    29   13   14 1   
    30   13   55 1   
    31   14   15 2   
    32   14   16 1   
    33   16   17 ar  
    34   16   21 ar  
    35   17   18 ar  
    36   17   56 1   
    37   18   19 ar  
    38   18   22 1   
    39   19   20 ar  
    40   19   24 1   
    41   20   21 ar  
    42   20   57 1   
    43   21   58 1   
    44   22   23 1   
    45   22   59 1   
    46   23   24 2   
    47   23   25 1   
    48   25   26 ar  
    49   25   30 ar  
    50   26   27 ar  
    51   26   60 1   
    52   27   28 ar  
    53   27   31 1   
    54   28   29 ar  
    55   28   33 1   
    56   29   30 ar  
    57   29   61 1   
    58   30   62 1   
    59   31   32 1   
    60   31   63 1   
    61   32   33 2   
    62   32   34 1   
    63   34   35 ar  
    64   34   39 ar  
    65   35   36 ar  
    66   35   64 1   
    67   36   37 ar  
    68   36   65 1   
    69   37   38 ar  
    70   37   40 1   
    71   38   39 ar  
    72   38   66 1   
    73   39   67 1   
    74   40   41 1   
    75   41   68 1   
    76   41   69 1   
    77   41   70 1   
@<TRIPOS>SUBSTRUCTURE
     1 TBZ         1 TEMP              0 ****  ****    0 ROOT
