@<TRIPOS>MOLECULE
TBZ
   70    77     1     0     0
SMALL
bcc


@<TRIPOS>ATOM
      1 N1          0.4810    0.3310    1.9810 n4        1 TBZ     -0.844600
      2 C1          1.1460    0.0780    0.6600 c3        1 TBZ      0.074500
      3 C2          2.6210   -0.4000    0.8770 c3        1 TBZ      0.135800
      4 N2          3.4570    0.8020    0.8920 nh        1 TBZ     -0.564000
      5 C3          2.8210    1.7230   -0.0570 c3        1 TBZ      0.139800
      6 C4          1.3170    1.3740   -0.1600 c3        1 TBZ     -0.134400
      7 C5          3.6600    1.2980    2.2260 ca        1 TBZ      0.052600
      8 C6          2.9380    2.3860    2.7520 ca        1 TBZ     -0.230000
      9 C7          3.2420    2.8020    4.0490 ca        1 TBZ     -0.068200
     10 C8          4.2400    2.1170    4.8590 ca        1 TBZ      0.083400
     11 C9          4.9380    1.0390    4.3070 ca        1 TBZ     -0.046000
     12 C10         4.6460    0.6440    3.0100 ca        1 TBZ     -0.143000
     13 N3          2.7260    3.8160    4.8560 na        1 TBZ     -0.286300
     14 C11         3.4370    3.7540    6.0890 cc        1 TBZ      0.515400
     15 N4          4.3250    2.7330    6.1190 nd        1 TBZ     -0.555100
     16 C12         3.1640    4.6940    7.1780 ca        1 TBZ     -0.142900
     17 C13         3.3160    4.2530    8.4950 ca        1 TBZ     -0.067000
     18 C14         3.0430    5.1700    9.5120 ca        1 TBZ     -0.089200
     19 C15         2.6180    6.5330    9.2200 ca        1 TBZ      0.101400
     20 C16         2.4930    6.9370    7.8820 ca        1 TBZ     -0.073000
     21 C17         2.7680    6.0180    6.8840 ca        1 TBZ     -0.139000
     22 N5          3.0750    5.0740   10.9040 na        1 TBZ     -0.272300
     23 C18         2.6910    6.3400   11.4090 cc        1 TBZ      0.508400
     24 N6          2.4080    7.2270   10.4200 nd        1 TBZ     -0.568100
     25 C19         2.6250    6.6090   12.8480 ca        1 TBZ     -0.131900
     26 C20         2.9180    7.8960   13.3010 ca        1 TBZ     -0.072000
     27 C21         2.8490    8.1190   14.6790 ca        1 TBZ     -0.087200
     28 C22         2.4840    7.0590   15.6080 ca        1 TBZ      0.095400
     29 C23         2.1900    5.7820   15.1070 ca        1 TBZ     -0.074000
     30 C24         2.2620    5.5750   13.7400 ca        1 TBZ     -0.139000
     31 N7          3.0820    9.2480   15.4650 na        1 TBZ     -0.276300
     32 C25         2.8510    8.8640   16.8090 cc        1 TBZ      0.503400
     33 N8          2.4970    7.5590   16.9190 nd        1 TBZ     -0.566100
     34 C26         2.9890    9.8100   17.9160 ca        1 TBZ     -0.170900
     35 C27         3.9290   10.8440   17.8660 ca        1 TBZ     -0.061500
     36 C28         4.0540   11.7390   18.9260 ca        1 TBZ     -0.187000
     37 C29         3.2300   11.5920   20.0490 ca        1 TBZ      0.151100
     38 C30         2.2850   10.5490   20.1140 ca        1 TBZ     -0.187000
     39 C31         2.1720    9.6650   19.0510 ca        1 TBZ     -0.061500
     40 O1          3.2590   12.4160   21.1520 os        1 TBZ     -0.318900
     41 C32         4.2210   13.4660   21.1350 c3        1 TBZ      0.110700
     42 HN11       -0.4410    0.7510    1.8410 hn        1 TBZ      0.461133
     43 HN12        0.3790   -0.5490    2.4930 hn        1 TBZ      0.461133
     44 HN13        1.0680    0.9750    2.5390 hn        1 TBZ      0.461133
     45 H1          0.5340   -0.6920    0.1150 hx        1 TBZ      0.119700
     46 H21         2.9100   -1.0140   -0.0210 h1        1 TBZ      0.099200
     47 H22         2.7610   -1.0240    1.7970 h1        1 TBZ      0.099200
     48 H31A        2.9840    2.7980    0.2170 h1        1 TBZ      0.093700
     49 H32         3.3170    1.5460   -1.0520 h1        1 TBZ      0.093700
     50 H41         1.0370    1.1740   -1.2250 hc        1 TBZ      0.084700
     51 H42         0.6820    2.2170    0.2050 hc        1 TBZ      0.084700
     52 H6          2.2140    2.9540    2.1510 ha        1 TBZ      0.124000
     53 H9          5.7160    0.5220    4.8910 ha        1 TBZ      0.171000
     54 H10         5.2160   -0.1910    2.5690 ha        1 TBZ      0.157000
     55 HN3         2.1690    4.5740    4.5580 hn        1 TBZ      0.310700
     56 H13         3.6430    3.2280    8.7220 ha        1 TBZ      0.159000
     57 H16         2.1880    7.9660    7.6410 ha        1 TBZ      0.159000
     58 H17         2.6980    6.3490    5.8370 ha        1 TBZ      0.124000
     59 HN5         3.3790    4.3020   11.4350 hn        1 TBZ      0.315700
     60 H20         3.1890    8.7010   12.6040 ha        1 TBZ      0.159000
     61 H23         1.9040    4.9710   15.7920 ha        1 TBZ      0.156000
     62 H24         2.0070    4.5800   13.3450 ha        1 TBZ      0.129000
     63 HN7         3.2980   10.1540   15.1450 hn        1 TBZ      0.311700
     64 H27         4.5960   10.9560   16.9970 ha        1 TBZ      0.145500
     65 H28         4.8000   12.5440   18.8720 ha        1 TBZ      0.152000
     66 H30         1.6520   10.4480   21.0070 ha        1 TBZ      0.152000
     67 H31         1.4390    8.8430   19.1000 ha        1 TBZ      0.145500
     68 H321        4.0210   14.1680   20.2890 h1        1 TBZ      0.049367
     69 H322        4.0620   13.9770   22.1180 h1        1 TBZ      0.049367
     70 H323        5.2560   13.0520   21.0670 h1        1 TBZ      0.049367
@<TRIPOS>BOND
     1    1    2 1   
     2    1   42 1   
     3    1   43 1   
     4    1   44 1   
     5    2    3 1   
     6    2    6 1   
     7    2   45 1   
     8    3    4 1   
     9    3   46 1   
    10    3   47 1   
    11    4    5 1   
    12    4    7 1   
    13    5    6 1   
    14    5   48 1   
    15    5   49 1   
    16    6   50 1   
    17    6   51 1   
    18    7    8 ar  
    19    7   12 ar  
    20    8    9 ar  
    21    8   52 1   
    22    9   10 ar  
    23    9   13 1   
    24   10   11 ar  
    25   10   15 1   
    26   11   12 ar  
    27   11   53 1   
    28   12   54 1   
    29   13   14 1   
    30   13   55 1   
    31   14   15 2   
    32   14   16 1   
    33   16   17 ar  
    34   16   21 ar  
    35   17   18 ar  
    36   17   56 1   
    37   18   19 ar  
    38   18   22 1   
    39   19   20 ar  
    40   19   24 1   
    41   20   21 ar  
    42   20   57 1   
    43   21   58 1   
    44   22   23 1   
    45   22   59 1   
    46   23   24 2   
    47   23   25 1   
    48   25   26 ar  
    49   25   30 ar  
    50   26   27 ar  
    51   26   60 1   
    52   27   28 ar  
    53   27   31 1   
    54   28   29 ar  
    55   28   33 1   
    56   29   30 ar  
    57   29   61 1   
    58   30   62 1   
    59   31   32 1   
    60   31   63 1   
    61   32   33 2   
    62   32   34 1   
    63   34   35 ar  
    64   34   39 ar  
    65   35   36 ar  
    66   35   64 1   
    67   36   37 ar  
    68   36   65 1   
    69   37   38 ar  
    70   37   40 1   
    71   38   39 ar  
    72   38   66 1   
    73   39   67 1   
    74   40   41 1   
    75   41   68 1   
    76   41   69 1   
    77   41   70 1   
@<TRIPOS>SUBSTRUCTURE
     1 TBZ         1 TEMP              0 ****  ****    0 ROOT
