@<TRIPOS>MOLECULE
TBZ
   70    77     1     0     0
SMALL
bcc


@<TRIPOS>ATOM
      1 N1         -9.7930   -2.1430    0.9020 n4        1 TBZ     -0.844600
      2 C1        -11.0550   -1.3470    0.7450 c3        1 TBZ      0.074500
      3 C2        -11.0550   -0.5950   -0.6290 c3        1 TBZ      0.135800
      4 N2        -10.4420    0.7130   -0.3950 nh        1 TBZ     -0.564000
      5 C3        -10.8470    1.0900    0.9640 c3        1 TBZ      0.139800
      6 C4        -11.1450   -0.1970    1.7710 c3        1 TBZ     -0.134400
      7 C5         -9.0290    0.6990   -0.6600 ca        1 TBZ      0.052600
      8 C6         -8.0630    0.6080    0.3600 ca        1 TBZ     -0.230000
      9 C7         -6.7190    0.6340   -0.0120 ca        1 TBZ     -0.068200
     10 C8         -6.3130    0.7110   -1.4090 ca        1 TBZ      0.083400
     11 C9         -7.2970    0.7990   -2.3980 ca        1 TBZ     -0.046000
     12 C10        -8.6310    0.7930   -2.0190 ca        1 TBZ     -0.143000
     13 N3         -5.5370    0.5590    0.7260 na        1 TBZ     -0.286300
     14 C11        -4.4680    0.6370   -0.2130 cc        1 TBZ      0.515400
     15 N4         -4.9100    0.7020   -1.4910 nd        1 TBZ     -0.555100
     16 C12        -3.0690    0.6040    0.2170 ca        1 TBZ     -0.142900
     17 C13        -2.1240    0.0190   -0.6290 ca        1 TBZ     -0.067000
     18 C14        -0.7980   -0.0020   -0.1890 ca        1 TBZ     -0.089200
     19 C15        -0.4100    0.5630    1.0960 ca        1 TBZ      0.101400
     20 C16        -1.3900    1.1530    1.9070 ca        1 TBZ     -0.073000
     21 C17        -2.7000    1.1690    1.4590 ca        1 TBZ     -0.139000
     22 N5          0.3760   -0.5040   -0.7520 na        1 TBZ     -0.272300
     23 C18         1.4170   -0.2340    0.1680 cc        1 TBZ      0.508400
     24 N6          0.9710    0.3980    1.2840 nd        1 TBZ     -0.568100
     25 C19         2.8060   -0.6150   -0.1040 ca        1 TBZ     -0.131900
     26 C20         3.8300    0.1880    0.3980 ca        1 TBZ     -0.072000
     27 C21         5.1430   -0.2020    0.1180 ca        1 TBZ     -0.087200
     28 C22         5.4370   -1.3950   -0.6610 ca        1 TBZ      0.095400
     29 C23         4.3750   -2.1780   -1.1390 ca        1 TBZ     -0.074000
     30 C24         3.0800   -1.7810   -0.8550 ca        1 TBZ     -0.139000
     31 N7          6.3810    0.3550    0.4420 na        1 TBZ     -0.276300
     32 C25         7.3670   -0.4930   -0.1210 cc        1 TBZ      0.503400
     33 N8          6.8270   -1.5420   -0.7890 nd        1 TBZ     -0.566100
     34 C26         8.7970   -0.2220    0.0330 ca        1 TBZ     -0.170900
     35 C27         9.2750    1.0910    0.1120 ca        1 TBZ     -0.061500
     36 C28        10.6380    1.3390    0.2580 ca        1 TBZ     -0.187000
     37 C29        11.5300    0.2610    0.3210 ca        1 TBZ      0.151100
     38 C30        11.0590   -1.0650    0.2340 ca        1 TBZ     -0.187000
     39 C31         9.6990   -1.2970    0.0890 ca        1 TBZ     -0.061500
     40 O1         12.8930    0.3820    0.4680 os        1 TBZ     -0.318900
     41 C32        13.4090    1.7080    0.5340 c3        1 TBZ      0.110700
     42 HN11       -9.7390   -2.5410    1.8420 hn        1 TBZ      0.461133
     43 HN12       -9.7720   -2.8980    0.2110 hn        1 TBZ      0.461133
     44 HN13       -8.9790   -1.5250    0.7450 hn        1 TBZ      0.461133
     45 H1        -11.9190   -2.0600    0.8300 hx        1 TBZ      0.119700
     46 H21       -12.1310   -0.4280   -0.9190 h1        1 TBZ      0.099200
     47 H22       -10.5460   -1.1610   -1.4510 h1        1 TBZ      0.099200
     48 H31A      -10.0850    1.7360    1.4730 h1        1 TBZ      0.093700
     49 H32       -11.7910    1.6950    0.8580 h1        1 TBZ      0.093700
     50 H41       -10.4370   -0.3090    2.6270 hc        1 TBZ      0.084700
     51 H42       -12.1820   -0.1600    2.1900 hc        1 TBZ      0.084700
     52 H6         -8.3360    0.5980    1.4250 ha        1 TBZ      0.124000
     53 H9         -7.0130    0.8840   -3.4600 ha        1 TBZ      0.171000
     54 H10        -9.4040    0.8870   -2.8000 ha        1 TBZ      0.157000
     55 HN3        -5.4480    0.6810    1.7000 hn        1 TBZ      0.310700
     56 H13        -2.4090   -0.4030   -1.6030 ha        1 TBZ      0.159000
     57 H16        -1.1140    1.5990    2.8750 ha        1 TBZ      0.159000
     58 H17        -3.4600    1.6610    2.0840 ha        1 TBZ      0.124000
     59 HN5         0.4770   -0.9010   -1.6490 hn        1 TBZ      0.315700
     60 H20         3.6140    1.0880    0.9910 ha        1 TBZ      0.159000
     61 H23         4.5770   -3.0880   -1.7220 ha        1 TBZ      0.156000
     62 H24         2.2480   -2.4090   -1.2090 ha        1 TBZ      0.129000
     63 HN7         6.5420    1.1430    1.0090 hn        1 TBZ      0.311700
     64 H27         8.5850    1.9460    0.0430 ha        1 TBZ      0.145500
     65 H28        10.9980    2.3760    0.3150 ha        1 TBZ      0.152000
     66 H30        11.7770   -1.8970    0.2800 ha        1 TBZ      0.152000
     67 H31         9.3280   -2.3320    0.0130 ha        1 TBZ      0.145500
     68 H321       14.5130    1.5500    0.6400 h1        1 TBZ      0.049367
     69 H322       13.1780    2.2680   -0.4050 h1        1 TBZ      0.049367
     70 H323       13.0000    2.2460    1.4230 h1        1 TBZ      0.049367
@<TRIPOS>BOND
     1    1    2 1   
     2    1   42 1   
     3    1   43 1   
     4    1   44 1   
     5    2    3 1   
     6    2    6 1   
     7    2   45 1   
     8    3    4 1   
     9    3   46 1   
    10    3   47 1   
    11    4    5 1   
    12    4    7 1   
    13    5    6 1   
    14    5   48 1   
    15    5   49 1   
    16    6   50 1   
    17    6   51 1   
    18    7    8 ar  
    19    7   12 ar  
    20    8    9 ar  
    21    8   52 1   
    22    9   10 ar  
    23    9   13 1   
    24   10   11 ar  
    25   10   15 1   
    26   11   12 ar  
    27   11   53 1   
    28   12   54 1   
    29   13   14 1   
    30   13   55 1   
    31   14   15 2   
    32   14   16 1   
    33   16   17 ar  
    34   16   21 ar  
    35   17   18 ar  
    36   17   56 1   
    37   18   19 ar  
    38   18   22 1   
    39   19   20 ar  
    40   19   24 1   
    41   20   21 ar  
    42   20   57 1   
    43   21   58 1   
    44   22   23 1   
    45   22   59 1   
    46   23   24 2   
    47   23   25 1   
    48   25   26 ar  
    49   25   30 ar  
    50   26   27 ar  
    51   26   60 1   
    52   27   28 ar  
    53   27   31 1   
    54   28   29 ar  
    55   28   33 1   
    56   29   30 ar  
    57   29   61 1   
    58   30   62 1   
    59   31   32 1   
    60   31   63 1   
    61   32   33 2   
    62   32   34 1   
    63   34   35 ar  
    64   34   39 ar  
    65   35   36 ar  
    66   35   64 1   
    67   36   37 ar  
    68   36   65 1   
    69   37   38 ar  
    70   37   40 1   
    71   38   39 ar  
    72   38   66 1   
    73   39   67 1   
    74   40   41 1   
    75   41   68 1   
    76   41   69 1   
    77   41   70 1   
@<TRIPOS>SUBSTRUCTURE
     1 TBZ         1 TEMP              0 ****  ****    0 ROOT
