@<TRIPOS>MOLECULE
TC0
   56    60     1     0     0
SMALL
bcc


@<TRIPOS>ATOM
      1 C1          0.6660    0.5630   -0.0000 cx        1 TC0     -0.102900
      2 C2          1.8250    0.9590    0.8610 cx        1 TC0     -0.102900
      3 C3          0.5740    0.3950    1.5030 cx        1 TC0     -0.006500
      4 N1          0.5650   -0.9430    2.1080 n4        1 TC0     -0.737000
      5 C4          0.8440   -0.9060    3.5940 c3        1 TC0      0.201100
      6 C5          0.8480   -2.2800    4.1420 ca        1 TC0     -0.277300
      7 C6          2.0480   -2.9930    4.2680 ca        1 TC0     -0.051000
      8 C7          2.0610   -4.2700    4.7990 ca        1 TC0     -0.195000
      9 C10        -0.3460   -2.8710    4.5820 ca        1 TC0     -0.051000
     10 C9         -0.3560   -4.1460    5.1160 ca        1 TC0     -0.195000
     11 C8          0.8520   -4.8880    5.2350 ca        1 TC0      0.251600
     12 N2          0.9050   -6.1340    5.8240 nh        1 TC0     -0.700300
     13 C11        -0.1870   -7.0070    5.9270 cc        1 TC0      0.486200
     14 C12        -0.3540   -7.9630    7.0100 cc        1 TC0     -0.282300
     15 N4         -1.2280   -7.1330    5.0230 nd        1 TC0     -0.537800
     16 N3         -2.0160   -8.0860    5.5020 na        1 TC0     -0.000600
     17 C13        -1.5450   -8.6480    6.7000 cd        1 TC0     -0.009300
     18 C14        -2.2040   -9.7180    7.4200 ca        1 TC0     -0.054000
     19 C19        -3.5920   -9.9020    7.3470 ca        1 TC0     -0.109000
     20 C18        -4.2010  -10.9330    8.0550 ca        1 TC0     -0.115000
     21 C15        -1.4390  -10.5850    8.2130 ca        1 TC0     -0.109000
     22 C16        -2.0500  -11.6160    8.9190 ca        1 TC0     -0.115000
     23 C17        -3.4390  -11.8030    8.8520 cp        1 TC0      0.015000
     24 C20        -4.0960  -12.8660    9.6050 cp        1 TC0     -0.120000
     25 C21        -5.3240  -12.6130   10.2380 ca        1 TC0     -0.052000
     26 C22        -5.9940  -13.5900   10.9590 ca        1 TC0     -0.189000
     27 C23        -5.4280  -14.8740   11.0570 ca        1 TC0      0.179100
     28 O2         -6.1360  -15.8010   11.7780 oh        1 TC0     -0.485100
     29 C24        -4.2050  -15.1690   10.4450 ca        1 TC0     -0.304000
     30 C25        -3.5450  -14.1590    9.7280 ca        1 TC0      0.184100
     31 O1         -2.3350  -14.4020    9.1210 oh        1 TC0     -0.496100
     32 H11C        0.7600   -0.3260   -0.6530 hc        1 TC0      0.108950
     33 H12C        0.0330    1.3440   -0.4650 hc        1 TC0      0.108950
     34 H21C        2.7510    0.3540    0.8270 hc        1 TC0      0.108950
     35 H22C        2.0460    2.0310    1.0290 hc        1 TC0      0.108950
     36 H3         -0.0880    1.0810    2.0820 hx        1 TC0      0.141700
     37 H1          1.2680   -1.5410    1.6570 hn        1 TC0      0.446800
     38 H41C        0.0390   -0.2750    4.0680 hx        1 TC0      0.101200
     39 H42C        1.8400   -0.3970    3.7320 hx        1 TC0      0.101200
     40 H6          2.9980   -2.5330    3.9500 ha        1 TC0      0.132000
     41 H10        -1.2910   -2.3090    4.5190 ha        1 TC0      0.132000
     42 H7          3.0190   -4.8060    4.8900 ha        1 TC0      0.162000
     43 H9         -1.3080   -4.5760    5.4660 ha        1 TC0      0.162000
     44 H2          1.7950   -6.5840    5.8740 hn        1 TC0      0.450800
     45 H12         0.2910   -8.1010    7.8690 ha        1 TC0      0.179000
     46 HA         -2.8290   -8.3620    4.9990 hn        1 TC0      0.332700
     47 H19        -4.2160   -9.2290    6.7410 ha        1 TC0      0.131500
     48 H15        -0.3480  -10.4500    8.2740 ha        1 TC0      0.131500
     49 H18        -5.2910  -11.0730    7.9840 ha        1 TC0      0.149000
     50 H16        -1.4400  -12.3010    9.5290 ha        1 TC0      0.149000
     51 H21        -5.7630  -11.6040   10.1650 ha        1 TC0      0.142000
     52 H22        -6.9520  -13.3820   11.4540 ha        1 TC0      0.160000
     53 HB         -5.6420  -16.6350   11.7730 ho        1 TC0      0.426000
     54 H24        -3.7660  -16.1720   10.5230 ha        1 TC0      0.142000
     55 HC         -2.1320  -15.3450    9.2160 ho        1 TC0      0.426000
     56 H121       -0.3550   -1.3740    1.9550 hn        1 TC0      0.446800
@<TRIPOS>BOND
     1    1    2 1   
     2    1    3 1   
     3    1   32 1   
     4    1   33 1   
     5    2    3 1   
     6    2   34 1   
     7    2   35 1   
     8    3    4 1   
     9    3   36 1   
    10    4    5 1   
    11    4   37 1   
    12    4   56 1   
    13    5    6 1   
    14    5   38 1   
    15    5   39 1   
    16    6    7 ar  
    17    6    9 ar  
    18    7    8 ar  
    19    7   40 1   
    20    8   11 ar  
    21    8   42 1   
    22    9   10 ar  
    23    9   41 1   
    24   10   11 ar  
    25   10   43 1   
    26   11   12 1   
    27   12   13 1   
    28   12   44 1   
    29   13   14 1   
    30   13   15 2   
    31   14   17 2   
    32   14   45 1   
    33   15   16 1   
    34   16   17 1   
    35   16   46 1   
    36   17   18 1   
    37   18   19 ar  
    38   18   21 ar  
    39   19   20 ar  
    40   19   47 1   
    41   20   23 ar  
    42   20   49 1   
    43   21   22 ar  
    44   21   48 1   
    45   22   23 ar  
    46   22   50 1   
    47   23   24 1   
    48   24   25 ar  
    49   24   30 ar  
    50   25   26 ar  
    51   25   51 1   
    52   26   27 ar  
    53   26   52 1   
    54   27   28 1   
    55   27   29 ar  
    56   28   53 1   
    57   29   30 ar  
    58   29   54 1   
    59   30   31 1   
    60   31   55 1   
@<TRIPOS>SUBSTRUCTURE
     1 TC0         1 TEMP              0 ****  ****    0 ROOT
