@<TRIPOS>MOLECULE
TC0
   55    59     1     0     0
SMALL
bcc


@<TRIPOS>ATOM
      1 C1        -10.0570    2.1920    0.8890 cx        1 TC0     -0.154900
      2 C2        -10.3720    1.2880    2.0430 cx        1 TC0     -0.154900
      3 C3         -9.8760    0.6900    0.7450 cx        1 TC0      0.123500
      4 N1         -8.6120    0.0290    0.6640 n3        1 TC0     -0.792200
      5 C4         -8.0400    0.0460   -0.6740 c3        1 TC0      0.213100
      6 C5         -6.6000   -0.3670   -0.7080 ca        1 TC0     -0.119300
      7 C6         -6.1880   -1.5660   -0.1180 ca        1 TC0     -0.098000
      8 C7         -4.8560   -1.9600   -0.1700 ca        1 TC0     -0.155000
      9 C10        -5.6550    0.4300   -1.3590 ca        1 TC0     -0.098000
     10 C9         -4.3210    0.0450   -1.4310 ca        1 TC0     -0.155000
     11 C8         -3.8960   -1.1590   -0.8310 ca        1 TC0      0.129600
     12 N2         -2.5680   -1.6240   -0.9740 nh        1 TC0     -0.680300
     13 C11        -1.4800   -0.7990   -0.6520 cc        1 TC0      0.511200
     14 C12        -0.0970   -1.2640   -0.6780 cc        1 TC0     -0.303300
     15 N4         -1.5080    0.5450   -0.3320 nd        1 TC0     -0.537800
     16 N3         -0.2400    0.9210   -0.1890 na        1 TC0     -0.011600
     17 C13         0.6720   -0.1280   -0.3720 cd        1 TC0     -0.040300
     18 C14         2.1110    0.0010   -0.2570 ca        1 TC0     -0.020000
     19 C19         2.7600    1.2220   -0.4870 ca        1 TC0     -0.112500
     20 C18         4.1440    1.3160   -0.3760 ca        1 TC0     -0.127000
     21 C15         2.8760   -1.1260    0.0790 ca        1 TC0     -0.112500
     22 C16         4.2590   -1.0300    0.1900 ca        1 TC0     -0.127000
     23 C17         4.9090    0.1930   -0.0300 cp        1 TC0     -0.027000
     24 C20         6.3630    0.2980    0.0630 cp        1 TC0     -0.164000
     25 C21         7.0830    0.8570   -1.0040 ca        1 TC0     -0.048000
     26 C22         8.4660    0.9600   -0.9730 ca        1 TC0     -0.192000
     27 C23         9.1590    0.4970    0.1610 ca        1 TC0      0.164100
     28 O2         10.5270    0.6210    0.1350 oh        1 TC0     -0.492100
     29 C24         8.4790   -0.0530    1.2500 ca        1 TC0     -0.251000
     30 C25         7.0780   -0.1470    1.1930 ca        1 TC0      0.182100
     31 O1          6.4870   -0.6950    2.3050 oh        1 TC0     -0.499100
     32 H11C      -10.8840    2.6790    0.3440 hc        1 TC0      0.071700
     33 H12C       -9.1680    2.8440    0.9530 hc        1 TC0      0.071700
     34 H21C       -9.7100    1.3000    2.9280 hc        1 TC0      0.071700
     35 H22C      -11.4260    1.1150    2.3240 hc        1 TC0      0.071700
     36 H3        -10.6220    0.1550    0.1120 h1        1 TC0      0.090700
     37 H1         -7.9640    0.4030    1.3330 hn        1 TC0      0.363800
     38 H41C       -8.6390   -0.6820   -1.2960 h1        1 TC0      0.040200
     39 H42C       -8.1440    1.0620   -1.1610 h1        1 TC0      0.040200
     40 H6         -6.9250   -2.2030    0.3960 ha        1 TC0      0.139000
     41 H10        -5.9660    1.3760   -1.8290 ha        1 TC0      0.139000
     42 H7         -4.5590   -2.9070    0.3060 ha        1 TC0      0.140000
     43 H9         -3.6030    0.6880   -1.9620 ha        1 TC0      0.140000
     44 H2         -2.4340   -2.5490   -0.6090 hn        1 TC0      0.409800
     45 H12         0.2500   -2.2640   -0.9100 ha        1 TC0      0.169000
     46 HA         -0.0270    1.8550    0.0740 hn        1 TC0      0.323700
     47 H19         2.1840    2.1160   -0.7720 ha        1 TC0      0.138000
     48 H15         2.3750   -2.0910    0.2530 ha        1 TC0      0.138000
     49 H18         4.6460    2.2780   -0.5610 ha        1 TC0      0.143000
     50 H16         4.8520   -1.9250    0.4390 ha        1 TC0      0.143000
     51 H21         6.5320    1.2130   -1.8890 ha        1 TC0      0.141000
     52 H22         9.0270    1.3910   -1.8130 ha        1 TC0      0.155000
     53 HB         10.8780    0.2670    0.9650 ho        1 TC0      0.424000
     54 H24         9.0100   -0.4090    2.1430 ha        1 TC0      0.154000
     55 HC          5.5250   -0.6000    2.2200 ho        1 TC0      0.431000
@<TRIPOS>BOND
     1    1    2 1   
     2    1    3 1   
     3    1   32 1   
     4    1   33 1   
     5    2    3 1   
     6    2   34 1   
     7    2   35 1   
     8    3    4 1   
     9    3   36 1   
    10    4    5 1   
    11    4   37 1   
    12    5    6 1   
    13    5   38 1   
    14    5   39 1   
    15    6    7 ar  
    16    6    9 ar  
    17    7    8 ar  
    18    7   40 1   
    19    8   11 ar  
    20    8   42 1   
    21    9   10 ar  
    22    9   41 1   
    23   10   11 ar  
    24   10   43 1   
    25   11   12 1   
    26   12   13 1   
    27   12   44 1   
    28   13   14 1   
    29   13   15 2   
    30   14   17 2   
    31   14   45 1   
    32   15   16 1   
    33   16   17 1   
    34   16   46 1   
    35   17   18 1   
    36   18   19 ar  
    37   18   21 ar  
    38   19   20 ar  
    39   19   47 1   
    40   20   23 ar  
    41   20   49 1   
    42   21   22 ar  
    43   21   48 1   
    44   22   23 ar  
    45   22   50 1   
    46   23   24 1   
    47   24   25 ar  
    48   24   30 ar  
    49   25   26 ar  
    50   25   51 1   
    51   26   27 ar  
    52   26   52 1   
    53   27   28 1   
    54   27   29 ar  
    55   28   53 1   
    56   29   30 ar  
    57   29   54 1   
    58   30   31 1   
    59   31   55 1   
@<TRIPOS>SUBSTRUCTURE
     1 TC0         1 TEMP              0 ****  ****    0 ROOT
