@<TRIPOS>MOLECULE
TC0
   57    61     1     0     0
SMALL
bcc


@<TRIPOS>ATOM
      1 C1         -1.2370   -0.0440    0.4760 cx        1 TC0     -0.092400
      2 C2          0.2340   -0.1200    0.2170 cx        1 TC0     -0.092400
      3 C3         -0.2710   -0.0820    1.6460 cx        1 TC0     -0.022500
      4 N1         -0.2000   -1.2720    2.5140 n4        1 TC0     -0.726000
      5 C4          1.0540   -1.2840    3.3340 c3        1 TC0      0.158100
      6 C5          1.1460   -2.4810    4.2270 ca        1 TC0     -0.135300
      7 C6          1.8350   -3.6210    3.8010 ca        1 TC0     -0.083000
      8 C7          2.0100   -4.7050    4.6610 ca        1 TC0     -0.083000
      9 C10         0.6140   -2.4310    5.5200 ca        1 TC0     -0.083000
     10 C9          0.7780   -3.5040    6.3950 ca        1 TC0     -0.083000
     11 C8          1.4910   -4.6370    5.9650 ca        1 TC0      0.009600
     12 N2          1.7120   -5.7550    6.8960 n4        1 TC0     -0.574100
     13 C11         0.8260   -6.8830    6.6720 cc        1 TC0      0.297200
     14 C12         0.0410   -7.5350    7.6940 cc        1 TC0     -0.270300
     15 N4          0.6540   -7.5030    5.4440 nd        1 TC0     -0.477800
     16 N3         -0.1800   -8.4960    5.6680 na        1 TC0      0.035400
     17 C13        -0.6040   -8.5900    7.0090 cd        1 TC0      0.059700
     18 C14        -1.5050   -9.5990    7.5120 ca        1 TC0     -0.116000
     19 C19        -2.4510  -10.2200    6.6810 ca        1 TC0     -0.089000
     20 C18        -3.3040  -11.1890    7.1930 ca        1 TC0     -0.121000
     21 C15        -1.4330   -9.9710    8.8650 ca        1 TC0     -0.089000
     22 C16        -2.2880  -10.9410    9.3730 ca        1 TC0     -0.121000
     23 C17        -3.2370  -11.5660    8.5470 cp        1 TC0      0.066000
     24 C20        -4.1490  -12.5730    9.0690 cp        1 TC0     -0.154000
     25 C21        -5.4830  -12.6070    8.6180 ca        1 TC0     -0.044000
     26 C22        -6.3880  -13.5470    9.0760 ca        1 TC0     -0.187000
     27 C23        -5.9620  -14.5060   10.0180 ca        1 TC0      0.200100
     28 O2         -6.9010  -15.4120   10.4280 oh        1 TC0     -0.475100
     29 C24        -4.6470  -14.5080   10.4940 ca        1 TC0     -0.307000
     30 C25        -3.7520  -13.5360   10.0210 ca        1 TC0      0.199100
     31 O1         -2.4530  -13.4970   10.4680 oh        1 TC0     -0.503100
     32 H11C       -1.7820    0.9060    0.3000 hc        1 TC0      0.118200
     33 H12C       -1.8710   -0.9220    0.2470 hc        1 TC0      0.118200
     34 H21C        0.6590   -1.0530   -0.1990 hc        1 TC0      0.118200
     35 H22C        0.7770    0.7740   -0.1540 hc        1 TC0      0.118200
     36 H3         -0.1180    0.8430    2.2500 hx        1 TC0      0.150700
     37 H1         -0.2410   -2.1230    1.9390 hn        1 TC0      0.452300
     38 H41C        1.0730   -0.3360    3.9490 hx        1 TC0      0.125200
     39 H42C        1.9290   -1.2550    2.6180 hx        1 TC0      0.125200
     40 H6          2.2660   -3.6720    2.7860 ha        1 TC0      0.170500
     41 H10         0.0760   -1.5340    5.8730 ha        1 TC0      0.170500
     42 H7          2.5500   -5.6010    4.3020 ha        1 TC0      0.184000
     43 H9          0.3500   -3.4390    7.4110 ha        1 TC0      0.184000
     44 H2          1.5600   -5.4340    7.8640 hn        1 TC0      0.475800
     45 H12        -0.0440   -7.2840    8.7460 ha        1 TC0      0.196000
     46 HA         -0.4380   -9.1120    4.9200 hn        1 TC0      0.360700
     47 H19        -2.5360   -9.9430    5.6200 ha        1 TC0      0.128500
     48 H15        -0.6920   -9.4970    9.5270 ha        1 TC0      0.128500
     49 H18        -4.0340  -11.6770    6.5270 ha        1 TC0      0.163500
     50 H16        -2.2150  -11.2360   10.4340 ha        1 TC0      0.163500
     51 H21        -5.8180  -11.8530    7.8860 ha        1 TC0      0.139000
     52 H22        -7.4290  -13.5640    8.7240 ha        1 TC0      0.168000
     53 HB         -6.4940  -16.0150   11.0690 ho        1 TC0      0.434000
     54 H24        -4.3160  -15.2570   11.2270 ha        1 TC0      0.150000
     55 HC         -2.3030  -14.2660   11.0400 ho        1 TC0      0.436000
     56 H121       -1.0180   -1.2700    3.1370 hn        1 TC0      0.452300
     57 H221        2.6880   -6.0790    6.7970 hn        1 TC0      0.475800
@<TRIPOS>BOND
     1    1    2 1   
     2    1    3 1   
     3    1   32 1   
     4    1   33 1   
     5    2    3 1   
     6    2   34 1   
     7    2   35 1   
     8    3    4 1   
     9    3   36 1   
    10    4    5 1   
    11    4   37 1   
    12    4   56 1   
    13    5    6 1   
    14    5   38 1   
    15    5   39 1   
    16    6    7 ar  
    17    6    9 ar  
    18    7    8 ar  
    19    7   40 1   
    20    8   11 ar  
    21    8   42 1   
    22    9   10 ar  
    23    9   41 1   
    24   10   11 ar  
    25   10   43 1   
    26   11   12 1   
    27   12   13 1   
    28   12   44 1   
    29   12   57 1   
    30   13   14 1   
    31   13   15 2   
    32   14   17 2   
    33   14   45 1   
    34   15   16 1   
    35   16   17 1   
    36   16   46 1   
    37   17   18 1   
    38   18   19 ar  
    39   18   21 ar  
    40   19   20 ar  
    41   19   47 1   
    42   20   23 ar  
    43   20   49 1   
    44   21   22 ar  
    45   21   48 1   
    46   22   23 ar  
    47   22   50 1   
    48   23   24 1   
    49   24   25 ar  
    50   24   30 ar  
    51   25   26 ar  
    52   25   51 1   
    53   26   27 ar  
    54   26   52 1   
    55   27   28 1   
    56   27   29 ar  
    57   28   53 1   
    58   29   30 ar  
    59   29   54 1   
    60   30   31 1   
    61   31   55 1   
@<TRIPOS>SUBSTRUCTURE
     1 TC0         1 TEMP              0 ****  ****    0 ROOT
