@<TRIPOS>MOLECULE
TC0
   56    60     1     0     0
SMALL
bcc


@<TRIPOS>ATOM
      1 C1          0.6670    0.5730    0.0130 cx        1 TC0     -0.102900
      2 C2          1.8260    0.9670    0.8750 cx        1 TC0     -0.102900
      3 C3          0.5750    0.4000    1.5160 cx        1 TC0     -0.006500
      4 N1          0.5680   -0.9390    2.1170 ny        1 TC0     -0.737000
      5 C4          0.8460   -0.9060    3.6030 c3        1 TC0      0.201100
      6 C5          0.8510   -2.2820    4.1480 ca        1 TC0     -0.277300
      7 C6          2.0510   -2.9940    4.2720 ca        1 TC0     -0.051000
      8 C7          2.0650   -4.2720    4.8000 ca        1 TC0     -0.195000
      9 C10        -0.3430   -2.8740    4.5860 ca        1 TC0     -0.051000
     10 C9         -0.3530   -4.1510    5.1170 ca        1 TC0     -0.195000
     11 C8          0.8560   -4.8920    5.2340 ca        1 TC0      0.251600
     12 N2          0.9100   -6.1390    5.8210 nu        1 TC0     -0.700300
     13 C11        -0.1820   -7.0120    5.9220 cc        1 TC0      0.487200
     14 C12        -0.3520   -7.9670    7.0060 cc        1 TC0     -0.283300
     15 N4         -1.2210   -7.1400    5.0160 nd        1 TC0     -0.537800
     16 N3         -2.0100   -8.0930    5.4930 na        1 TC0     -0.000600
     17 C13        -1.5420   -8.6520    6.6930 cd        1 TC0     -0.009300
     18 C14        -2.2030   -9.7210    7.4130 ca        1 TC0     -0.054000
     19 C19        -3.5910   -9.9070    7.3360 ca        1 TC0     -0.109000
     20 C18        -4.2010  -10.9370    8.0440 ca        1 TC0     -0.115000
     21 C15        -1.4400  -10.5870    8.2110 ca        1 TC0     -0.109000
     22 C16        -2.0530  -11.6160    8.9170 ca        1 TC0     -0.115000
     23 C17        -3.4420  -11.8040    8.8450 cp        1 TC0      0.015000
     24 C20        -4.1010  -12.8660    9.5980 cp        1 TC0     -0.120000
     25 C21        -5.3320  -12.6120   10.2260 ca        1 TC0     -0.052000
     26 C22        -6.0030  -13.5880   10.9470 ca        1 TC0     -0.189000
     27 C23        -5.4360  -14.8720   11.0500 ca        1 TC0      0.179100
     28 O2         -6.1470  -15.7980   11.7710 oh        1 TC0     -0.485100
     29 C24        -4.2110  -15.1670   10.4430 ca        1 TC0     -0.304000
     30 C25        -3.5490  -14.1590    9.7260 ca        1 TC0      0.184100
     31 O1         -2.3370  -14.4020    9.1240 oh        1 TC0     -0.496100
     32 H11C        0.7610   -0.3140   -0.6420 hc        1 TC0      0.108950
     33 H12C        0.0330    1.3540   -0.4500 hc        1 TC0      0.108950
     34 H21C        2.0460    2.0390    1.0460 hc        1 TC0      0.108950
     35 H22C        2.7520    0.3620    0.8390 hc        1 TC0      0.108950
     36 H3         -0.0860    1.0850    2.0970 hx        1 TC0      0.141700
     37 H1         -0.3520   -1.3710    1.9630 hn        1 TC0      0.446800
     38 H41C        1.8410   -0.3970    3.7440 hx        1 TC0      0.101200
     39 H42C        0.0410   -0.2770    4.0790 hx        1 TC0      0.101200
     40 H6          3.0010   -2.5320    3.9560 ha        1 TC0      0.132000
     41 H10        -1.2890   -2.3120    4.5230 ha        1 TC0      0.132000
     42 H7          3.0230   -4.8070    4.8900 ha        1 TC0      0.162000
     43 H9         -1.3040   -4.5820    5.4660 ha        1 TC0      0.162000
     44 H2          1.8000   -6.5890    5.8690 hn        1 TC0      0.450800
     45 H12         0.2900   -8.1040    7.8670 ha        1 TC0      0.179000
     46 HA         -2.8210   -8.3690    4.9880 hn        1 TC0      0.332700
     47 H19        -4.2130   -9.2350    6.7260 ha        1 TC0      0.131500
     48 H15        -0.3500  -10.4510    8.2750 ha        1 TC0      0.131500
     49 H18        -5.2910  -11.0770    7.9680 ha        1 TC0      0.149000
     50 H16        -1.4440  -12.3000    9.5300 ha        1 TC0      0.149000
     51 H21        -5.7710  -11.6040   10.1490 ha        1 TC0      0.142000
     52 H22        -6.9630  -13.3790   11.4380 ha        1 TC0      0.160000
     53 HB         -5.6520  -16.6310   11.7700 ho        1 TC0      0.426000
     54 H24        -3.7720  -16.1700   10.5250 ha        1 TC0      0.142000
     55 HC         -2.1340  -15.3450    9.2230 ho        1 TC0      0.426000
     56 H121        1.2710   -1.5350    1.6650 hn        1 TC0      0.446800
@<TRIPOS>BOND
     1    1    2 1   
     2    1    3 1   
     3    1   32 1   
     4    1   33 1   
     5    2    3 1   
     6    2   34 1   
     7    2   35 1   
     8    3    4 1   
     9    3   36 1   
    10    4    5 1   
    11    4   37 1   
    12    4   56 1   
    13    5    6 1   
    14    5   38 1   
    15    5   39 1   
    16    6    7 ar  
    17    6    9 ar  
    18    7    8 ar  
    19    7   40 1   
    20    8   11 ar  
    21    8   42 1   
    22    9   10 ar  
    23    9   41 1   
    24   10   11 ar  
    25   10   43 1   
    26   11   12 1   
    27   12   13 1   
    28   12   44 1   
    29   13   14 1   
    30   13   15 2   
    31   14   17 2   
    32   14   45 1   
    33   15   16 1   
    34   16   17 1   
    35   16   46 1   
    36   17   18 1   
    37   18   19 ar  
    38   18   21 ar  
    39   19   20 ar  
    40   19   47 1   
    41   20   23 ar  
    42   20   49 1   
    43   21   22 ar  
    44   21   48 1   
    45   22   23 ar  
    46   22   50 1   
    47   23   24 1   
    48   24   25 ar  
    49   24   30 ar  
    50   25   26 ar  
    51   25   51 1   
    52   26   27 ar  
    53   26   52 1   
    54   27   28 1   
    55   27   29 ar  
    56   28   53 1   
    57   29   30 ar  
    58   29   54 1   
    59   30   31 1   
    60   31   55 1   
@<TRIPOS>SUBSTRUCTURE
     1 TC0         1 TEMP              0 ****  ****    0 ROOT
