@<TRIPOS>MOLECULE
TC1
   41    44     1     0     0
SMALL
bcc


@<TRIPOS>ATOM
      1 P          -3.6650    0.6980    4.5430 p5        1 TC1      1.438800
      2 OP1        -4.0360    1.1270    5.9070 o         1 TC1     -0.848500
      3 OP2        -4.7580   -0.4740    4.2170 oh        1 TC1     -0.785400
      4 O5'        -2.3160   -0.2410    4.6370 os        1 TC1     -0.585200
      5 C5'        -1.9270   -0.9200    3.4790 c3        1 TC1      0.192400
      6 C4'        -0.7420   -0.2230    2.7910 c3        1 TC1      0.086100
      7 C3'        -1.1030    0.4360    1.4430 c3        1 TC1      0.139100
      8 C2'         0.0130    0.0290    0.4800 c3        1 TC1     -0.107400
      9 C1'         0.9040   -0.9610    1.2610 c3        1 TC1      0.318500
     10 O4'         0.2780   -1.2000    2.5460 os        1 TC1     -0.428600
     11 N1          1.1610   -2.2220    0.5770 n         1 TC1     -0.325400
     12 C2          2.4390   -2.8620    0.7820 c         1 TC1      0.760500
     13 O2          3.3300   -2.2820    1.4570 o         1 TC1     -0.670100
     14 N3          2.6980   -4.1150    0.2080 ne        1 TC1     -0.785100
     15 C4          1.7470   -4.6490   -0.5910 cd        1 TC1      0.734500
     16 C6          1.0220   -6.7400   -1.6580 ca        1 TC1      0.157600
     17 C14         0.2090   -2.7830   -0.2060 c1        1 TC1     -0.031900
     18 C13         0.5020   -4.0130   -0.8390 cd        1 TC1     -0.507100
     19 N5          2.0480   -5.8920   -1.2180 na        1 TC1     -0.693600
     20 C11        -0.2610   -6.2280   -2.0170 ca        1 TC1     -0.041100
     21 S12        -0.6910   -4.6140   -1.8590 ss        1 TC1     -0.021500
     22 C7          1.2840   -8.1130   -1.8370 ca        1 TC1     -0.193000
     23 C8          0.3250   -8.9540   -2.4000 ca        1 TC1     -0.148000
     24 C9         -0.9160   -8.4510   -2.7700 ca        1 TC1     -0.161000
     25 C10        -1.2040   -7.1030   -2.5650 ca        1 TC1     -0.137000
     26 O3'        -1.1240    1.8480    1.5400 oh        1 TC1     -0.645800
     27 OP3        -3.4940    1.5660    3.3570 o         1 TC1     -0.848500
     28 H5'        -1.6010   -1.9540    3.7870 h1        1 TC1      0.038200
     29 H5''       -2.8010   -0.9990    2.7760 h1        1 TC1      0.038200
     30 H4'        -0.2990    0.5450    3.4850 h1        1 TC1      0.059700
     31 H3'        -2.1020    0.0710    1.0780 h1        1 TC1      0.055700
     32 H2'        -0.4230   -0.4410   -0.4360 hc        1 TC1      0.066700
     33 H2''        0.6180    0.9190    0.1790 hc        1 TC1      0.066700
     34 H1'         1.9090   -0.4960    1.5000 h2        1 TC1      0.070700
     35 H14        -5.1800   -0.7890    5.0080 ho        1 TC1      0.422000
     36 H5          2.8530   -6.3680   -0.8640 hn        1 TC1      0.411800
     37 H7          2.2580   -8.5320   -1.5450 ha        1 TC1      0.113000
     38 H8          0.5570  -10.0180   -2.5430 ha        1 TC1      0.102000
     39 H9         -1.6730   -9.1110   -3.2130 ha        1 TC1      0.105000
     40 H10        -2.1960   -6.7090   -2.8340 ha        1 TC1      0.125000
     41 HO3'       -1.9030    2.0740    2.0770 ho        1 TC1      0.459000
@<TRIPOS>BOND
     1    1    2 1   
     2    1    3 1   
     3    1    4 1   
     4    1   27 1   
     5    3   35 1   
     6    4    5 1   
     7    5    6 1   
     8    5   28 1   
     9    5   29 1   
    10    6    7 1   
    11    6   10 1   
    12    6   30 1   
    13    7    8 1   
    14    7   26 1   
    15    7   31 1   
    16    8    9 1   
    17    8   32 1   
    18    8   33 1   
    19    9   10 1   
    20    9   11 1   
    21    9   34 1   
    22   11   12 1   
    23   11   17 2   
    24   12   13 2   
    25   12   14 1   
    26   14   15 2   
    27   15   18 1   
    28   15   19 1   
    29   16   19 1   
    30   16   20 ar  
    31   16   22 ar  
    32   17   18 2   
    33   18   21 1   
    34   19   36 1   
    35   20   21 1   
    36   20   25 ar  
    37   22   23 ar  
    38   22   37 1   
    39   23   24 ar  
    40   23   38 1   
    41   24   25 ar  
    42   24   39 1   
    43   25   40 1   
    44   26   41 1   
@<TRIPOS>SUBSTRUCTURE
     1 TC1         1 TEMP              0 ****  ****    0 ROOT
