@<TRIPOS>MOLECULE
TC2
   73    75     1     0     0
SMALL
bcc


@<TRIPOS>ATOM
      1 C1         -0.9100   -0.3350    0.2550 ca        1 TC2     -0.246600
      2 C2         -0.2020   -1.5680    0.2400 ca        1 TC2      0.256600
      3 C3          0.6420   -1.9140    1.3400 ca        1 TC2      0.060100
      4 C4          0.7730   -1.0610    2.4230 ca        1 TC2     -0.061500
      5 C5          0.0590    0.1590    2.4350 ca        1 TC2     -0.079500
      6 C6         -0.7580    0.5150    1.3880 ca        1 TC2     -0.122500
      7 C7         -1.7310   -0.0340   -0.8740 c         1 TC2      0.622700
      8 O8         -2.0500   -0.6810   -1.8710 o         1 TC2     -0.545100
      9 N9         -2.3650    1.3910   -0.8980 ny        1 TC2     -0.695300
     10 C10        -2.9300    1.7650   -2.2200 c3        1 TC2      0.096800
     11 C11        -4.2660    1.0590   -2.5550 c3        1 TC2      0.079300
     12 N12        -4.4930    0.8770   -4.0360 nx        1 TC2     -0.671400
     13 C13        -3.8640   -0.4090   -4.5140 c3        1 TC2      0.079300
     14 O14        -0.3510   -2.3720   -0.8380 oh        1 TC2     -0.474100
     15 O15         1.2660   -3.1240    1.1940 oh        1 TC2     -0.496100
     16 C16        -3.4360   -0.3730   -6.0000 c3        1 TC2      0.096800
     17 N17        -3.4540   -1.7020   -6.6620 ny        1 TC2     -0.695300
     18 C18        -5.9680    0.8920   -4.3470 c3        1 TC2      0.074800
     19 C19        -6.5420    2.3170   -4.5170 c3        1 TC2      0.093800
     20 N20        -8.0030    2.4130   -4.2720 ny        1 TC2     -0.675800
     21 C21        -8.3990    2.3280   -2.7950 c         1 TC2      0.605300
     22 O22        -7.4580    2.0210   -2.0590 o         1 TC2     -0.549100
     23 C23        -9.7870    2.5770   -2.4390 cc        1 TC2     -0.166600
     24 N24       -10.7530    2.9600   -3.4220 n         1 TC2     -0.186500
     25 C25       -12.1010    3.2770   -2.9320 c         1 TC2      0.625700
     26 C26       -12.4570    2.8810   -1.5570 cc        1 TC2     -0.055200
     27 C27       -11.5140    2.4170   -0.7040 cd        1 TC2     -0.137000
     28 C28       -10.1630    2.2480   -1.1440 cd        1 TC2      0.062000
     29 O29       -10.2650    3.8780   -4.2760 oh        1 TC2     -0.505100
     30 O30       -12.8570    3.8170   -3.7380 o         1 TC2     -0.467500
     31 C31        -4.8900   -2.2090   -6.9960 c         1 TC2      0.622700
     32 O32        -5.7460   -1.5430   -6.4140 o         1 TC2     -0.545100
     33 C33        -4.9720   -3.3150   -7.8960 ca        1 TC2     -0.246600
     34 C34        -6.2650   -3.7000   -8.3450 ca        1 TC2      0.256600
     35 C35        -6.4020   -4.7940   -9.2540 ca        1 TC2      0.060100
     36 C36        -5.2860   -5.4860   -9.6980 ca        1 TC2     -0.061500
     37 C37        -4.0050   -5.1020   -9.2410 ca        1 TC2     -0.079500
     38 C38        -3.8470   -4.0520   -8.3670 ca        1 TC2     -0.122500
     39 O39        -7.3290   -2.9970   -7.8950 oh        1 TC2     -0.474100
     40 O40        -7.6990   -5.0570   -9.6080 oh        1 TC2     -0.496100
     41 H4          1.4270   -1.3230    3.2760 ha        1 TC2      0.203000
     42 H5          0.1700    0.8260    3.3110 ha        1 TC2      0.196000
     43 H6         -1.3010    1.4690    1.4600 ha        1 TC2      0.127500
     44 HN9        -3.0830    1.4400   -0.1670 hn        1 TC2      0.480050
     45 H10        -2.1390    1.5220   -2.9910 hx        1 TC2      0.123450
     46 H10A       -3.0970    2.8850   -2.2200 hx        1 TC2      0.123450
     47 H11        -5.1230    1.6800   -2.1480 hx        1 TC2      0.147700
     48 H11A       -4.3170    0.0350   -2.0750 hx        1 TC2      0.147700
     49 H13        -4.6090   -1.2400   -4.3230 hx        1 TC2      0.147700
     50 H13A       -2.9470   -0.6050   -3.8750 hx        1 TC2      0.147700
     51 HO14        0.1930   -3.1810   -0.7240 ho        1 TC2      0.499000
     52 HO15        1.8290   -3.2960    1.9710 ho        1 TC2      0.485000
     53 H16        -4.1140    0.3000   -6.6040 hx        1 TC2      0.123450
     54 H16A       -2.3810    0.0310   -6.0670 hx        1 TC2      0.123450
     55 HN17       -2.9330   -1.6310   -7.5500 hn        1 TC2      0.480050
     56 H18        -6.4970    0.3370   -3.5140 hx        1 TC2      0.149200
     57 H18A       -6.1280    0.3130   -5.3100 hx        1 TC2      0.149200
     58 H19        -6.3540    2.6670   -5.5770 hx        1 TC2      0.124200
     59 H19A       -6.0440    3.0430   -3.8070 hx        1 TC2      0.124200
     60 HN20       -8.5200    1.6840   -4.7840 hn        1 TC2      0.500300
     61 H26       -13.5150    3.0540   -1.2710 ha        1 TC2      0.232000
     62 H27       -11.7610    2.1570    0.3440 ha        1 TC2      0.211000
     63 H28        -9.4230    1.8290   -0.4370 ha        1 TC2      0.185000
     64 HO29      -11.0170    4.1820   -4.8420 ho        1 TC2      0.508000
     65 H36        -5.3860   -6.3320  -10.4040 ha        1 TC2      0.203000
     66 H37        -3.1250   -5.6690   -9.5990 ha        1 TC2      0.196000
     67 H38        -2.8290   -3.8090   -8.0310 ha        1 TC2      0.127500
     68 HO39       -8.1530   -3.3610   -8.2850 ho        1 TC2      0.499000
     69 HO40       -7.7210   -5.8040  -10.2330 ho        1 TC2      0.485000
     70 H92        -1.6230    2.0680   -0.6590 hn        1 TC2      0.480050
     71 H121       -4.0470    1.6610   -4.5340 hn        1 TC2      0.451800
     72 H172       -2.9890   -2.4060   -6.0780 hn        1 TC2      0.480050
     73 H202       -8.3320    3.3320   -4.6400 hn        1 TC2      0.500300
@<TRIPOS>BOND
     1    1    2 ar  
     2    1    6 ar  
     3    1    7 1   
     4    2    3 ar  
     5    2   14 1   
     6    3    4 ar  
     7    3   15 1   
     8    4    5 ar  
     9    4   41 1   
    10    5    6 ar  
    11    5   42 1   
    12    6   43 1   
    13    7    8 2   
    14    7    9 1   
    15    9   10 1   
    16    9   44 1   
    17    9   70 1   
    18   10   11 1   
    19   10   45 1   
    20   10   46 1   
    21   11   12 1   
    22   11   47 1   
    23   11   48 1   
    24   12   13 1   
    25   12   18 1   
    26   12   71 1   
    27   13   16 1   
    28   13   49 1   
    29   13   50 1   
    30   14   51 1   
    31   15   52 1   
    32   16   17 1   
    33   16   53 1   
    34   16   54 1   
    35   17   31 1   
    36   17   55 1   
    37   17   72 1   
    38   18   19 1   
    39   18   56 1   
    40   18   57 1   
    41   19   20 1   
    42   19   58 1   
    43   19   59 1   
    44   20   21 1   
    45   20   60 1   
    46   20   73 1   
    47   21   22 2   
    48   21   23 1   
    49   23   24 1   
    50   23   28 2   
    51   24   25 1   
    52   24   29 1   
    53   25   26 1   
    54   25   30 2   
    55   26   27 2   
    56   26   61 1   
    57   27   28 1   
    58   27   62 1   
    59   28   63 1   
    60   29   64 1   
    61   31   32 2   
    62   31   33 1   
    63   33   34 ar  
    64   33   38 ar  
    65   34   35 ar  
    66   34   39 1   
    67   35   36 ar  
    68   35   40 1   
    69   36   37 ar  
    70   36   65 1   
    71   37   38 ar  
    72   37   66 1   
    73   38   67 1   
    74   39   68 1   
    75   40   69 1   
@<TRIPOS>SUBSTRUCTURE
     1 TC2         1 TEMP              0 ****  ****    0 ROOT
