@<TRIPOS>MOLECULE
TC2
   73    75     1     0     0
SMALL
bcc


@<TRIPOS>ATOM
      1 C1         -0.9300   -0.2980    0.2760 ca        1 TC2     -0.246600
      2 C2         -0.2310   -1.5370    0.2860 ca        1 TC2      0.256600
      3 C3          0.6040   -1.8710    1.3960 ca        1 TC2      0.060100
      4 C4          0.7370   -1.0000    2.4650 ca        1 TC2     -0.061500
      5 C5          0.0330    0.2250    2.4530 ca        1 TC2     -0.079500
      6 C6         -0.7760    0.5700    1.3960 ca        1 TC2     -0.122500
      7 C7         -1.7430   -0.0100   -0.8620 c         1 TC2      0.622700
      8 O8         -2.0610   -0.6720   -1.8490 o         1 TC2     -0.545100
      9 N9         -2.3660    1.4190   -0.9130 n4        1 TC2     -0.695300
     10 C10        -2.9220    1.7740   -2.2440 c3        1 TC2      0.096800
     11 C11        -4.2610    1.0720   -2.5730 c3        1 TC2      0.079300
     12 N12        -4.4830    0.8670   -4.0520 n4        1 TC2     -0.671400
     13 C13        -3.8610   -0.4320   -4.5050 c3        1 TC2      0.079300
     14 O14        -0.3810   -2.3580   -0.7790 oh        1 TC2     -0.474100
     15 O15         1.2200   -3.0880    1.2750 oh        1 TC2     -0.496100
     16 C16        -3.4260   -0.4230   -5.9900 c3        1 TC2      0.096800
     17 N17        -3.4500   -1.7630   -6.6300 n4        1 TC2     -0.695300
     18 C18        -5.9570    0.8860   -4.3700 c3        1 TC2      0.074800
     19 C19        -6.5210    2.3120   -4.5660 c3        1 TC2      0.093800
     20 N20        -7.9820    2.4220   -4.3290 n4        1 TC2     -0.675800
     21 C21        -8.3850    2.3640   -2.8530 c         1 TC2      0.605300
     22 O22        -7.4490    2.0630   -2.1070 o         1 TC2     -0.549100
     23 C23        -9.7730    2.6280   -2.5070 cc        1 TC2     -0.166600
     24 N24       -10.7320    3.0010   -3.5010 n         1 TC2     -0.186500
     25 C25       -12.0800    3.3340   -3.0220 c         1 TC2      0.625700
     26 C26       -12.4440    2.9640   -1.6420 cc        1 TC2     -0.055200
     27 C27       -11.5090    2.5080   -0.7780 cd        1 TC2     -0.137000
     28 C28       -10.1570    2.3230   -1.2090 cd        1 TC2      0.062000
     29 O29       -10.2350    3.9010   -4.3670 oh        1 TC2     -0.505100
     30 O30       -12.8290    3.8660   -3.8410 o         1 TC2     -0.467500
     31 C31        -4.8880   -2.2650   -6.9620 c         1 TC2      0.622700
     32 O32        -5.7420   -1.5840   -6.3950 o         1 TC2     -0.545100
     33 C33        -4.9730   -3.3850   -7.8440 ca        1 TC2     -0.246600
     34 C34        -6.2670   -3.7700   -8.2930 ca        1 TC2      0.256600
     35 C35        -6.4070   -4.8770   -9.1840 ca        1 TC2      0.060100
     36 C36        -5.2940   -5.5840   -9.6110 ca        1 TC2     -0.061500
     37 C37        -4.0130   -5.2020   -9.1540 ca        1 TC2     -0.079500
     38 C38        -3.8520   -4.1380   -8.2970 ca        1 TC2     -0.122500
     39 O39        -7.3280   -3.0520   -7.8590 oh        1 TC2     -0.474100
     40 O40        -7.7040   -5.1370   -9.5400 oh        1 TC2     -0.496100
     41 H4          1.3840   -1.2520    3.3260 ha        1 TC2      0.203000
     42 H5          0.1440    0.9070    3.3170 ha        1 TC2      0.196000
     43 H6         -1.3120    1.5290    1.4480 ha        1 TC2      0.127500
     44 HN9        -3.0870    1.4850   -0.1860 hn        1 TC2      0.480050
     45 H10        -2.1290    1.5120   -3.0060 hx        1 TC2      0.123450
     46 H10A       -3.0810    2.8940   -2.2630 hx        1 TC2      0.123450
     47 H11        -5.1160    1.7060   -2.1800 hx        1 TC2      0.147700
     48 H11A       -4.3220    0.0560   -2.0770 hx        1 TC2      0.147700
     49 H13        -4.6130   -1.2540   -4.3040 hx        1 TC2      0.147700
     50 H13A       -2.9480   -0.6220   -3.8590 hx        1 TC2      0.147700
     51 HO14        0.1560   -3.1690   -0.6470 ho        1 TC2      0.499000
     52 HO15        1.7780   -3.2510    2.0570 ho        1 TC2      0.485000
     53 H16        -4.0970    0.2450   -6.6080 hx        1 TC2      0.123450
     54 H16A       -2.3680   -0.0280   -6.0590 hx        1 TC2      0.123450
     55 HN17       -2.9250   -1.7100   -7.5170 hn        1 TC2      0.480050
     56 H18        -6.4940    0.3480   -3.5300 hx        1 TC2      0.149200
     57 H18A       -6.1160    0.2920   -5.3240 hx        1 TC2      0.149200
     58 H19        -6.3250    2.6430   -5.6310 hx        1 TC2      0.124200
     59 H19A       -6.0200    3.0460   -3.8660 hx        1 TC2      0.124200
     60 HN20       -8.5010    1.6880   -4.8310 hn        1 TC2      0.500300
     61 H26       -13.5020    3.1490   -1.3640 ha        1 TC2      0.232000
     62 H27       -11.7620    2.2670    0.2740 ha        1 TC2      0.211000
     63 H28        -9.4220    1.9120   -0.4910 ha        1 TC2      0.185000
     64 HO29      -10.9820    4.2000   -4.9420 ho        1 TC2      0.508000
     65 H36        -5.3970   -6.4410  -10.3030 ha        1 TC2      0.203000
     66 H37        -3.1350   -5.7800   -9.5000 ha        1 TC2      0.196000
     67 H38        -2.8330   -3.8970   -7.9610 ha        1 TC2      0.127500
     68 HO39       -8.1530   -3.4160   -8.2470 ho        1 TC2      0.499000
     69 HO40       -7.7290   -5.8950  -10.1520 ho        1 TC2      0.485000
     70 H92        -1.6200    2.0940   -0.6820 hn        1 TC2      0.480050
     71 H121       -4.0300    1.6400   -4.5610 hn        1 TC2      0.451800
     72 H172       -2.9920   -2.4610   -6.0320 hn        1 TC2      0.480050
     73 H202       -8.3030    3.3370   -4.7130 hn        1 TC2      0.500300
@<TRIPOS>BOND
     1    1    2 ar  
     2    1    6 ar  
     3    1    7 1   
     4    2    3 ar  
     5    2   14 1   
     6    3    4 ar  
     7    3   15 1   
     8    4    5 ar  
     9    4   41 1   
    10    5    6 ar  
    11    5   42 1   
    12    6   43 1   
    13    7    8 2   
    14    7    9 1   
    15    9   10 1   
    16    9   44 1   
    17    9   70 1   
    18   10   11 1   
    19   10   45 1   
    20   10   46 1   
    21   11   12 1   
    22   11   47 1   
    23   11   48 1   
    24   12   13 1   
    25   12   18 1   
    26   12   71 1   
    27   13   16 1   
    28   13   49 1   
    29   13   50 1   
    30   14   51 1   
    31   15   52 1   
    32   16   17 1   
    33   16   53 1   
    34   16   54 1   
    35   17   31 1   
    36   17   55 1   
    37   17   72 1   
    38   18   19 1   
    39   18   56 1   
    40   18   57 1   
    41   19   20 1   
    42   19   58 1   
    43   19   59 1   
    44   20   21 1   
    45   20   60 1   
    46   20   73 1   
    47   21   22 2   
    48   21   23 1   
    49   23   24 1   
    50   23   28 2   
    51   24   25 1   
    52   24   29 1   
    53   25   26 1   
    54   25   30 2   
    55   26   27 2   
    56   26   61 1   
    57   27   28 1   
    58   27   62 1   
    59   28   63 1   
    60   29   64 1   
    61   31   32 2   
    62   31   33 1   
    63   33   34 ar  
    64   33   38 ar  
    65   34   35 ar  
    66   34   39 1   
    67   35   36 ar  
    68   35   40 1   
    69   36   37 ar  
    70   36   65 1   
    71   37   38 ar  
    72   37   66 1   
    73   38   67 1   
    74   39   68 1   
    75   40   69 1   
@<TRIPOS>SUBSTRUCTURE
     1 TC2         1 TEMP              0 ****  ****    0 ROOT
