@<TRIPOS>MOLECULE
TC2
   69    65     1     0     0
SMALL
bcc


@<TRIPOS>ATOM
      1 C1          1.9060   -4.3060   -4.3380 c1        1 TC2     -0.123000
      2 C2          2.5230   -5.4370   -4.8550 c2        1 TC2      0.095000
      3 C3          1.8750   -6.2060   -5.8170 c1        1 TC2     -0.012000
      4 C4          0.6170   -5.8450   -6.2570 c1        1 TC2     -0.144000
      5 C5         -0.0030   -4.7110   -5.7390 c1        1 TC2     -0.144000
      6 C6          0.6430   -3.9440   -4.7810 c1        1 TC2     -0.077000
      7 C7          2.5750   -3.5200   -3.1970 c1        1 TC2      0.349000
      8 O8          3.6770   -3.8500   -2.7950 o         1 TC2     -0.374000
      9 N9          1.9300   -2.3370   -2.6550 n3        1 TC2     -0.348000
     10 C10         1.9990   -2.0620   -1.2350 c3        1 TC2     -0.071000
     11 C11         2.2140   -0.5450   -1.0140 c3        1 TC2     -0.076000
     12 N12         1.2560   -0.0520   -0.0090 n3        1 TC2     -0.294000
     13 C13         0.1960    0.6890   -0.6750 c3        1 TC2     -0.064000
     14 O14         3.8460   -5.7490   -4.4800 oh        1 TC2     -0.261000
     15 O15         2.5050   -7.3550   -6.3460 oh        1 TC2     -0.272000
     16 C16        -1.1640    0.0590   -0.3340 c3        1 TC2     -0.064000
     17 N17        -2.2300    0.9240   -0.8060 n         1 TC2     -0.363000
     18 C18         1.9500    0.8290    0.9340 c3        1 TC2     -0.063000
     19 C19         1.0390    1.1070    2.1470 c3        1 TC2     -0.068000
     20 N20         1.8610    1.4360    3.3080 n         1 TC2     -0.356000
     21 C21         1.4170    2.4450    4.2470 c2        1 TC2      0.349000
     22 O22         0.5310    3.2230    3.9320 o         1 TC2     -0.356000
     23 C23         2.1200    2.5890    5.6150 c2        1 TC2      0.038000
     24 N24         1.4350    2.1650    6.8390 n         1 TC2     -0.140000
     25 C25         2.0830    2.3410    8.1440 c2        1 TC2      0.319000
     26 C26         3.4670    2.9580    8.2280 c2        1 TC2     -0.223000
     27 C27         4.1550    3.3820    7.0060 c1        1 TC2     -0.040000
     28 C28         3.5010    3.2050    5.6940 c1        1 TC2     -0.196000
     29 O29         0.1860    1.6180    6.7670 oh        1 TC2     -0.204000
     30 O30         1.5080    1.9860    9.1660 o         1 TC2     -0.356000
     31 C31        -3.4850    0.9730   -0.0980 c2        1 TC2      0.358000
     32 O32        -3.5870    0.4520    1.0020 o         1 TC2     -0.381000
     33 C33        -4.6890    1.6930   -0.7200 c2        1 TC2     -0.124000
     34 C34        -4.9400    3.0210   -0.4080 c2        1 TC2      0.096000
     35 C35        -6.0340    3.6750   -0.9740 c1        1 TC2     -0.014000
     36 C36        -6.8680    2.9990   -1.8470 c2        1 TC2     -0.149000
     37 C37        -6.6150    1.6680   -2.1600 c1        1 TC2     -0.139000
     38 C38        -5.5250    1.0160   -1.5960 c1        1 TC2     -0.077000
     39 O39        -4.0540    3.7270    0.4290 oh        1 TC2     -0.258000
     40 O40        -6.2390    5.0420   -0.7260 o         1 TC2     -0.272000
     41 H4          0.1620   -6.3850   -6.9330 ha        1 TC2      0.141000
     42 H5         -0.8870   -4.4570   -6.0490 ha        1 TC2      0.141000
     43 H6          0.2100   -3.1530   -4.4200 ha        1 TC2      0.162000
     44 HN9         1.5160   -1.7470   -3.2140 hn        1 TC2      0.236000
     45 H10         1.1630   -2.3390   -0.8080 h1        1 TC2      0.101500
     46 H10A        2.7510   -2.5600   -0.8410 h1        1 TC2      0.101500
     47 H11         2.0740   -0.0680   -1.8610 h1        1 TC2      0.098500
     48 H11A        3.1290   -0.3880   -0.6970 h1        1 TC2      0.098500
     49 H13         0.2090    1.6150   -0.3740 h1        1 TC2      0.095500
     50 H13A        0.3360    0.6590   -1.6460 h1        1 TC2      0.095500
     51 HO14        4.4000   -5.5590   -5.1550 ho        1 TC2      0.249000
     52 HO15        2.6830   -7.2250   -7.2080 ho        1 TC2      0.232000
     53 H16        -1.2390   -0.0510    0.6320 h1        1 TC2      0.097500
     54 H16A       -1.2370   -0.8130   -0.7690 h1        1 TC2      0.097500
     55 HN17       -2.1260    1.3910   -1.5740 hn        1 TC2      0.241000
     56 H18         2.7780    0.3960    1.2390 h1        1 TC2      0.097000
     57 H18A        2.1680    1.6740    0.4900 h1        1 TC2      0.097000
     58 H19         0.4470    1.8550    1.9450 h1        1 TC2      0.101500
     59 H19A        0.4990    0.3050    2.3430 h1        1 TC2      0.101500
     60 HN20        2.6550    1.0090    3.4400 hn        1 TC2      0.246000
     61 H26         3.9010    3.0750    9.1050 ha        1 TC2      0.170000
     62 H27         5.0420    3.7780    7.0590 ha        1 TC2      0.149000
     63 H28         3.9540    3.4850    4.8860 ha        1 TC2      0.174000
     64 HO29       -0.4250    2.2530    6.8960 ho        1 TC2      0.250000
     65 H36        -7.6380    3.4590   -2.2460 ha        1 TC2      0.139000
     66 H37        -7.2060    1.1890   -2.7780 ha        1 TC2      0.143000
     67 H38        -5.3490    0.0850   -1.8150 ha        1 TC2      0.163000
     68 HO39       -4.5020    4.0560    1.1260 ho        1 TC2      0.249000
     69 HO40       -7.0510    5.1620   -0.3670 ho        1 TC2      0.232000
@<TRIPOS>BOND
     1    1    2 1   
     2    1    6 1   
     3    2    3 1   
     4    2   14 1   
     5    3   15 1   
     6    4    5 1   
     7    4   41 1   
     8    5   42 1   
     9    6   43 1   
    10    7    8 1   
    11    7    9 1   
    12    9   10 1   
    13    9   44 1   
    14   10   11 1   
    15   10   45 1   
    16   10   46 1   
    17   11   12 1   
    18   11   47 1   
    19   11   48 1   
    20   12   13 1   
    21   12   18 1   
    22   13   16 1   
    23   13   49 1   
    24   13   50 1   
    25   14   51 1   
    26   15   52 1   
    27   16   17 1   
    28   16   53 1   
    29   16   54 1   
    30   17   31 1   
    31   17   55 1   
    32   18   19 1   
    33   18   56 1   
    34   18   57 1   
    35   19   20 1   
    36   19   58 1   
    37   19   59 1   
    38   20   21 1   
    39   20   60 1   
    40   21   22 1   
    41   21   23 1   
    42   23   24 1   
    43   23   28 1   
    44   24   25 1   
    45   24   29 1   
    46   25   26 1   
    47   25   30 1   
    48   26   27 1   
    49   26   61 1   
    50   27   62 1   
    51   28   63 1   
    52   29   64 1   
    53   31   32 1   
    54   31   33 1   
    55   33   34 1   
    56   33   38 1   
    57   34   35 1   
    58   34   39 1   
    59   35   36 1   
    60   36   37 1   
    61   36   65 1   
    62   37   66 1   
    63   38   67 1   
    64   39   68 1   
    65   40   69 1   
@<TRIPOS>SUBSTRUCTURE
     1 TC2         1 TEMP              0 ****  ****    0 ROOT
