@<TRIPOS>MOLECULE
TC2
   69    71     1     0     0
SMALL
bcc


@<TRIPOS>ATOM
      1 C1         -5.5840    2.1420   -0.5640 ca        1 TC2     -0.186600
      2 C2         -6.9360    1.7770   -0.4800 ca        1 TC2      0.112100
      3 C3         -7.9380    2.6780   -0.9240 ca        1 TC2      0.099100
      4 C4         -7.5830    3.9160   -1.4630 ca        1 TC2     -0.114000
      5 C5         -6.2330    4.2560   -1.5650 ca        1 TC2     -0.135000
      6 C6         -5.2460    3.3830   -1.1240 ca        1 TC2     -0.112000
      7 C7         -4.5300    1.2020   -0.0890 c         1 TC2      0.679700
      8 O8         -4.6680   -0.0390   -0.1980 o         1 TC2     -0.642100
      9 N9         -3.4200    1.7360    0.5280 n         1 TC2     -0.553900
     10 C10        -2.3070    0.9290    0.9420 c3        1 TC2      0.085000
     11 C11        -1.1350    0.9380   -0.0740 c3        1 TC2      0.146800
     12 N12        -0.0390    0.0880    0.3670 n3        1 TC2     -0.747600
     13 C13        -0.2520   -1.3190    0.0620 c3        1 TC2      0.146800
     14 O14        -7.4100    0.5980    0.0370 oh        1 TC2     -0.525100
     15 O15        -9.2770    2.3830   -0.8430 oh        1 TC2     -0.493100
     16 C16         0.4060   -2.2380    1.1230 c3        1 TC2      0.085000
     17 N17         0.2070   -3.6350    0.8600 n         1 TC2     -0.553900
     18 C18         1.2650    0.5740   -0.0570 c3        1 TC2      0.151800
     19 C19         1.7850    1.6930    0.8820 c3        1 TC2      0.088000
     20 N20         3.0460    2.2330    0.4540 n         1 TC2     -0.551900
     21 C21         3.1500    3.4640   -0.1440 c         1 TC2      0.674300
     22 O22         2.1580    4.1840   -0.3750 o         1 TC2     -0.596100
     23 C23         4.5170    3.9260   -0.5930 cc        1 TC2      0.019400
     24 N24         5.6360    3.8440    0.2280 n         1 TC2     -0.216500
     25 C25         6.9330    4.2520   -0.2160 c         1 TC2      0.680700
     26 C26         7.0030    4.8060   -1.5620 cc        1 TC2     -0.239200
     27 C27         5.8930    4.9130   -2.3380 cd        1 TC2     -0.040000
     28 C28         4.6250    4.4790   -1.8510 cd        1 TC2     -0.194000
     29 O29         5.5330    3.1770    1.3720 oh        1 TC2     -0.400100
     30 O30         7.8710    4.1420    0.5940 o         1 TC2     -0.629500
     31 C31         1.1610   -4.4140    0.2400 c         1 TC2      0.679700
     32 O32         2.3020   -3.9570   -0.0030 o         1 TC2     -0.642100
     33 C33         0.8110   -5.8270   -0.0730 ca        1 TC2     -0.186600
     34 C34         1.7870   -6.8300    0.0360 ca        1 TC2      0.112100
     35 C35         1.4490   -8.1770   -0.2540 ca        1 TC2      0.099100
     36 C36         0.1560   -8.5060   -0.6660 ca        1 TC2     -0.114000
     37 C37        -0.7980   -7.4950   -0.7960 ca        1 TC2     -0.135000
     38 C38        -0.4770   -6.1750   -0.5050 ca        1 TC2     -0.112000
     39 O39         3.0840   -6.6360    0.4400 oh        1 TC2     -0.525100
     40 O40         2.3580   -9.2010   -0.1390 oh        1 TC2     -0.493100
     41 H4         -8.3720    4.6020   -1.8060 ha        1 TC2      0.157000
     42 H5         -5.9520    5.2250   -2.0030 ha        1 TC2      0.142000
     43 H6         -4.1900    3.6710   -1.2370 ha        1 TC2      0.134000
     44 HN9        -3.3010    2.7210    0.5410 hn        1 TC2      0.316000
     45 H10        -1.9370    1.3260    1.9300 h1        1 TC2      0.069950
     46 H10A       -2.6670   -0.1290    1.0950 h1        1 TC2      0.069950
     47 H11        -1.5240    0.6200   -1.0850 h1        1 TC2      0.044200
     48 H11A       -0.7600    1.9960   -0.1760 h1        1 TC2      0.044200
     49 H13        -1.3600   -1.5240    0.0480 h1        1 TC2      0.044200
     50 H13A        0.1540   -1.5880   -0.9570 h1        1 TC2      0.044200
     51 HO14       -6.6870   -0.0520    0.0760 ho        1 TC2      0.468500
     52 HO15       -9.3680    1.4770   -0.5050 ho        1 TC2      0.442000
     53 H16         1.5140   -2.0340    1.1660 h1        1 TC2      0.069950
     54 H16A       -0.0380   -2.0080    2.1340 h1        1 TC2      0.069950
     55 HN17       -0.7100   -3.9970    0.9770 hn        1 TC2      0.316000
     56 H18         1.9990   -0.2810   -0.0340 h1        1 TC2      0.046200
     57 H18A        1.2370    0.9650   -1.1160 h1        1 TC2      0.046200
     58 H19         1.0290    2.5270    0.9330 h1        1 TC2      0.067700
     59 H19A        1.9140    1.2680    1.9190 h1        1 TC2      0.067700
     60 HN20        3.8670    1.7120    0.6550 hn        1 TC2      0.332500
     61 H26         8.0060    5.1090   -1.8930 ha        1 TC2      0.171000
     62 H27         5.9480    5.3320   -3.3560 ha        1 TC2      0.150000
     63 H28         3.7230    4.5930   -2.4700 ha        1 TC2      0.174000
     64 HO29        6.0890    3.6590    2.0250 ho        1 TC2      0.451000
     65 H36        -0.0890   -9.5550   -0.8900 ha        1 TC2      0.157000
     66 H37        -1.8130   -7.7510   -1.1350 ha        1 TC2      0.142000
     67 H38        -1.2460   -5.3980   -0.6370 ha        1 TC2      0.134000
     68 HO39        3.3070   -5.6910    0.3670 ho        1 TC2      0.468500
     69 HO40        3.2180   -8.8180    0.0970 ho        1 TC2      0.442000
@<TRIPOS>BOND
     1    1    2 ar  
     2    1    6 ar  
     3    1    7 1   
     4    2    3 ar  
     5    2   14 1   
     6    3    4 ar  
     7    3   15 1   
     8    4    5 ar  
     9    4   41 1   
    10    5    6 ar  
    11    5   42 1   
    12    6   43 1   
    13    7    8 2   
    14    7    9 1   
    15    9   10 1   
    16    9   44 1   
    17   10   11 1   
    18   10   45 1   
    19   10   46 1   
    20   11   12 1   
    21   11   47 1   
    22   11   48 1   
    23   12   13 1   
    24   12   18 1   
    25   13   16 1   
    26   13   49 1   
    27   13   50 1   
    28   14   51 1   
    29   15   52 1   
    30   16   17 1   
    31   16   53 1   
    32   16   54 1   
    33   17   31 1   
    34   17   55 1   
    35   18   19 1   
    36   18   56 1   
    37   18   57 1   
    38   19   20 1   
    39   19   58 1   
    40   19   59 1   
    41   20   21 1   
    42   20   60 1   
    43   21   22 2   
    44   21   23 1   
    45   23   24 1   
    46   23   28 2   
    47   24   25 1   
    48   24   29 1   
    49   25   26 1   
    50   25   30 2   
    51   26   27 2   
    52   26   61 1   
    53   27   28 1   
    54   27   62 1   
    55   28   63 1   
    56   29   64 1   
    57   31   32 2   
    58   31   33 1   
    59   33   34 ar  
    60   33   38 ar  
    61   34   35 ar  
    62   34   39 1   
    63   35   36 ar  
    64   35   40 1   
    65   36   37 ar  
    66   36   65 1   
    67   37   38 ar  
    68   37   66 1   
    69   38   67 1   
    70   39   68 1   
    71   40   69 1   
@<TRIPOS>SUBSTRUCTURE
     1 TC2         1 TEMP              0 ****  ****    0 ROOT
