@<TRIPOS>MOLECULE
TC2
   73    75     1     0     0
SMALL
bcc


@<TRIPOS>ATOM
      1 C1         -0.9030   -0.2620    0.2510 ca        1 TC2     -0.246600
      2 C2         -0.1910   -1.4940    0.2540 ca        1 TC2      0.256600
      3 C3          0.6550   -1.8190    1.3580 ca        1 TC2      0.060100
      4 C4          0.7860   -0.9490    2.4270 ca        1 TC2     -0.061500
      5 C5          0.0690    0.2690    2.4210 ca        1 TC2     -0.079500
      6 C6         -0.7510    0.6070    1.3700 ca        1 TC2     -0.122500
      7 C7         -1.7270    0.0180   -0.8820 c         1 TC2      0.622700
      8 O8         -2.0450   -0.6460   -1.8670 o         1 TC2     -0.545100
      9 N9         -2.3640    1.4410   -0.9280 n4        1 TC2     -0.695300
     10 C10        -2.9330    1.7920   -2.2540 c3        1 TC2      0.096800
     11 C11        -4.2670    1.0770   -2.5750 c3        1 TC2      0.079300
     12 N12        -4.4960    0.8710   -4.0530 n4        1 TC2     -0.671400
     13 C13        -3.8650   -0.4220   -4.5110 c3        1 TC2      0.079300
     14 O14        -0.3400   -2.3150   -0.8100 oh        1 TC2     -0.474100
     15 O15         1.2820   -3.0310    1.2310 oh        1 TC2     -0.496100
     16 C16        -3.4390   -0.4080   -5.9980 c3        1 TC2      0.096800
     17 N17        -3.4560   -1.7480   -6.6390 n4        1 TC2     -0.695300
     18 C18        -5.9720    0.8770   -4.3620 c3        1 TC2      0.074800
     19 C19        -6.5500    2.2980   -4.5530 c3        1 TC2      0.093800
     20 N20        -8.0110    2.3940   -4.3080 n4        1 TC2     -0.675800
     21 C21        -8.4040    2.3320   -2.8290 c         1 TC2      0.605300
     22 O22        -7.4610    2.0390   -2.0890 o         1 TC2     -0.549100
     23 C23        -9.7920    2.5830   -2.4740 cc        1 TC2     -0.166600
     24 N24       -10.7600    2.9470   -3.4620 n         1 TC2     -0.186500
     25 C25       -12.1090    3.2690   -2.9750 c         1 TC2      0.625700
     26 C26       -12.4610    2.8940   -1.5930 cc        1 TC2     -0.055200
     27 C27       -11.5170    2.4460   -0.7350 cd        1 TC2     -0.137000
     28 C28       -10.1650    2.2740   -1.1740 cd        1 TC2      0.062000
     29 O29       -10.2770    3.8530   -4.3310 oh        1 TC2     -0.505100
     30 O30       -12.8670    3.7940   -3.7890 o         1 TC2     -0.467500
     31 C31        -4.8910   -2.2630   -6.9630 c         1 TC2      0.622700
     32 O32        -5.7470   -1.5890   -6.3910 o         1 TC2     -0.545100
     33 C33        -4.9710   -3.3820   -7.8460 ca        1 TC2     -0.246600
     34 C34        -6.2640   -3.7770   -8.2890 ca        1 TC2      0.256600
     35 C35        -6.4000   -4.8850   -9.1810 ca        1 TC2      0.060100
     36 C36        -5.2840   -5.5810   -9.6140 ca        1 TC2     -0.061500
     37 C37        -4.0030   -5.1890   -9.1630 ca        1 TC2     -0.079500
     38 C38        -3.8460   -4.1250   -8.3060 ca        1 TC2     -0.122500
     39 O39        -7.3290   -3.0670   -7.8500 oh        1 TC2     -0.474100
     40 O40        -7.6970   -5.1540   -9.5300 oh        1 TC2     -0.496100
     41 H4          1.4420   -1.1950    3.2830 ha        1 TC2      0.203000
     42 H5          0.1800    0.9510    3.2850 ha        1 TC2      0.196000
     43 H6         -1.2960    1.5600    1.4270 ha        1 TC2      0.127500
     44 HN9        -1.6230    2.1230   -0.7010 hn        1 TC2      0.480050
     45 H10        -3.1020    2.9110   -2.2720 hx        1 TC2      0.123450
     46 H10A       -2.1420    1.5390   -3.0220 hx        1 TC2      0.123450
     47 H11        -4.3140    0.0600   -2.0790 hx        1 TC2      0.147700
     48 H11A       -5.1250    1.7030   -2.1770 hx        1 TC2      0.147700
     49 H13        -2.9470   -0.6050   -3.8710 hx        1 TC2      0.147700
     50 H13A       -4.6080   -1.2510   -4.3060 hx        1 TC2      0.147700
     51 HO14        0.2060   -3.1210   -0.6840 ho        1 TC2      0.499000
     52 HO15        1.8480   -3.1880    2.0100 ho        1 TC2      0.485000
     53 H16        -2.3850   -0.0030   -6.0730 hx        1 TC2      0.123450
     54 H16A       -4.1200    0.2540   -6.6120 hx        1 TC2      0.123450
     55 HN17       -2.9880   -2.4420   -6.0450 hn        1 TC2      0.480050
     56 H18        -6.1320    0.2820   -5.3150 hx        1 TC2      0.149200
     57 H18A       -6.4980    0.3340   -3.5190 hx        1 TC2      0.149200
     58 H19        -6.3640    2.6320   -5.6190 hx        1 TC2      0.124200
     59 H19A       -6.0520    3.0360   -3.8560 hx        1 TC2      0.124200
     60 HN20       -8.3420    3.3070   -4.6890 hn        1 TC2      0.500300
     61 H26       -13.5200    3.0690   -1.3080 ha        1 TC2      0.232000
     62 H27       -11.7610    2.2020    0.3180 ha        1 TC2      0.211000
     63 H28        -9.4230    1.8690   -0.4620 ha        1 TC2      0.185000
     64 HO29      -11.0300    4.1460   -4.9010 ho        1 TC2      0.508000
     65 H36        -5.3830   -6.4390  -10.3060 ha        1 TC2      0.203000
     66 H37        -3.1230   -5.7610   -9.5130 ha        1 TC2      0.196000
     67 H38        -2.8280   -3.8760   -7.9740 ha        1 TC2      0.127500
     68 HO39       -8.1530   -3.4380   -8.2340 ho        1 TC2      0.499000
     69 HO40       -7.7180   -5.9120  -10.1430 ho        1 TC2      0.485000
     70 H92        -3.0810    1.5000   -0.1960 hn        1 TC2      0.480050
     71 H121       -4.0530    1.6480   -4.5640 hn        1 TC2      0.451800
     72 H172       -2.9360   -1.6900   -7.5290 hn        1 TC2      0.480050
     73 H202       -8.5260    1.6560   -4.8070 hn        1 TC2      0.500300
@<TRIPOS>BOND
     1    1    2 ar  
     2    1    6 ar  
     3    1    7 1   
     4    2    3 ar  
     5    2   14 1   
     6    3    4 ar  
     7    3   15 1   
     8    4    5 ar  
     9    4   41 1   
    10    5    6 ar  
    11    5   42 1   
    12    6   43 1   
    13    7    8 2   
    14    7    9 1   
    15    9   10 1   
    16    9   44 1   
    17    9   70 1   
    18   10   11 1   
    19   10   45 1   
    20   10   46 1   
    21   11   12 1   
    22   11   47 1   
    23   11   48 1   
    24   12   13 1   
    25   12   18 1   
    26   12   71 1   
    27   13   16 1   
    28   13   49 1   
    29   13   50 1   
    30   14   51 1   
    31   15   52 1   
    32   16   17 1   
    33   16   53 1   
    34   16   54 1   
    35   17   31 1   
    36   17   55 1   
    37   17   72 1   
    38   18   19 1   
    39   18   56 1   
    40   18   57 1   
    41   19   20 1   
    42   19   58 1   
    43   19   59 1   
    44   20   21 1   
    45   20   60 1   
    46   20   73 1   
    47   21   22 2   
    48   21   23 1   
    49   23   24 1   
    50   23   28 2   
    51   24   25 1   
    52   24   29 1   
    53   25   26 1   
    54   25   30 2   
    55   26   27 2   
    56   26   61 1   
    57   27   28 1   
    58   27   62 1   
    59   28   63 1   
    60   29   64 1   
    61   31   32 2   
    62   31   33 1   
    63   33   34 ar  
    64   33   38 ar  
    65   34   35 ar  
    66   34   39 1   
    67   35   36 ar  
    68   35   40 1   
    69   36   37 ar  
    70   36   65 1   
    71   37   38 ar  
    72   37   66 1   
    73   38   67 1   
    74   39   68 1   
    75   40   69 1   
@<TRIPOS>SUBSTRUCTURE
     1 TC2         1 TEMP              0 ****  ****    0 ROOT
