@<TRIPOS>MOLECULE
TC3
   17    16     1     0     0
SMALL
bcc


@<TRIPOS>ATOM
      1 C2          3.3850    0.0480   -0.0210 c3        1 TC3     -0.105100
      2 C1          2.0500   -0.4440   -0.5510 c3        1 TC3      0.193400
      3 O3          1.1820   -0.7250    0.4960 os        1 TC3     -0.577200
      4 P          -0.2760    0.1090    0.5230 p5        1 TC3      1.420700
      5 O2          0.0320    1.4190   -0.1160 o         1 TC3     -0.847500
      6 N          -1.2250   -0.7420   -0.4790 n3        1 TC3     -0.958300
      7 C3         -2.0110   -1.8100   -0.0080 c3        1 TC3      0.229100
      8 OXT        -0.7260   -0.0250    1.9330 o         1 TC3     -0.847500
      9 H21C        3.2530    1.0240    0.5020 hc        1 TC3      0.021033
     10 H22C        3.8060   -0.6860    0.7070 hc        1 TC3      0.021033
     11 H23C        4.1050    0.1800   -0.8630 hc        1 TC3      0.021033
     12 H11C        1.6070    0.3300   -1.2400 h1        1 TC3      0.007700
     13 H12C        2.2260   -1.3950   -1.1370 h1        1 TC3      0.007700
     14 HN1        -1.3160   -0.5270   -1.4340 hn        1 TC3      0.396800
     15 H31C       -1.8750   -1.8880    1.1070 h1        1 TC3      0.005367
     16 H32C       -3.1100   -1.6680   -0.2250 h1        1 TC3      0.005367
     17 H33C       -1.7310   -2.7990   -0.4790 h1        1 TC3      0.005367
@<TRIPOS>BOND
     1    1    2 1   
     2    1    9 1   
     3    1   10 1   
     4    1   11 1   
     5    2    3 1   
     6    2   12 1   
     7    2   13 1   
     8    3    4 1   
     9    4    5 1   
    10    4    6 1   
    11    4    8 1   
    12    6    7 1   
    13    6   14 1   
    14    7   15 1   
    15    7   16 1   
    16    7   17 1   
@<TRIPOS>SUBSTRUCTURE
     1 TC3         1 TEMP              0 ****  ****    0 ROOT
