@<TRIPOS>MOLECULE
TC3
   18    17     1     0     0
SMALL
bcc


@<TRIPOS>ATOM
      1 C2          0.0250   -0.2400    0.0490 c3        1 TC3     -0.116100
      2 C1          1.4540    0.1800   -0.2240 c3        1 TC3      0.167400
      3 O3          2.0100    0.7800    0.9230 os        1 TC3     -0.592200
      4 P           3.2740    0.0490    1.6430 p5        1 TC3      1.289700
      5 O2          3.0220   -0.1310    3.0770 o         1 TC3     -0.740500
      6 N           4.4290    1.4890    1.6410 n4        1 TC3     -0.707100
      7 C3          3.7380    2.5160    2.4070 c3        1 TC3      0.063100
      8 OXT         3.9350   -0.8380    0.6770 o         1 TC3     -0.740500
      9 H21C       -0.0150   -1.0720    0.7910 hc        1 TC3      0.044033
     10 H22C       -0.5590    0.6190    0.4560 hc        1 TC3      0.044033
     11 H23C       -0.4450   -0.5840   -0.9030 hc        1 TC3      0.044033
     12 H11C        2.0830   -0.6970   -0.5430 h1        1 TC3      0.049700
     13 H12C        1.4660    0.9590   -1.0390 h1        1 TC3      0.049700
     14 HN1         4.6320    1.7990    0.7000 hn        1 TC3      0.427300
     15 H31C        4.3490    3.4470    2.5260 hx        1 TC3      0.096700
     16 H32C        2.7750    2.7580    1.8780 hx        1 TC3      0.096700
     17 H33C        3.4910    2.0850    3.4200 hx        1 TC3      0.096700
     18 HN3         5.3040    1.2350    2.0830 hn        1 TC3      0.427300
@<TRIPOS>BOND
     1    1    2 1   
     2    1    9 1   
     3    1   10 1   
     4    1   11 1   
     5    2    3 1   
     6    2   12 1   
     7    2   13 1   
     8    3    4 1   
     9    4    5 1   
    10    4    6 1   
    11    4    8 1   
    12    6    7 1   
    13    6   14 1   
    14    6   18 1   
    15    7   15 1   
    16    7   16 1   
    17    7   17 1   
@<TRIPOS>SUBSTRUCTURE
     1 TC3         1 TEMP              0 ****  ****    0 ROOT
