@<TRIPOS>MOLECULE
TC3
   18    17     1     0     0
SMALL
bcc


@<TRIPOS>ATOM
      1 C2          0.0130   -0.2200    0.0590 c3        1 TC3     -0.116100
      2 C1          1.4350    0.2160   -0.2250 c3        1 TC3      0.167400
      3 O3          2.0080    0.7830    0.9310 os        1 TC3     -0.592200
      4 P           3.2880    0.0360    1.6050 p5        1 TC3      1.289700
      5 O2          3.0620   -0.1920    3.0360 o         1 TC3     -0.740500
      6 N           4.4350    1.4820    1.6290 ny        1 TC3     -0.707100
      7 C3          3.7520    2.4800    2.4400 c3        1 TC3      0.063100
      8 OXT         3.9370   -0.8150    0.5990 o         1 TC3     -0.740500
      9 H21C       -0.0100   -1.0750    0.7760 hc        1 TC3      0.044033
     10 H22C       -0.5690    0.6220    0.5040 hc        1 TC3      0.044033
     11 H23C       -0.4720   -0.5370   -0.8940 hc        1 TC3      0.044033
     12 H11C        2.0620   -0.6470   -0.5820 h1        1 TC3      0.049700
     13 H12C        1.4280    1.0200   -1.0150 h1        1 TC3      0.049700
     14 HN1         4.6190    1.8240    0.6950 hn        1 TC3      0.427300
     15 H31C        4.3600    3.4100    2.5780 hx        1 TC3      0.096700
     16 H32C        2.7780    2.7330    1.9370 hx        1 TC3      0.096700
     17 H33C        3.5250    2.0150    3.4430 hx        1 TC3      0.096700
     18 HN3         5.3190    1.2190    2.0480 hn        1 TC3      0.427300
@<TRIPOS>BOND
     1    1    2 1   
     2    1    9 1   
     3    1   10 1   
     4    1   11 1   
     5    2    3 1   
     6    2   12 1   
     7    2   13 1   
     8    3    4 1   
     9    4    5 1   
    10    4    6 1   
    11    4    8 1   
    12    6    7 1   
    13    6   14 1   
    14    6   18 1   
    15    7   15 1   
    16    7   16 1   
    17    7   17 1   
@<TRIPOS>SUBSTRUCTURE
     1 TC3         1 TEMP              0 ****  ****    0 ROOT
