@<TRIPOS>MOLECULE
TC3
   18    17     1     0     0
SMALL
bcc


@<TRIPOS>ATOM
      1 C2          0.0190   -0.2250    0.0470 c3        1 TC3     -0.116100
      2 C1          1.4360    0.2320   -0.2330 c3        1 TC3      0.167400
      3 O3          2.0080    0.7810    0.9320 os        1 TC3     -0.592200
      4 P           3.2970    0.0340    1.5860 p5        1 TC3      1.289700
      5 O2          3.0780   -0.2260    3.0130 o         1 TC3     -0.740500
      6 N           4.4290    1.4910    1.6370 n4        1 TC3     -0.707100
      7 C3          3.7390    2.4650    2.4700 c3        1 TC3      0.063100
      8 OXT         3.9510   -0.7900    0.5610 o         1 TC3     -0.740500
      9 H21C        0.0080   -1.0940    0.7470 hc        1 TC3      0.044033
     10 H22C       -0.4660   -0.5270   -0.9110 hc        1 TC3      0.044033
     11 H23C       -0.5690    0.6030    0.5100 hc        1 TC3      0.044033
     12 H11C        2.0710   -0.6180   -0.6100 h1        1 TC3      0.049700
     13 H12C        1.4190    1.0510   -1.0070 h1        1 TC3      0.049700
     14 HN1         4.6080    1.8540    0.7090 hn        1 TC3      0.427300
     15 H31C        2.7610    2.7180    1.9750 hx        1 TC3      0.096700
     16 H32C        3.5210    1.9770    3.4640 hx        1 TC3      0.096700
     17 H33C        4.3380    3.3980    2.6250 hx        1 TC3      0.096700
     18 HN3         5.3170    1.2280    2.0470 hn        1 TC3      0.427300
@<TRIPOS>BOND
     1    1    2 1   
     2    1    9 1   
     3    1   10 1   
     4    1   11 1   
     5    2    3 1   
     6    2   12 1   
     7    2   13 1   
     8    3    4 1   
     9    4    5 1   
    10    4    6 1   
    11    4    8 1   
    12    6    7 1   
    13    6   14 1   
    14    6   18 1   
    15    7   15 1   
    16    7   16 1   
    17    7   17 1   
@<TRIPOS>SUBSTRUCTURE
     1 TC3         1 TEMP              0 ****  ****    0 ROOT
