@<TRIPOS>MOLECULE
TC4
   63    62     1     0     0
SMALL
bcc


@<TRIPOS>ATOM
      1 C1         -0.4670   -0.7750    1.5800 c3        1 TC4     -0.472600
      2 C2          0.7790   -1.0180    0.7460 c3        1 TC4     -0.063400
      3 C3          2.0520   -0.5570    1.4320 c3        1 TC4     -0.081400
      4 C4          3.2570   -0.8240    0.5670 c3        1 TC4     -0.100100
      5 C5         -3.3940    1.7950    1.7590 c3        1 TC4      0.170400
      6 C6         -4.7650    1.0910    1.7750 c3        1 TC4      0.103100
      7 C8         -5.4030   -1.9280   -1.9620 c3        1 TC4      0.113800
      8 C9         -6.8940   -1.7240   -2.1760 c3        1 TC4     -0.118400
      9 C10        -7.2050   -0.7140   -3.2610 c3        1 TC4     -0.090400
     10 C11        -8.6790   -0.7030   -3.5790 c3        1 TC4     -0.100100
     11 C12        -5.8940    2.0380    2.1930 c3        1 TC4      0.138400
     12 C13        -5.7460    2.4510    4.5460 c         1 TC4      0.610100
     13 C14        -6.6490    3.3390    6.6850 c3        1 TC4      0.115800
     14 C15        -7.9160    4.0590    6.2580 c3        1 TC4     -0.121400
     15 C16        -9.1720    3.2500    6.5020 c3        1 TC4     -0.090400
     16 C17       -10.4040    4.0900    6.2650 c3        1 TC4     -0.101100
     17 N1         -4.7020   -0.7250   -1.4120 n4        1 TC4     -0.618800
     18 N2         -6.3520    2.1120    5.8620 n4        1 TC4     -0.631800
     19 O1         -2.4480   -0.1110   -0.0930 o         1 TC4     -0.946300
     20 O2         -2.3700    0.9050    2.0960 os        1 TC4     -0.597200
     21 O3         -5.0940    0.7210    0.4080 os        1 TC4     -0.421900
     22 O4         -4.8450   -1.5010    0.8590 o         1 TC4     -0.442000
     23 O5         -6.3070    1.7240    3.5460 os        1 TC4     -0.401900
     24 O6         -4.8500    3.2690    4.3920 o         1 TC4     -0.411000
     25 P1         -1.4360    0.3140    0.8920 p5        1 TC4      1.559300
     26 H11        -0.1460   -0.4860    2.6220 hc        1 TC4      0.141200
     27 H12        -0.9780   -1.7670    1.7350 hc        1 TC4      0.141200
     28 H21         0.8870   -2.1160    0.5240 hc        1 TC4      0.055700
     29 H22         0.6790   -0.4950   -0.2440 hc        1 TC4      0.055700
     30 H31         2.1620   -1.0980    2.4090 hc        1 TC4      0.048200
     31 H32         1.9940    0.5400    1.6630 hc        1 TC4      0.048200
     32 H41         3.1780   -0.2810   -0.4060 hc        1 TC4      0.049700
     33 H42         4.1840   -0.4810    1.0880 hc        1 TC4      0.049700
     34 H43         3.3580   -1.9160    0.3540 hc        1 TC4      0.049700
     35 H51        -3.2080    2.2400    0.7430 h1        1 TC4      0.077200
     36 H52        -3.3970    2.6030    2.5460 h1        1 TC4      0.077200
     37 H6         -4.7380    0.1780    2.4330 h1        1 TC4      0.120700
     38 H81        -5.2260   -2.7830   -1.2450 hx        1 TC4      0.119200
     39 H82        -4.9020   -2.1630   -2.9470 hx        1 TC4      0.119200
     40 H91        -7.3130   -2.7270   -2.4720 hc        1 TC4      0.087200
     41 H92        -7.3960   -1.4310   -1.2170 hc        1 TC4      0.087200
     42 H101       -6.8930    0.3150   -2.9380 hc        1 TC4      0.040700
     43 H102       -6.6260   -0.9640   -4.1900 hc        1 TC4      0.040700
     44 H111       -9.0090   -1.7020   -3.9570 hc        1 TC4      0.055367
     45 H112       -9.2800   -0.4540   -2.6710 hc        1 TC4      0.055367
     46 H113       -8.8950    0.0590   -4.3670 hc        1 TC4      0.055367
     47 H121       -5.5980    3.1150    2.1090 h1        1 TC4      0.118200
     48 H122       -6.8350    1.8340    1.6060 h1        1 TC4      0.118200
     49 H141       -6.7470    2.9840    7.7540 hx        1 TC4      0.125200
     50 H142       -5.7570    4.0280    6.6020 hx        1 TC4      0.125200
     51 H151       -7.9600    5.0070    6.8690 hc        1 TC4      0.095200
     52 H152       -7.8560    4.3710    5.1820 hc        1 TC4      0.095200
     53 H161       -9.1810    2.8690    7.5580 hc        1 TC4      0.040200
     54 H162       -9.2020    2.3590    5.8200 hc        1 TC4      0.040200
     55 H171      -10.4240    4.4810    5.2190 hc        1 TC4      0.059367
     56 H172      -11.3220    3.4750    6.4300 hc        1 TC4      0.059367
     57 H173      -10.4320    4.9580    6.9680 hc        1 TC4      0.059367
     58 H1         -3.6710   -0.8060   -1.5640 hn        1 TC4      0.499300
     59 H2         -5.6820    1.5170    6.3700 hn        1 TC4      0.483300
     60 HP1        -0.7450    1.3120    0.5280 hp        1 TC4     -0.153400
     61 C7         -4.8600   -0.5790    0.0560 c         1 TC4      0.678100
     62 H123       -5.0360    0.1290   -1.8760 hn        1 TC4      0.499300
     63 H221       -7.2250    1.5830    5.7080 hn        1 TC4      0.483300
@<TRIPOS>BOND
     1    1    2 1   
     2    1   25 1   
     3    1   26 1   
     4    1   27 1   
     5    2    3 1   
     6    2   28 1   
     7    2   29 1   
     8    3    4 1   
     9    3   30 1   
    10    3   31 1   
    11    4   32 1   
    12    4   33 1   
    13    4   34 1   
    14    5    6 1   
    15    5   20 1   
    16    5   35 1   
    17    5   36 1   
    18    6   11 1   
    19    6   21 1   
    20    6   37 1   
    21    7    8 1   
    22    7   17 1   
    23    7   38 1   
    24    7   39 1   
    25    8    9 1   
    26    8   40 1   
    27    8   41 1   
    28    9   10 1   
    29    9   42 1   
    30    9   43 1   
    31   10   44 1   
    32   10   45 1   
    33   10   46 1   
    34   11   23 1   
    35   11   47 1   
    36   11   48 1   
    37   12   18 1   
    38   12   23 1   
    39   12   24 2   
    40   13   14 1   
    41   13   18 1   
    42   13   49 1   
    43   13   50 1   
    44   14   15 1   
    45   14   51 1   
    46   14   52 1   
    47   15   16 1   
    48   15   53 1   
    49   15   54 1   
    50   16   55 1   
    51   16   56 1   
    52   16   57 1   
    53   17   58 1   
    54   17   61 1   
    55   17   62 1   
    56   18   59 1   
    57   18   63 1   
    58   19   25 2   
    59   20   25 1   
    60   21   61 1   
    61   22   61 2   
    62   25   60 1   
@<TRIPOS>SUBSTRUCTURE
     1 TC4         1 TEMP              0 ****  ****    0 ROOT
