@<TRIPOS>MOLECULE
TC4
   61    60     1     0     0
SMALL
bcc


@<TRIPOS>ATOM
      1 C1          8.6760   -0.6580    2.2930 c3        1 TC4     -0.424600
      2 C2          8.7070   -2.0900    2.7760 c3        1 TC4     -0.058400
      3 C3          7.3330   -2.7280    2.8440 c3        1 TC4     -0.081400
      4 C4          7.4220   -4.1590    3.3080 c3        1 TC4     -0.094100
      5 C5          7.6230    2.5020    3.0660 c3        1 TC4      0.158400
      6 C6          6.9440    2.7840    1.7220 c3        1 TC4      0.106100
      7 C8          3.3530   -0.3160    0.8800 c3        1 TC4      0.074000
      8 C9          2.5810    0.1670   -0.3470 c3        1 TC4     -0.116400
      9 C10         3.0400   -0.5030   -1.6230 c3        1 TC4     -0.082400
     10 C11         2.1570   -0.1290   -2.7870 c3        1 TC4     -0.093100
     11 C12         7.9410    3.3390    0.7070 c3        1 TC4      0.160400
     12 C13         6.7420    5.1970   -0.2050 c         1 TC4      0.718100
     13 C14         5.7140    7.0540   -1.4050 c3        1 TC4      0.077000
     14 C15         6.7060    7.8740   -2.2280 c3        1 TC4     -0.116400
     15 C16         6.7170    7.4770   -3.6880 c3        1 TC4     -0.082400
     16 C17         7.5860    8.4020   -4.5010 c3        1 TC4     -0.093100
     17 N1          4.7590    0.0070    0.9100 n         1 TC4     -0.509900
     18 N2          6.0040    5.6460   -1.2870 n         1 TC4     -0.509900
     19 O1         10.4210    0.2710    4.0660 o         1 TC4     -0.821300
     20 O2          8.8540    1.8580    2.8890 os        1 TC4     -0.591200
     21 O3          6.4440    1.5580    1.1540 os        1 TC4     -0.459900
     22 O4          4.5660    1.8570    2.3780 o         1 TC4     -0.575000
     23 O5          7.2760    3.9350   -0.4090 os        1 TC4     -0.445900
     24 O6          6.9120    5.7440    0.8970 o         1 TC4     -0.584000
     25 P1          9.0850    0.3730    3.5030 p5        1 TC4      1.470300
     26 H11         7.6700   -0.4250    1.8480 hc        1 TC4      0.113700
     27 H12         9.3890   -0.5540    1.4310 hc        1 TC4      0.113700
     28 H21         9.3450   -2.7140    2.0900 hc        1 TC4      0.052200
     29 H22         9.1950   -2.1350    3.7890 hc        1 TC4      0.052200
     30 H31         6.6700   -2.1510    3.5400 hc        1 TC4      0.042700
     31 H32         6.8570   -2.6890    1.8280 hc        1 TC4      0.042700
     32 H41         6.4030   -4.6140    3.3560 hc        1 TC4      0.036700
     33 H42         8.0460   -4.7650    2.6070 hc        1 TC4      0.036700
     34 H43         7.8820   -4.2170    4.3250 hc        1 TC4      0.036700
     35 H51         6.9370    1.8820    3.7080 h1        1 TC4      0.063700
     36 H52         7.8250    3.4930    3.5650 h1        1 TC4      0.063700
     37 H6          6.0960    3.5100    1.8850 h1        1 TC4      0.109700
     38 H81         3.2870   -1.4410    0.9340 h1        1 TC4      0.071200
     39 H82         2.8690    0.1150    1.8040 h1        1 TC4      0.071200
     40 H91         2.6720    1.2800   -0.4490 hc        1 TC4      0.057200
     41 H92         1.4960   -0.0640   -0.1740 hc        1 TC4      0.057200
     42 H101        3.0300   -1.6170   -1.4880 hc        1 TC4      0.037700
     43 H102        4.0980   -0.2070   -1.8530 hc        1 TC4      0.037700
     44 H111        2.1630    0.9770   -2.9450 hc        1 TC4      0.036367
     45 H112        2.5190   -0.6220   -3.7210 hc        1 TC4      0.036367
     46 H113        1.1040   -0.4510   -2.6030 hc        1 TC4      0.036367
     47 H121        8.5390    2.5140    0.2350 h1        1 TC4      0.090200
     48 H122        8.6080    4.0820    1.2170 h1        1 TC4      0.090200
     49 H141        4.6940    7.1290   -1.8810 h1        1 TC4      0.070700
     50 H142        5.6560    7.4930   -0.3660 h1        1 TC4      0.070700
     51 H151        7.7380    7.7770   -1.8010 hc        1 TC4      0.055700
     52 H152        6.4080    8.9520   -2.1370 hc        1 TC4      0.055700
     53 H161        5.6690    7.4950   -4.0900 hc        1 TC4      0.037200
     54 H162        7.0950    6.4260   -3.7960 hc        1 TC4      0.037200
     55 H171        8.6370    8.3890   -4.1230 hc        1 TC4      0.036367
     56 H172        7.5920    8.0870   -5.5720 hc        1 TC4      0.036367
     57 H173        7.2070    9.4510   -4.4440 hc        1 TC4      0.036367
     58 H1          5.2850   -0.2580    0.1040 hn        1 TC4      0.310500
     59 H2          6.1400    5.1500   -2.1410 hn        1 TC4      0.311500
     60 HP1         8.1120    0.2620    4.3410 hp        1 TC4     -0.185400
     61 C7          5.1610    1.1880    1.5180 c         1 TC4      0.716100
@<TRIPOS>BOND
     1    1    2 1   
     2    1   25 1   
     3    1   26 1   
     4    1   27 1   
     5    2    3 1   
     6    2   28 1   
     7    2   29 1   
     8    3    4 1   
     9    3   30 1   
    10    3   31 1   
    11    4   32 1   
    12    4   33 1   
    13    4   34 1   
    14    5    6 1   
    15    5   20 1   
    16    5   35 1   
    17    5   36 1   
    18    6   11 1   
    19    6   21 1   
    20    6   37 1   
    21    7    8 1   
    22    7   17 1   
    23    7   38 1   
    24    7   39 1   
    25    8    9 1   
    26    8   40 1   
    27    8   41 1   
    28    9   10 1   
    29    9   42 1   
    30    9   43 1   
    31   10   44 1   
    32   10   45 1   
    33   10   46 1   
    34   11   23 1   
    35   11   47 1   
    36   11   48 1   
    37   12   18 1   
    38   12   23 1   
    39   12   24 2   
    40   13   14 1   
    41   13   18 1   
    42   13   49 1   
    43   13   50 1   
    44   14   15 1   
    45   14   51 1   
    46   14   52 1   
    47   15   16 1   
    48   15   53 1   
    49   15   54 1   
    50   16   55 1   
    51   16   56 1   
    52   16   57 1   
    53   17   58 1   
    54   17   61 1   
    55   18   59 1   
    56   19   25 2   
    57   20   25 1   
    58   21   61 1   
    59   22   61 2   
    60   25   60 1   
@<TRIPOS>SUBSTRUCTURE
     1 TC4         1 TEMP              0 ****  ****    0 ROOT
