@<TRIPOS>MOLECULE
TC5
   23    22     1     0     0
SMALL
bcc


@<TRIPOS>ATOM
      1 C5          4.2490    0.0180    0.4060 c3        1 TC5     -0.084100
      2 C4          2.9430   -0.2330   -0.3010 c3        1 TC5     -0.111400
      3 C3          1.8940    0.8090    0.1170 c3        1 TC5      0.231800
      4 N           0.6220    0.6700   -0.4830 n3        1 TC5     -0.952300
      5 P          -0.6840    0.3060    0.4060 p5        1 TC5      1.420700
      6 O2         -1.9030    0.6530   -0.3780 o         1 TC5     -0.846000
      7 O3         -0.6770   -1.3740    0.4530 os        1 TC5     -0.579200
      8 C1         -1.2830   -2.0410   -0.6020 c3        1 TC5      0.191400
      9 C2         -2.3990   -2.9390   -0.0960 c3        1 TC5     -0.105100
     10 OXT        -0.4910    0.6930    1.8280 o         1 TC5     -0.846000
     11 H51C        4.6490    1.0290    0.1520 hc        1 TC5      0.020367
     12 H52C        4.1100   -0.0340    1.5130 hc        1 TC5      0.020367
     13 H53C        5.0090   -0.7450    0.1090 hc        1 TC5      0.020367
     14 H41C        3.1000   -0.1910   -1.4110 hc        1 TC5      0.034200
     15 H42C        2.5720   -1.2620   -0.0560 hc        1 TC5      0.034200
     16 H31C        1.7460    0.7470    1.2380 h1        1 TC5      0.035200
     17 H32C        2.3440    1.8240   -0.1120 h1        1 TC5      0.035200
     18 H           0.5910    0.7880   -1.4590 hn        1 TC5      0.397800
     19 H11C       -1.6950   -1.3100   -1.3540 h1        1 TC5      0.009200
     20 H12C       -0.5070   -2.6880   -1.1110 h1        1 TC5      0.009200
     21 H21C       -2.8160   -3.5400   -0.9380 hc        1 TC5      0.021367
     22 H22C       -2.0120   -3.6300    0.6890 hc        1 TC5      0.021367
     23 H23C       -3.2140   -2.3210    0.3490 hc        1 TC5      0.021367
@<TRIPOS>BOND
     1    1    2 1   
     2    1   11 1   
     3    1   12 1   
     4    1   13 1   
     5    2    3 1   
     6    2   14 1   
     7    2   15 1   
     8    3    4 1   
     9    3   16 1   
    10    3   17 1   
    11    4    5 1   
    12    4   18 1   
    13    5    6 1   
    14    5    7 1   
    15    5   10 1   
    16    7    8 1   
    17    8    9 1   
    18    8   19 1   
    19    8   20 1   
    20    9   21 1   
    21    9   22 1   
    22    9   23 1   
@<TRIPOS>SUBSTRUCTURE
     1 TC5         1 TEMP              0 ****  ****    0 ROOT
