@<TRIPOS>MOLECULE
TC5
   24    23     1     0     0
SMALL
bcc


@<TRIPOS>ATOM
      1 C5          0.1600   -1.9030    0.8920 c3        1 TC5     -0.095100
      2 C4          0.9340   -0.8860    0.0940 c3        1 TC5     -0.096400
      3 C3          1.5320    0.1600    1.0230 c3        1 TC5      0.075800
      4 N           2.3130    1.2100    0.3600 n4        1 TC5     -0.708100
      5 P           2.8580    2.2630    1.7710 p5        1 TC5      1.290700
      6 O2          1.5830    2.8340    2.2150 o         1 TC5     -0.743500
      7 O3          3.6930    3.3420    0.8870 os        1 TC5     -0.588200
      8 C1          5.0450    3.5720    1.2090 c3        1 TC5      0.167400
      9 C2          5.2370    5.0050    1.6580 c3        1 TC5     -0.115100
     10 OXT         3.7910    1.3710    2.4740 o         1 TC5     -0.743500
     11 H51C        0.8260   -2.4210    1.6260 hc        1 TC5      0.047367
     12 H52C       -0.2780   -2.6710    0.2090 hc        1 TC5      0.047367
     13 H53C       -0.6720   -1.4140    1.4560 hc        1 TC5      0.047367
     14 H41C        0.2540   -0.3950   -0.6510 hc        1 TC5      0.048200
     15 H42C        1.7500   -1.4000   -0.4820 hc        1 TC5      0.048200
     16 H31C        2.2240   -0.3330    1.7710 hx        1 TC5      0.119200
     17 H32C        0.7090    0.6840    1.5990 hx        1 TC5      0.119200
     18 H           3.0910    0.8120   -0.1470 hn        1 TC5      0.425300
     19 H11C        5.6410    3.3920    0.2690 h1        1 TC5      0.048200
     20 H12C        5.3800    2.8480    2.0030 h1        1 TC5      0.048200
     21 H21C        6.3270    5.2130    1.7720 hc        1 TC5      0.044033
     22 H22C        4.7310    5.1910    2.6350 hc        1 TC5      0.044033
     23 H23C        4.8070    5.7070    0.9030 hc        1 TC5      0.044033
     24 HN3         1.7360    1.7310   -0.2890 hn        1 TC5      0.425300
@<TRIPOS>BOND
     1    1    2 1   
     2    1   11 1   
     3    1   12 1   
     4    1   13 1   
     5    2    3 1   
     6    2   14 1   
     7    2   15 1   
     8    3    4 1   
     9    3   16 1   
    10    3   17 1   
    11    4    5 1   
    12    4   18 1   
    13    4   24 1   
    14    5    6 1   
    15    5    7 1   
    16    5   10 1   
    17    7    8 1   
    18    8    9 1   
    19    8   19 1   
    20    8   20 1   
    21    9   21 1   
    22    9   22 1   
    23    9   23 1   
@<TRIPOS>SUBSTRUCTURE
     1 TC5         1 TEMP              0 ****  ****    0 ROOT
