@<TRIPOS>MOLECULE
TC5
   24    23     1     0     0
SMALL
bcc


@<TRIPOS>ATOM
      1 C5          0.0850   -1.8490    0.9660 c3        1 TC5     -0.095100
      2 C4          0.8930   -0.8750    0.1450 c3        1 TC5     -0.096400
      3 C3          1.5040    0.1850    1.0480 c3        1 TC5      0.075800
      4 N           2.3170    1.1960    0.3630 ny        1 TC5     -0.708100
      5 P           2.8700    2.2790    1.7470 p5        1 TC5      1.290700
      6 O2          1.6030    2.8920    2.1590 o         1 TC5     -0.743500
      7 O3          3.7390    3.3120    0.8400 os        1 TC5     -0.588200
      8 C1          5.0920    3.5220    1.1690 c3        1 TC5      0.167400
      9 C2          5.3110    4.9630    1.5770 c3        1 TC5     -0.115100
     10 OXT         3.7760    1.3890    2.4880 o         1 TC5     -0.743500
     11 H51C        0.7300   -2.3580    1.7230 hc        1 TC5      0.047367
     12 H52C       -0.3630   -2.6270    0.3010 hc        1 TC5      0.047367
     13 H53C       -0.7410   -1.3230    1.5030 hc        1 TC5      0.047367
     14 H41C        0.2330   -0.3920   -0.6230 hc        1 TC5      0.048200
     15 H42C        1.7020   -1.4260   -0.4040 hc        1 TC5      0.048200
     16 H31C        2.1760   -0.3000    1.8200 hx        1 TC5      0.119200
     17 H32C        0.6870    0.7460    1.5980 hx        1 TC5      0.119200
     18 H           3.0920    0.7640   -0.1220 hn        1 TC5      0.425300
     19 H11C        5.6940    3.3000    0.2420 h1        1 TC5      0.048200
     20 H12C        5.4030    2.8150    1.9890 h1        1 TC5      0.048200
     21 H21C        6.4050    5.1500    1.6960 hc        1 TC5      0.044033
     22 H22C        4.8010    5.1900    2.5430 hc        1 TC5      0.044033
     23 H23C        4.9050    5.6510    0.7980 hc        1 TC5      0.044033
     24 HN3         1.7590    1.7090   -0.3090 hn        1 TC5      0.425300
@<TRIPOS>BOND
     1    1    2 1   
     2    1   11 1   
     3    1   12 1   
     4    1   13 1   
     5    2    3 1   
     6    2   14 1   
     7    2   15 1   
     8    3    4 1   
     9    3   16 1   
    10    3   17 1   
    11    4    5 1   
    12    4   18 1   
    13    4   24 1   
    14    5    6 1   
    15    5    7 1   
    16    5   10 1   
    17    7    8 1   
    18    8    9 1   
    19    8   19 1   
    20    8   20 1   
    21    9   21 1   
    22    9   22 1   
    23    9   23 1   
@<TRIPOS>SUBSTRUCTURE
     1 TC5         1 TEMP              0 ****  ****    0 ROOT
