@<TRIPOS>MOLECULE
TC5
   24    23     1     0     0
SMALL
bcc


@<TRIPOS>ATOM
      1 C5          0.1840   -1.9230    0.9480 c3        1 TC5     -0.095100
      2 C4          0.9140   -0.8870    0.1330 c3        1 TC5     -0.096400
      3 C3          1.5430    0.1500    1.0520 c3        1 TC5      0.075800
      4 N           2.2850    1.2180    0.3730 n4        1 TC5     -0.708100
      5 P           2.8840    2.2520    1.7750 p5        1 TC5      1.290700
      6 O2          1.6240    2.8020    2.2870 o         1 TC5     -0.743500
      7 O3          3.6670    3.3550    0.8740 os        1 TC5     -0.588200
      8 C1          5.0300    3.5930    1.1370 c3        1 TC5      0.167400
      9 C2          5.2280    5.0210    1.6020 c3        1 TC5     -0.115100
     10 OXT         3.8560    1.3570    2.4200 o         1 TC5     -0.743500
     11 H51C       -0.2780   -2.6840    0.2730 hc        1 TC5      0.047367
     12 H52C       -0.6260   -1.4510    1.5550 hc        1 TC5      0.047367
     13 H53C        0.8850   -2.4460    1.6430 hc        1 TC5      0.047367
     14 H41C        1.7070   -1.3840   -0.4860 hc        1 TC5      0.048200
     15 H42C        0.1970   -0.3900   -0.5730 hc        1 TC5      0.048200
     16 H31C        0.7420    0.6570    1.6720 hx        1 TC5      0.119200
     17 H32C        2.2720   -0.3500    1.7600 hx        1 TC5      0.119200
     18 H           3.0440    0.8350   -0.1750 hn        1 TC5      0.425300
     19 H11C        5.4080    2.8600    1.9030 h1        1 TC5      0.048200
     20 H12C        5.5850    3.4350    0.1680 h1        1 TC5      0.048200
     21 H21C        4.7570    5.7300    0.8810 hc        1 TC5      0.044033
     22 H22C        4.7660    5.1840    2.6040 hc        1 TC5      0.044033
     23 H23C        6.3210    5.2380    1.6690 hc        1 TC5      0.044033
     24 HN3         1.6750    1.7430   -0.2410 hn        1 TC5      0.425300
@<TRIPOS>BOND
     1    1    2 1   
     2    1   11 1   
     3    1   12 1   
     4    1   13 1   
     5    2    3 1   
     6    2   14 1   
     7    2   15 1   
     8    3    4 1   
     9    3   16 1   
    10    3   17 1   
    11    4    5 1   
    12    4   18 1   
    13    4   24 1   
    14    5    6 1   
    15    5    7 1   
    16    5   10 1   
    17    7    8 1   
    18    8    9 1   
    19    8   19 1   
    20    8   20 1   
    21    9   21 1   
    22    9   22 1   
    23    9   23 1   
@<TRIPOS>SUBSTRUCTURE
     1 TC5         1 TEMP              0 ****  ****    0 ROOT
