@<TRIPOS>MOLECULE
TC7
   13    13     1     0     0
SMALL
bcc


@<TRIPOS>ATOM
      1 C1         15.0900   26.6550   28.8960 ca        1 TC7      0.056400
      2 C2         13.9940   27.5130   29.0090 ca        1 TC7     -0.202000
      3 C3         13.9610   28.7070   28.2750 ca        1 TC7      0.144100
      4 C4         15.0320   29.0470   27.4230 ca        1 TC7     -0.007600
      5 C5         16.1220   28.1810   27.3190 ca        1 TC7     -0.083000
      6 C6         16.1570   26.9890   28.0490 ca        1 TC7     -0.011600
      7 CL1        15.0340   30.4800   26.5180 cl        1 TC7     -0.053400
      8 CL3        17.5020   25.9700   27.8900 cl        1 TC7     -0.060400
      9 O1         12.9010   29.5760   28.3590 oh        1 TC7     -0.476100
     10 CL5        15.0990   25.2200   29.7960 cl        1 TC7     -0.057400
     11 H5         16.9630   28.4400   26.6540 ha        1 TC7      0.168000
     12 H2         13.1550   27.2540   29.6720 ha        1 TC7      0.156000
     13 H1         12.2560   29.2030   28.9790 ho        1 TC7      0.428000
@<TRIPOS>BOND
     1    1    2 ar  
     2    1    6 ar  
     3    1   10 1   
     4    2    3 ar  
     5    2   12 1   
     6    3    4 ar  
     7    3    9 1   
     8    4    5 ar  
     9    4    7 1   
    10    5    6 ar  
    11    5   11 1   
    12    6    8 1   
    13    9   13 1   
@<TRIPOS>SUBSTRUCTURE
     1 TC7         1 TEMP              0 ****  ****    0 ROOT
