@<TRIPOS>MOLECULE
TC7
   13    13     1     0     0
SMALL
bcc


@<TRIPOS>ATOM
      1 C1         -0.0820   -0.0210   -0.0480 ca        1 TC7      0.052400
      2 C2          1.3100    0.0500   -0.0710 ca        1 TC7     -0.145000
      3 C3          2.0230    0.1400    1.1370 ca        1 TC7      0.147100
      4 C4          1.3330    0.1600    2.3630 ca        1 TC7     -0.067600
      5 C5         -0.0610    0.0890    2.3760 ca        1 TC7     -0.073000
      6 C6         -0.7710   -0.0010    1.1770 ca        1 TC7     -0.014600
      7 CL1         2.1730    0.2700    3.8370 cl        1 TC7     -0.078400
      8 CL3        -2.4630   -0.0850    1.2310 cl        1 TC7     -0.060400
      9 O1          3.3870    0.2050    1.0160 oh        1 TC7     -0.483100
     10 CL5        -0.9170   -0.1300   -1.5180 cl        1 TC7     -0.055400
     11 H5         -0.6030    0.1050    3.3370 ha        1 TC7      0.167000
     12 H2          1.8680    0.0350   -1.0210 ha        1 TC7      0.174000
     13 H1          3.7730    0.2650    1.9050 ho        1 TC7      0.435000
@<TRIPOS>BOND
     1    1    2 ar  
     2    1    6 ar  
     3    1   10 1   
     4    2    3 ar  
     5    2   12 1   
     6    3    4 ar  
     7    3    9 1   
     8    4    5 ar  
     9    4    7 1   
    10    5    6 ar  
    11    5   11 1   
    12    6    8 1   
    13    9   13 1   
@<TRIPOS>SUBSTRUCTURE
     1 TC7         1 TEMP              0 ****  ****    0 ROOT
