@<TRIPOS>MOLECULE
TC8
   31    33     1     0     0
SMALL
bcc


@<TRIPOS>ATOM
      1 C1         -0.0940    3.8970   -0.0030 c3        1 TC8     -0.055000
      2 S2          0.8130    2.3990   -0.0030 ss        1 TC8     -0.132300
      3 C3         -0.3830    1.1400   -0.0020 cc        1 TC8      0.512800
      4 N4         -1.6650    1.4510   -0.0010 nd        1 TC8     -0.648100
      5 C5         -2.6090    0.4210   -0.0010 ca        1 TC8      0.196400
      6 C6         -3.9940    0.7210   -0.0000 ca        1 TC8     -0.128000
      7 C7         -4.9230   -0.3070    0.0000 ca        1 TC8     -0.092000
      8 C8         -4.5180   -1.6490    0.0010 ca        1 TC8     -0.157000
      9 C9         -3.1670   -1.9660    0.0010 ca        1 TC8     -0.056000
     10 C10        -2.2110   -0.9410   -0.0000 ca        1 TC8     -0.189600
     11 C11        -0.7750   -1.2780   -0.0000 c         1 TC8      0.724100
     12 O12        -0.3300   -2.4370    0.0000 o         1 TC8     -0.600500
     13 N13         0.1230   -0.1760   -0.0010 n         1 TC8     -0.306500
     14 C14         1.5260   -0.3970   -0.0010 ca        1 TC8     -0.052400
     15 C15         2.2500   -0.5390    1.2170 ca        1 TC8      0.182900
     16 F16         1.6170   -0.4450    2.4080 f         1 TC8     -0.119900
     17 C17         3.6360   -0.7770    1.2060 ca        1 TC8     -0.186000
     18 C18         4.3140   -0.8930   -0.0020 ca        1 TC8     -0.065000
     19 C19         3.6360   -0.7780   -1.2090 ca        1 TC8     -0.186000
     20 C20         2.2490   -0.5400   -1.2200 ca        1 TC8      0.182900
     21 F21         1.6160   -0.4480   -2.4100 f         1 TC8     -0.119900
     22 H1          0.6860    4.6950   -0.0040 h1        1 TC8      0.080700
     23 H1A        -0.7360    4.0070   -0.9050 h1        1 TC8      0.080700
     24 H1B        -0.7360    4.0070    0.9000 h1        1 TC8      0.080700
     25 H6         -4.3240    1.7710   -0.0010 ha        1 TC8      0.151000
     26 H7         -5.9980   -0.0670    0.0010 ha        1 TC8      0.136000
     27 H8         -5.2720   -2.4480    0.0010 ha        1 TC8      0.140000
     28 H9         -2.8260   -3.0140    0.0010 ha        1 TC8      0.159000
     29 H17         4.1670   -0.8770    2.1640 ha        1 TC8      0.159000
     30 H18         5.3990   -1.0830   -0.0020 ha        1 TC8      0.148000
     31 H19         4.1660   -0.8790   -2.1680 ha        1 TC8      0.159000
@<TRIPOS>BOND
     1    1    2 1   
     2    1   22 1   
     3    1   23 1   
     4    1   24 1   
     5    2    3 1   
     6    3    4 2   
     7    3   13 1   
     8    4    5 1   
     9    5    6 ar  
    10    5   10 ar  
    11    6    7 ar  
    12    6   25 1   
    13    7    8 ar  
    14    7   26 1   
    15    8    9 ar  
    16    8   27 1   
    17    9   10 ar  
    18    9   28 1   
    19   10   11 1   
    20   11   12 2   
    21   11   13 1   
    22   13   14 1   
    23   14   15 ar  
    24   14   20 ar  
    25   15   16 1   
    26   15   17 ar  
    27   17   18 ar  
    28   17   29 1   
    29   18   19 ar  
    30   18   30 1   
    31   19   20 ar  
    32   19   31 1   
    33   20   21 1   
@<TRIPOS>SUBSTRUCTURE
     1 TC8         1 TEMP              0 ****  ****    0 ROOT
