@<TRIPOS>MOLECULE
TC8
   31    33     1     0     0
SMALL
bcc


@<TRIPOS>ATOM
      1 C1          0.0430   -0.0010   -0.1560 c3        1 TC8     -0.055000
      2 S2          1.7810   -0.0050    0.0570 ss        1 TC8     -0.132300
      3 C3          2.0320   -0.0040    1.7750 cc        1 TC8      0.512800
      4 N4          0.9940   -0.0010    2.5910 nd        1 TC8     -0.648100
      5 C5          1.2210   -0.0000    3.9690 ca        1 TC8      0.196400
      6 C6          0.1290    0.0040    4.8730 ca        1 TC8     -0.128000
      7 C7          0.3630    0.0040    6.2390 ca        1 TC8     -0.092000
      8 C8          1.6680    0.0020    6.7490 ca        1 TC8     -0.157000
      9 C9          2.7520   -0.0020    5.8840 ca        1 TC8     -0.056000
     10 C10         2.5370   -0.0030    4.4990 ca        1 TC8     -0.189600
     11 C11         3.6900   -0.0070    3.5790 c         1 TC8      0.724100
     12 O12         4.8760   -0.0090    3.9440 o         1 TC8     -0.600500
     13 N13         3.3780   -0.0070    2.1910 n         1 TC8     -0.306500
     14 C14         4.4200   -0.0110    1.2250 ca        1 TC8     -0.052400
     15 C15         4.9820    1.2050    0.7430 ca        1 TC8      0.182900
     16 F16         4.5200    2.3970    1.1820 f         1 TC8     -0.119900
     17 C17         6.0260    1.1910   -0.2000 ca        1 TC8     -0.186000
     18 C18         6.5320   -0.0180   -0.6600 ca        1 TC8     -0.065000
     19 C19         6.0200   -1.2240   -0.1970 ca        1 TC8     -0.186000
     20 C20         4.9760   -1.2320    0.7450 ca        1 TC8      0.182900
     21 F21         4.5080   -2.4200    1.1870 f         1 TC8     -0.119900
     22 H1         -0.4430   -0.9020    0.2820 h1        1 TC8      0.080700
     23 H1A        -0.4380    0.9030    0.2800 h1        1 TC8      0.080700
     24 H1B        -0.1020   -0.0020   -1.2620 h1        1 TC8      0.080700
     25 H6         -0.9010    0.0060    4.4840 ha        1 TC8      0.151000
     26 H7         -0.4900    0.0070    6.9360 ha        1 TC8      0.136000
     27 H8          1.8300    0.0020    7.8370 ha        1 TC8      0.140000
     28 H9          3.7870   -0.0040    6.2640 ha        1 TC8      0.159000
     29 H17         6.4360    2.1480   -0.5560 ha        1 TC8      0.159000
     30 H18         7.3530   -0.0210   -1.3950 ha        1 TC8      0.148000
     31 H19         6.4250   -2.1840   -0.5510 ha        1 TC8      0.159000
@<TRIPOS>BOND
     1    1    2 1   
     2    1   22 1   
     3    1   23 1   
     4    1   24 1   
     5    2    3 1   
     6    3    4 2   
     7    3   13 1   
     8    4    5 1   
     9    5    6 ar  
    10    5   10 ar  
    11    6    7 ar  
    12    6   25 1   
    13    7    8 ar  
    14    7   26 1   
    15    8    9 ar  
    16    8   27 1   
    17    9   10 ar  
    18    9   28 1   
    19   10   11 1   
    20   11   12 2   
    21   11   13 1   
    22   13   14 1   
    23   14   15 ar  
    24   14   20 ar  
    25   15   16 1   
    26   15   17 ar  
    27   17   18 ar  
    28   17   29 1   
    29   18   19 ar  
    30   18   30 1   
    31   19   20 ar  
    32   19   31 1   
    33   20   21 1   
@<TRIPOS>SUBSTRUCTURE
     1 TC8         1 TEMP              0 ****  ****    0 ROOT
