@<TRIPOS>MOLECULE
TC9
   87    93     1     0     0
SMALL
bcc


@<TRIPOS>ATOM
      1 N1          0.6800   -0.3440    0.1030 n4        1 TC9     -0.681400
      2 C2          2.0470   -0.9530    0.1570 c3        1 TC9      0.114800
      3 C3          2.4910   -1.3870    1.5480 c3        1 TC9     -0.058100
      4 C4          1.3930   -1.8690    2.4270 ca        1 TC9     -0.046300
      5 C5          0.0490   -1.7540    2.0530 ca        1 TC9     -0.165300
      6 C6         -0.3570   -1.2910    0.6850 c3        1 TC9      0.201800
      7 C7          1.7250   -2.3740    3.6880 ca        1 TC9     -0.193000
      8 C8          0.7210   -2.7130    4.6050 ca        1 TC9      0.156100
      9 C9         -0.6370   -2.5040    4.2550 ca        1 TC9      0.077100
     10 C10        -0.9620   -2.0540    2.9740 ca        1 TC9     -0.076000
     11 O11        -1.6660   -2.5090    5.1870 os        1 TC9     -0.216200
     12 C12        -2.0380   -3.7240    5.7550 ca        1 TC9      0.071100
     13 C13        -2.0350   -3.7950    7.1700 ca        1 TC9      0.164100
     14 C14        -2.6210   -4.9020    7.8020 ca        1 TC9     -0.201000
     15 C15        -3.1890   -5.9170    7.0390 ca        1 TC9     -0.095000
     16 C16        -3.1680   -5.8640    5.6400 ca        1 TC9     -0.159300
     17 C17        -2.5930   -4.7560    5.0010 ca        1 TC9     -0.116000
     18 C18        -3.8620   -6.9030    4.8310 c3        1 TC9     -0.054100
     19 C19        -2.9050   -7.7070    3.9280 c3        1 TC9      0.216800
     20 N20        -2.0780   -8.7310    4.7140 n4        1 TC9     -0.600800
     21 C21        -1.6500   -9.8640    3.8190 c3        1 TC9      0.117800
     22 C22        -2.8330  -10.6050    3.2160 c3        1 TC9     -0.055100
     23 C23        -3.6750   -9.6520    2.4480 ca        1 TC9     -0.081300
     24 C24        -3.6330   -8.2850    2.7380 ca        1 TC9     -0.136300
     25 C25        -4.4400  -10.1490    1.3840 ca        1 TC9     -0.153000
     26 C26        -5.1310   -9.2750    0.5530 ca        1 TC9      0.097100
     27 C27        -5.0310   -7.8720    0.7630 ca        1 TC9      0.135100
     28 C28        -4.2740   -7.3950    1.8450 ca        1 TC9      0.075100
     29 O29        -4.2910   -6.0260    2.1030 os        1 TC9     -0.245200
     30 C30        -3.3960   -5.2410    1.3820 ca        1 TC9      0.126100
     31 C31        -3.8200   -3.9250    1.1320 ca        1 TC9     -0.153000
     32 C32        -2.9210   -3.0260    0.5710 ca        1 TC9     -0.091500
     33 C33        -1.6110   -3.4230    0.2640 ca        1 TC9     -0.119300
     34 C34        -1.2280   -4.7550    0.4590 ca        1 TC9     -0.091500
     35 C35        -2.1170   -5.6730    1.0150 ca        1 TC9     -0.153000
     36 C36        -0.6300   -2.4540   -0.2930 c3        1 TC9     -0.042100
     37 O37         0.9570   -3.2590    5.8380 os        1 TC9     -0.306900
     38 C38         2.2960   -3.1730    6.3310 c3        1 TC9      0.106700
     39 O39        -1.4660   -2.7560    7.8500 oh        1 TC9     -0.457100
     40 O40        -5.9140   -9.6330   -0.5170 os        1 TC9     -0.329900
     41 C41        -6.1440  -11.0310   -0.7040 c3        1 TC9      0.113700
     42 O42        -5.6210   -6.9510   -0.0540 oh        1 TC9     -0.466100
     43 C43         0.6410    0.9750    0.7830 c3        1 TC9      0.084100
     44 C44        -2.8310   -9.3040    5.8690 c3        1 TC9      0.086600
     45 C45        -0.8460   -8.0670    5.2380 c3        1 TC9      0.086600
     46 H21C        2.0420   -1.8430   -0.5360 hx        1 TC9      0.103200
     47 H22C        2.7780   -0.1940   -0.2490 hx        1 TC9      0.103200
     48 H6         -1.3150   -0.6860    0.7750 hx        1 TC9      0.104700
     49 H431        0.8500    0.8340    1.8780 hx        1 TC9      0.107367
     50 H432        1.4190    1.6480    0.3330 hx        1 TC9      0.107367
     51 H433       -0.3760    1.4330    0.6510 hx        1 TC9      0.107367
     52 H31C        3.2650   -2.1940    1.4170 hc        1 TC9      0.095200
     53 H32C        3.0010   -0.5240    2.0630 hc        1 TC9      0.095200
     54 H7          2.7860   -2.4780    3.9650 ha        1 TC9      0.161000
     55 H10        -2.0250   -1.9170    2.7100 ha        1 TC9      0.166000
     56 H361       -1.0390   -2.0340   -1.2540 hc        1 TC9      0.069200
     57 H362        0.3260   -2.9920   -0.5320 hc        1 TC9      0.069200
     58 H17        -2.6180   -4.6770    3.9010 ha        1 TC9      0.149000
     59 H14        -2.6510   -4.9520    8.9020 ha        1 TC9      0.160000
     60 H39        -1.6570   -2.8690    8.7960 ho        1 TC9      0.437000
     61 H15        -3.6900   -6.7510    7.5550 ha        1 TC9      0.140000
     62 H181       -4.4850   -7.5720    5.4800 hc        1 TC9      0.100700
     63 H182       -4.6020   -6.3780    4.1590 hc        1 TC9      0.100700
     64 H19        -2.1470   -6.9710    3.5030 hx        1 TC9      0.097700
     65 H211       -1.0180   -9.4260    2.9950 hx        1 TC9      0.098700
     66 H212       -1.0160  -10.5710    4.4270 hx        1 TC9      0.098700
     67 H441       -2.9370   -8.5270    6.6730 hx        1 TC9      0.100700
     68 H442       -2.2630  -10.1810    6.2830 hx        1 TC9      0.100700
     69 H443       -3.8460   -9.6430    5.5300 hx        1 TC9      0.100700
     70 H451       -0.2010   -7.7390    4.3820 hx        1 TC9      0.100700
     71 H452       -0.2780   -8.7930    5.8780 hx        1 TC9      0.100700
     72 H453       -1.1420   -7.1720    5.8520 hx        1 TC9      0.100700
     73 H221       -3.4380  -11.1310    4.0040 hc        1 TC9      0.094200
     74 H222       -2.4240  -11.4010    2.5340 hc        1 TC9      0.094200
     75 H25        -4.4780  -11.2360    1.2060 ha        1 TC9      0.165000
     76 H42        -6.1620   -7.4220   -0.7130 ho        1 TC9      0.461000
     77 H31        -4.8500   -3.6250    1.3830 ha        1 TC9      0.159000
     78 H35        -1.8260   -6.7240    1.1470 ha        1 TC9      0.159000
     79 H32        -3.2490   -1.9960    0.3610 ha        1 TC9      0.141000
     80 H34        -0.2180   -5.0890    0.1750 ha        1 TC9      0.141000
     81 H381        2.6610   -2.1180    6.3080 h1        1 TC9      0.060367
     82 H382        2.1990   -3.5340    7.3870 h1        1 TC9      0.060367
     83 H383        2.9670   -3.8420    5.7410 h1        1 TC9      0.060367
     84 H411       -6.8500  -11.0550   -1.5750 h1        1 TC9      0.064367
     85 H412       -5.1860  -11.5490   -0.9550 h1        1 TC9      0.064367
     86 H413       -6.6150  -11.4760    0.2050 h1        1 TC9      0.064367
     87 H1          0.4440   -0.2030   -0.8890 hn        1 TC9      0.449800
@<TRIPOS>BOND
     1    1    2 1   
     2    1    6 1   
     3    1   43 1   
     4    1   87 1   
     5    2    3 1   
     6    2   46 1   
     7    2   47 1   
     8    3    4 1   
     9    3   52 1   
    10    3   53 1   
    11    4    5 ar  
    12    4    7 ar  
    13    5    6 1   
    14    5   10 ar  
    15    6   36 1   
    16    6   48 1   
    17    7    8 ar  
    18    7   54 1   
    19    8    9 ar  
    20    8   37 1   
    21    9   10 ar  
    22    9   11 1   
    23   10   55 1   
    24   11   12 1   
    25   12   13 ar  
    26   12   17 ar  
    27   13   14 ar  
    28   13   39 1   
    29   14   15 ar  
    30   14   59 1   
    31   15   16 ar  
    32   15   61 1   
    33   16   17 ar  
    34   16   18 1   
    35   17   58 1   
    36   18   19 1   
    37   18   62 1   
    38   18   63 1   
    39   19   20 1   
    40   19   24 1   
    41   19   64 1   
    42   20   21 1   
    43   20   44 1   
    44   20   45 1   
    45   21   22 1   
    46   21   65 1   
    47   21   66 1   
    48   22   23 1   
    49   22   73 1   
    50   22   74 1   
    51   23   24 ar  
    52   23   25 ar  
    53   24   28 ar  
    54   25   26 ar  
    55   25   75 1   
    56   26   27 ar  
    57   26   40 1   
    58   27   28 ar  
    59   27   42 1   
    60   28   29 1   
    61   29   30 1   
    62   30   31 ar  
    63   30   35 ar  
    64   31   32 ar  
    65   31   77 1   
    66   32   33 ar  
    67   32   79 1   
    68   33   34 ar  
    69   33   36 1   
    70   34   35 ar  
    71   34   80 1   
    72   35   78 1   
    73   36   56 1   
    74   36   57 1   
    75   37   38 1   
    76   38   81 1   
    77   38   82 1   
    78   38   83 1   
    79   39   60 1   
    80   40   41 1   
    81   41   84 1   
    82   41   85 1   
    83   41   86 1   
    84   42   76 1   
    85   43   49 1   
    86   43   50 1   
    87   43   51 1   
    88   44   67 1   
    89   44   68 1   
    90   44   69 1   
    91   45   70 1   
    92   45   71 1   
    93   45   72 1   
@<TRIPOS>SUBSTRUCTURE
     1 TC9         1 TEMP              0 ****  ****    0 ROOT
