@<TRIPOS>MOLECULE
TC9
   87    93     1     0     0
SMALL
bcc


@<TRIPOS>ATOM
      1 N1         -5.3840    2.9960    0.1930 n4        1 TC9     -0.682400
      2 C2         -5.6940    2.5300    1.5820 c3        1 TC9      0.113800
      3 C3         -5.7060    1.0160    1.7440 c3        1 TC9     -0.060100
      4 C4         -4.7080    0.3030    0.9030 ca        1 TC9     -0.042300
      5 C5         -3.9590    0.9690   -0.0740 ca        1 TC9     -0.164300
      6 C6         -4.0410    2.4550   -0.2700 c3        1 TC9      0.200800
      7 C7         -4.5860   -1.0830    1.0580 ca        1 TC9     -0.189000
      8 C8         -3.7490   -1.8170    0.2090 ca        1 TC9      0.151100
      9 C9         -3.0220   -1.1450   -0.8050 ca        1 TC9      0.069100
     10 C10        -3.1230    0.2390   -0.9310 ca        1 TC9     -0.070000
     11 O11        -2.3800   -1.8340   -1.8270 os        1 TC9     -0.242200
     12 C12        -1.1760   -2.4770   -1.5290 ca        1 TC9     -0.001900
     13 C13        -1.1770   -3.8870   -1.6050 ca        1 TC9      0.176100
     14 C14         0.0500   -4.5780   -1.5830 ca        1 TC9     -0.150000
     15 C15         1.2340   -3.8650   -1.4740 ca        1 TC9     -0.101000
     16 C16         1.2360   -2.4670   -1.3500 ca        1 TC9     -0.166300
     17 C17         0.0210   -1.7710   -1.3910 ca        1 TC9     -0.089000
     18 C18         2.5180   -1.7120   -1.2950 c3        1 TC9     -0.051100
     19 C19         2.7930   -1.0900    0.0910 c3        1 TC9      0.216800
     20 N20         3.3110   -2.1160    1.1060 n4        1 TC9     -0.600800
     21 C21         4.0880   -1.4270    2.1980 c3        1 TC9      0.117800
     22 C22         5.3050   -0.6910    1.6620 c3        1 TC9     -0.056100
     23 C23         4.8750    0.3000    0.6420 ca        1 TC9     -0.081300
     24 C24         3.6530    0.1470   -0.0210 ca        1 TC9     -0.136300
     25 C25         5.6850    1.4250    0.4330 ca        1 TC9     -0.153000
     26 C26         5.2540    2.4500   -0.4020 ca        1 TC9      0.097100
     27 C27         3.9720    2.3710   -1.0110 ca        1 TC9      0.133100
     28 C28         3.1840    1.2280   -0.8020 ca        1 TC9      0.076100
     29 O29         1.9830    1.1250   -1.5020 os        1 TC9     -0.247200
     30 C30         0.8840    1.7810   -0.9540 ca        1 TC9      0.124100
     31 C31        -0.0060    2.3470   -1.8820 ca        1 TC9     -0.148000
     32 C32        -1.2230    2.8410   -1.4260 ca        1 TC9     -0.095000
     33 C33        -1.5620    2.7650   -0.0670 ca        1 TC9     -0.119300
     34 C34        -0.6290    2.2700    0.8510 ca        1 TC9     -0.095000
     35 C35         0.6010    1.7820    0.4160 ca        1 TC9     -0.148000
     36 C36        -2.8910    3.2230    0.4160 c3        1 TC9     -0.043100
     37 O37        -3.5800   -3.1760    0.2640 os        1 TC9     -0.325900
     38 C38        -4.3880   -3.8950    1.2000 c3        1 TC9      0.106700
     39 O39        -2.3100   -4.6310   -1.7300 oh        1 TC9     -0.466100
     40 O40         5.9500    3.5980   -0.6910 os        1 TC9     -0.330900
     41 C41         7.2900    3.6760   -0.1990 c3        1 TC9      0.113700
     42 O42         3.4490    3.3710   -1.7810 oh        1 TC9     -0.468100
     43 C43        -6.4640    2.6350   -0.7600 c3        1 TC9      0.083100
     44 C44         4.1960   -3.1420    0.4790 c3        1 TC9      0.086100
     45 C45         2.1500   -2.8120    1.7390 c3        1 TC9      0.086100
     46 H21C       -4.9160    2.9810    2.2640 hx        1 TC9      0.104200
     47 H22C       -6.7030    2.9470    1.8690 hx        1 TC9      0.104200
     48 H6         -3.9860    2.6750   -1.3830 hx        1 TC9      0.105700
     49 H431       -7.4420    3.0380   -0.3830 hx        1 TC9      0.107700
     50 H432       -6.2380    3.0800   -1.7670 hx        1 TC9      0.107700
     51 H433       -6.5240    1.5170   -0.8490 hx        1 TC9      0.107700
     52 H31C       -5.5240    0.7930    2.8330 hc        1 TC9      0.096700
     53 H32C       -6.7300    0.6200    1.4950 hc        1 TC9      0.096700
     54 H7         -5.1740   -1.5930    1.8370 ha        1 TC9      0.164000
     55 H10        -2.5520    0.7470   -1.7280 ha        1 TC9      0.168000
     56 H361       -2.9960    4.3220    0.1940 hc        1 TC9      0.070200
     57 H362       -2.9510    3.0890    1.5290 hc        1 TC9      0.070200
     58 H17         0.0110   -0.6690   -1.3510 ha        1 TC9      0.150000
     59 H14         0.0460   -5.6750   -1.6820 ha        1 TC9      0.176000
     60 H39        -3.0760   -4.0300   -1.7340 ho        1 TC9      0.451000
     61 H15         2.1870   -4.4160   -1.5230 ha        1 TC9      0.137000
     62 H181        3.3710   -2.3470   -1.6480 hc        1 TC9      0.099200
     63 H182        2.4580   -0.8670   -2.0410 hc        1 TC9      0.099200
     64 H19         1.7910   -0.7400    0.5030 hx        1 TC9      0.095700
     65 H211        3.3930   -0.6970    2.7010 hx        1 TC9      0.098700
     66 H212        4.4020   -2.2060    2.9500 hx        1 TC9      0.098700
     67 H441        4.9530   -2.6370   -0.1790 hx        1 TC9      0.101033
     68 H442        4.7250   -3.7170    1.2850 hx        1 TC9      0.101033
     69 H443        3.5780   -3.8550   -0.1290 hx        1 TC9      0.101033
     70 H451        1.5150   -3.2790    0.9370 hx        1 TC9      0.101033
     71 H452        2.5310   -3.6110    2.4300 hx        1 TC9      0.101033
     72 H453        1.5390   -2.0740    2.3220 hx        1 TC9      0.101033
     73 H221        5.7970   -0.1700    2.5300 hc        1 TC9      0.094700
     74 H222        6.0650   -1.4010    1.2370 hc        1 TC9      0.094700
     75 H25         6.6580    1.4940    0.9450 ha        1 TC9      0.165000
     76 H42         4.1260    4.0620   -1.8930 ho        1 TC9      0.461000
     77 H31         0.2680    2.3890   -2.9480 ha        1 TC9      0.159000
     78 H35         1.3450    1.4160    1.1370 ha        1 TC9      0.159000
     79 H32        -1.9190    3.3000   -2.1460 ha        1 TC9      0.141500
     80 H34        -0.8630    2.2590    1.9270 ha        1 TC9      0.141500
     81 H381       -4.1310   -3.5950    2.2440 h1        1 TC9      0.065033
     82 H382       -5.4720   -3.7310    0.9890 h1        1 TC9      0.065033
     83 H383       -4.1010   -4.9610    1.0070 h1        1 TC9      0.065033
     84 H411        7.2890    3.7010    0.9170 h1        1 TC9      0.064367
     85 H412        7.8980    2.8220   -0.5820 h1        1 TC9      0.064367
     86 H413        7.6540    4.6490   -0.6200 h1        1 TC9      0.064367
     87 H1         -5.3090    4.0220    0.2210 hn        1 TC9      0.450800
@<TRIPOS>BOND
     1    1    2 1   
     2    1    6 1   
     3    1   43 1   
     4    1   87 1   
     5    2    3 1   
     6    2   46 1   
     7    2   47 1   
     8    3    4 1   
     9    3   52 1   
    10    3   53 1   
    11    4    5 ar  
    12    4    7 ar  
    13    5    6 1   
    14    5   10 ar  
    15    6   36 1   
    16    6   48 1   
    17    7    8 ar  
    18    7   54 1   
    19    8    9 ar  
    20    8   37 1   
    21    9   10 ar  
    22    9   11 1   
    23   10   55 1   
    24   11   12 1   
    25   12   13 ar  
    26   12   17 ar  
    27   13   14 ar  
    28   13   39 1   
    29   14   15 ar  
    30   14   59 1   
    31   15   16 ar  
    32   15   61 1   
    33   16   17 ar  
    34   16   18 1   
    35   17   58 1   
    36   18   19 1   
    37   18   62 1   
    38   18   63 1   
    39   19   20 1   
    40   19   24 1   
    41   19   64 1   
    42   20   21 1   
    43   20   44 1   
    44   20   45 1   
    45   21   22 1   
    46   21   65 1   
    47   21   66 1   
    48   22   23 1   
    49   22   73 1   
    50   22   74 1   
    51   23   24 ar  
    52   23   25 ar  
    53   24   28 ar  
    54   25   26 ar  
    55   25   75 1   
    56   26   27 ar  
    57   26   40 1   
    58   27   28 ar  
    59   27   42 1   
    60   28   29 1   
    61   29   30 1   
    62   30   31 ar  
    63   30   35 ar  
    64   31   32 ar  
    65   31   77 1   
    66   32   33 ar  
    67   32   79 1   
    68   33   34 ar  
    69   33   36 1   
    70   34   35 ar  
    71   34   80 1   
    72   35   78 1   
    73   36   56 1   
    74   36   57 1   
    75   37   38 1   
    76   38   81 1   
    77   38   82 1   
    78   38   83 1   
    79   39   60 1   
    80   40   41 1   
    81   41   84 1   
    82   41   85 1   
    83   41   86 1   
    84   42   76 1   
    85   43   49 1   
    86   43   50 1   
    87   43   51 1   
    88   44   67 1   
    89   44   68 1   
    90   44   69 1   
    91   45   70 1   
    92   45   71 1   
    93   45   72 1   
@<TRIPOS>SUBSTRUCTURE
     1 TC9         1 TEMP              0 ****  ****    0 ROOT
