@<TRIPOS>MOLECULE
TC9
   87    93     1     0     0
SMALL
bcc


@<TRIPOS>ATOM
      1 N1          0.6840   -0.3370    0.1190 nx        1 TC9     -0.681400
      2 C2          2.0550   -0.9350    0.1950 c3        1 TC9      0.114800
      3 C3          2.4810   -1.3620    1.5940 c3        1 TC9     -0.058100
      4 C4          1.3740   -1.8480    2.4580 ca        1 TC9     -0.046300
      5 C5          0.0350   -1.7450    2.0640 ca        1 TC9     -0.165300
      6 C6         -0.3550   -1.2900    0.6890 c3        1 TC9      0.201800
      7 C7          1.6910   -2.3480    3.7260 ca        1 TC9     -0.193000
      8 C8          0.6760   -2.6900    4.6290 ca        1 TC9      0.156100
      9 C9         -0.6790   -2.4930    4.2580 ca        1 TC9      0.077100
     10 C10        -0.9880   -2.0500    2.9710 ca        1 TC9     -0.076000
     11 O11        -1.7210   -2.5020    5.1750 os        1 TC9     -0.216200
     12 C12        -2.0920   -3.7170    5.7420 ca        1 TC9      0.071100
     13 C13        -2.1100   -3.7840    7.1570 ca        1 TC9      0.164100
     14 C14        -2.6970   -4.8930    7.7840 ca        1 TC9     -0.200000
     15 C15        -3.2460   -5.9150    7.0160 ca        1 TC9     -0.095000
     16 C16        -3.2040   -5.8670    5.6180 ca        1 TC9     -0.159300
     17 C17        -2.6280   -4.7560    4.9830 ca        1 TC9     -0.116000
     18 C18        -3.8780   -6.9130    4.8010 c3        1 TC9     -0.054100
     19 C19        -2.9020   -7.7140    3.9160 c3        1 TC9      0.216800
     20 N20        -2.0790   -8.7290    4.7180 n4        1 TC9     -0.600800
     21 C21        -1.6290   -9.8620    3.8330 c3        1 TC9      0.117800
     22 C22        -2.7980  -10.6130    3.2160 c3        1 TC9     -0.055100
     23 C23        -3.6360   -9.6690    2.4320 ca        1 TC9     -0.081300
     24 C24        -3.6080   -8.3010    2.7170 ca        1 TC9     -0.136300
     25 C25        -4.3810  -10.1760    1.3580 ca        1 TC9     -0.153000
     26 C26        -5.0660   -9.3100    0.5140 ca        1 TC9      0.097100
     27 C27        -4.9800   -7.9060    0.7200 ca        1 TC9      0.135100
     28 C28        -4.2420   -7.4190    1.8120 ca        1 TC9      0.075100
     29 O29        -4.2730   -6.0490    2.0650 os        1 TC9     -0.245200
     30 C30        -3.3730   -5.2600    1.3540 ca        1 TC9      0.126100
     31 C31        -3.8040   -3.9480    1.0930 ca        1 TC9     -0.153000
     32 C32        -2.9030   -3.0440    0.5420 ca        1 TC9     -0.091500
     33 C33        -1.5860   -3.4330    0.2570 ca        1 TC9     -0.119300
     34 C34        -1.1960   -4.7610    0.4620 ca        1 TC9     -0.091500
     35 C35        -2.0870   -5.6840    1.0080 ca        1 TC9     -0.153000
     36 C36        -0.6040   -2.4580   -0.2890 c3        1 TC9     -0.042100
     37 O37         0.8970   -3.2310    5.8680 os        1 TC9     -0.306900
     38 C38         2.2280   -3.1320    6.3800 c3        1 TC9      0.106700
     39 O39        -1.5590   -2.7390    7.8420 oh        1 TC9     -0.457100
     40 O40        -5.8300   -9.6780   -0.5670 os        1 TC9     -0.329900
     41 C41        -6.0460  -11.0780   -0.7520 c3        1 TC9      0.113700
     42 O42        -5.5640   -6.9920   -0.1090 oh        1 TC9     -0.466100
     43 C43         0.6250    0.9830    0.7940 c3        1 TC9      0.084100
     44 C44        -2.8450   -9.3030    5.8640 c3        1 TC9      0.086600
     45 C45        -0.8600   -8.0530    5.2580 c3        1 TC9      0.086600
     46 H21C        2.0670   -1.8280   -0.4950 hx        1 TC9      0.103200
     47 H22C        2.7860   -0.1720   -0.2020 hx        1 TC9      0.103200
     48 H6         -1.3170   -0.6920    0.7620 hx        1 TC9      0.104700
     49 H431       -0.3930    1.4340    0.6450 hx        1 TC9      0.107367
     50 H432        1.4050    1.6620    0.3530 hx        1 TC9      0.107367
     51 H433        0.8190    0.8480    1.8920 hx        1 TC9      0.107367
     52 H31C        2.9780   -0.4940    2.1130 hc        1 TC9      0.095200
     53 H32C        3.2630   -2.1640    1.4780 hc        1 TC9      0.095200
     54 H7          2.7480   -2.4430    4.0190 ha        1 TC9      0.161000
     55 H10        -2.0470   -1.9210    2.6910 ha        1 TC9      0.166000
     56 H361       -1.0020   -2.0450   -1.2580 hc        1 TC9      0.069200
     57 H362        0.3600   -2.9890   -0.5120 hc        1 TC9      0.069200
     58 H17        -2.6370   -4.6810    3.8830 ha        1 TC9      0.149000
     59 H14        -2.7430   -4.9400    8.8830 ha        1 TC9      0.160000
     60 H39        -1.7640   -2.8490    8.7860 ho        1 TC9      0.437000
     61 H15        -3.7490   -6.7510    7.5280 ha        1 TC9      0.140000
     62 H181       -4.5060   -7.5850    5.4440 hc        1 TC9      0.100700
     63 H182       -4.6120   -6.3960    4.1170 hc        1 TC9      0.100700
     64 H19        -2.1430   -6.9730    3.4990 hx        1 TC9      0.097700
     65 H211       -0.9990  -10.5610    4.4530 hx        1 TC9      0.098700
     66 H212       -0.9880   -9.4210    3.0170 hx        1 TC9      0.098700
     67 H441       -2.2770  -10.1740    6.2890 hx        1 TC9      0.100700
     68 H442       -3.8520   -9.6510    5.5110 hx        1 TC9      0.100700
     69 H443       -2.9690   -8.5240    6.6630 hx        1 TC9      0.100700
     70 H451       -0.2040   -7.7230    4.4090 hx        1 TC9      0.100700
     71 H452       -0.2960   -8.7730    5.9080 hx        1 TC9      0.100700
     72 H453       -1.1720   -7.1580    5.8640 hx        1 TC9      0.100700
     73 H221       -2.3720  -11.4090    2.5430 hc        1 TC9      0.094200
     74 H222       -3.4100  -11.1410    3.9960 hc        1 TC9      0.094200
     75 H25        -4.4080  -11.2640    1.1840 ha        1 TC9      0.165000
     76 H42        -6.0920   -7.4700   -0.7740 ho        1 TC9      0.461000
     77 H31        -4.8400   -3.6550    1.3280 ha        1 TC9      0.159000
     78 H35        -1.7900   -6.7320    1.1470 ha        1 TC9      0.159000
     79 H32        -3.2360   -2.0180    0.3240 ha        1 TC9      0.141000
     80 H34        -0.1790   -5.0880    0.1940 ha        1 TC9      0.141000
     81 H381        2.1190   -3.4910    7.4360 h1        1 TC9      0.060367
     82 H382        2.5860   -2.0750    6.3580 h1        1 TC9      0.060367
     83 H383        2.9130   -3.7990    5.8020 h1        1 TC9      0.060367
     84 H411       -5.0820  -11.5890   -0.9860 h1        1 TC9      0.064367
     85 H412       -6.5280  -11.5230    0.1520 h1        1 TC9      0.064367
     86 H413       -6.7390  -11.1100   -1.6320 h1        1 TC9      0.064367
     87 H1          0.4630   -0.2010   -0.8770 hn        1 TC9      0.449800
@<TRIPOS>BOND
     1    1    2 1   
     2    1    6 1   
     3    1   43 1   
     4    1   87 1   
     5    2    3 1   
     6    2   46 1   
     7    2   47 1   
     8    3    4 1   
     9    3   52 1   
    10    3   53 1   
    11    4    5 ar  
    12    4    7 ar  
    13    5    6 1   
    14    5   10 ar  
    15    6   36 1   
    16    6   48 1   
    17    7    8 ar  
    18    7   54 1   
    19    8    9 ar  
    20    8   37 1   
    21    9   10 ar  
    22    9   11 1   
    23   10   55 1   
    24   11   12 1   
    25   12   13 ar  
    26   12   17 ar  
    27   13   14 ar  
    28   13   39 1   
    29   14   15 ar  
    30   14   59 1   
    31   15   16 ar  
    32   15   61 1   
    33   16   17 ar  
    34   16   18 1   
    35   17   58 1   
    36   18   19 1   
    37   18   62 1   
    38   18   63 1   
    39   19   20 1   
    40   19   24 1   
    41   19   64 1   
    42   20   21 1   
    43   20   44 1   
    44   20   45 1   
    45   21   22 1   
    46   21   65 1   
    47   21   66 1   
    48   22   23 1   
    49   22   73 1   
    50   22   74 1   
    51   23   24 ar  
    52   23   25 ar  
    53   24   28 ar  
    54   25   26 ar  
    55   25   75 1   
    56   26   27 ar  
    57   26   40 1   
    58   27   28 ar  
    59   27   42 1   
    60   28   29 1   
    61   29   30 1   
    62   30   31 ar  
    63   30   35 ar  
    64   31   32 ar  
    65   31   77 1   
    66   32   33 ar  
    67   32   79 1   
    68   33   34 ar  
    69   33   36 1   
    70   34   35 ar  
    71   34   80 1   
    72   35   78 1   
    73   36   56 1   
    74   36   57 1   
    75   37   38 1   
    76   38   81 1   
    77   38   82 1   
    78   38   83 1   
    79   39   60 1   
    80   40   41 1   
    81   41   84 1   
    82   41   85 1   
    83   41   86 1   
    84   42   76 1   
    85   43   49 1   
    86   43   50 1   
    87   43   51 1   
    88   44   67 1   
    89   44   68 1   
    90   44   69 1   
    91   45   70 1   
    92   45   71 1   
    93   45   72 1   
@<TRIPOS>SUBSTRUCTURE
     1 TC9         1 TEMP              0 ****  ****    0 ROOT
