@<TRIPOS>MOLECULE
TCA
   18    18     1     0     0
SMALL
bcc


@<TRIPOS>ATOM
      1 C1         -0.0550    0.0000    2.9740 c         1 TCA      0.888800
      2 O          -1.2870    0.0010    3.2580 o         1 TCA     -0.832800
      3 OXT         0.8710   -0.0000    3.8360 o         1 TCA     -0.832800
      4 C2          0.3670   -0.0000    1.5190 ce        1 TCA     -0.155200
      5 C3         -0.5130    0.0010    0.5090 cf        1 TCA     -0.188200
      6 C31        -0.1950    0.0000   -0.9060 ca        1 TCA      0.001200
      7 C32        -1.2430   -0.0000   -1.8450 ca        1 TCA     -0.143500
      8 C33        -0.9780   -0.0010   -3.2110 ca        1 TCA     -0.134500
      9 C34         0.3390   -0.0000   -3.6720 ca        1 TCA     -0.167000
     10 C35         1.3870    0.0010   -2.7530 ca        1 TCA     -0.134500
     11 C36         1.1260    0.0010   -1.3850 ca        1 TCA     -0.143500
     12 H2          1.4560   -0.0010    1.3630 ha        1 TCA      0.099000
     13 H3         -1.5910    0.0010    0.7580 ha        1 TCA      0.144000
     14 H32        -2.2830   -0.0010   -1.4870 ha        1 TCA      0.132500
     15 H33        -1.8090   -0.0010   -3.9300 ha        1 TCA      0.111500
     16 H34         0.5480   -0.0000   -4.7500 ha        1 TCA      0.110000
     17 H35         2.4270    0.0010   -3.1090 ha        1 TCA      0.111500
     18 H36         1.9620    0.0010   -0.6700 ha        1 TCA      0.132500
@<TRIPOS>BOND
     1    1    2 1   
     2    1    3 1   
     3    1    4 1   
     4    4    5 2   
     5    4   12 1   
     6    5    6 1   
     7    5   13 1   
     8    6    7 ar  
     9    6   11 ar  
    10    7    8 ar  
    11    7   14 1   
    12    8    9 ar  
    13    8   15 1   
    14    9   10 ar  
    15    9   16 1   
    16   10   11 ar  
    17   10   17 1   
    18   11   18 1   
@<TRIPOS>SUBSTRUCTURE
     1 TCA         1 TEMP              0 ****  ****    0 ROOT
