@<TRIPOS>MOLECULE
TCA
   18    18     1     0     0
SMALL
bcc


@<TRIPOS>ATOM
      1 C1          0.1300    0.0550    0.0690 c         1 TCA      0.888800
      2 O           1.3560    0.3500   -0.0110 o         1 TCA     -0.832800
      3 OXT        -0.4800   -0.1490    1.1590 o         1 TCA     -0.832800
      4 C2         -0.6840   -0.0680   -1.2030 ce        1 TCA     -0.155200
      5 C3         -0.1670    0.1500   -2.4190 cf        1 TCA     -0.188200
      6 C31        -0.8750    0.0550   -3.6810 ca        1 TCA      0.001200
      7 C32        -0.1570    0.1900   -4.8840 ca        1 TCA     -0.143500
      8 C33        -0.8030    0.1040   -6.1130 ca        1 TCA     -0.134500
      9 C34        -2.1790   -0.1160   -6.1720 ca        1 TCA     -0.167000
     10 C35        -2.9030   -0.2490   -4.9880 ca        1 TCA     -0.134500
     11 C36        -2.2610   -0.1650   -3.7550 ca        1 TCA     -0.143500
     12 H2         -1.7350   -0.3520   -1.0430 ha        1 TCA      0.099000
     13 H3          0.9030    0.4260   -2.4890 ha        1 TCA      0.144000
     14 H32         0.9280    0.3630   -4.8430 ha        1 TCA      0.132500
     15 H33        -0.2260    0.2110   -7.0430 ha        1 TCA      0.111500
     16 H34        -2.6880   -0.1830   -7.1430 ha        1 TCA      0.110000
     17 H35        -3.9880   -0.4220   -5.0270 ha        1 TCA      0.111500
     18 H36        -2.8430   -0.2690   -2.8280 ha        1 TCA      0.132500
@<TRIPOS>BOND
     1    1    2 1   
     2    1    3 1   
     3    1    4 1   
     4    4    5 2   
     5    4   12 1   
     6    5    6 1   
     7    5   13 1   
     8    6    7 ar  
     9    6   11 ar  
    10    7    8 ar  
    11    7   14 1   
    12    8    9 ar  
    13    8   15 1   
    14    9   10 ar  
    15    9   16 1   
    16   10   11 ar  
    17   10   17 1   
    18   11   18 1   
@<TRIPOS>SUBSTRUCTURE
     1 TCA         1 TEMP              0 ****  ****    0 ROOT
