@<TRIPOS>MOLECULE
TCA
   18    18     1     0     0
SMALL
bcc


@<TRIPOS>ATOM
      1 C1          0.1500    0.0430    0.0630 c         1 TCA      0.888800
      2 O           1.3740    0.3470   -0.0240 o         1 TCA     -0.832800
      3 OXT        -0.4520   -0.1720    1.1550 o         1 TCA     -0.832800
      4 C2         -0.6710   -0.0770   -1.2050 ce        1 TCA     -0.155200
      5 C3         -0.1620    0.1490   -2.4230 cf        1 TCA     -0.188200
      6 C31        -0.8770    0.0560   -3.6810 ca        1 TCA      0.001200
      7 C32        -0.1690    0.2170   -4.8870 ca        1 TCA     -0.143500
      8 C33        -0.8210    0.1350   -6.1140 ca        1 TCA     -0.134500
      9 C34        -2.1940   -0.1080   -6.1660 ca        1 TCA     -0.167000
     10 C35        -2.9080   -0.2670   -4.9790 ca        1 TCA     -0.134500
     11 C36        -2.2590   -0.1860   -3.7500 ca        1 TCA     -0.143500
     12 H2         -1.7200   -0.3680   -1.0400 ha        1 TCA      0.099000
     13 H3          0.9060    0.4310   -2.4980 ha        1 TCA      0.144000
     14 H32         0.9140    0.4080   -4.8520 ha        1 TCA      0.132500
     15 H33        -0.2520    0.2610   -7.0460 ha        1 TCA      0.111500
     16 H34        -2.7080   -0.1720   -7.1340 ha        1 TCA      0.110000
     17 H35        -3.9900   -0.4570   -5.0130 ha        1 TCA      0.111500
     18 H36        -2.8340   -0.3110   -2.8200 ha        1 TCA      0.132500
@<TRIPOS>BOND
     1    1    2 1   
     2    1    3 1   
     3    1    4 1   
     4    4    5 2   
     5    4   12 1   
     6    5    6 1   
     7    5   13 1   
     8    6    7 ar  
     9    6   11 ar  
    10    7    8 ar  
    11    7   14 1   
    12    8    9 ar  
    13    8   15 1   
    14    9   10 ar  
    15    9   16 1   
    16   10   11 ar  
    17   10   17 1   
    18   11   18 1   
@<TRIPOS>SUBSTRUCTURE
     1 TCA         1 TEMP              0 ****  ****    0 ROOT
