@<TRIPOS>MOLECULE
TCB
   45    46     1     0     0
SMALL
bcc


@<TRIPOS>ATOM
      1 C1         -0.7210   -0.2830   -1.3380 c3        1 TCB      0.190200
      2 C2         -1.6150   -0.0520   -2.5600 c3        1 TCB      0.092100
      3 C3         -0.8490   -0.4200   -3.8450 c3        1 TCB      0.111100
      4 C4          0.5150    0.2930   -3.8840 c3        1 TCB      0.124100
      5 C5          1.2820   -0.0290   -2.5930 c3        1 TCB      0.124100
      6 C6          2.6080    0.7290   -2.5230 c3        1 TCB      0.135400
      7 O2         -2.7530   -0.8980   -2.5480 oh        1 TCB     -0.602800
      8 O3         -1.5590    0.0130   -4.9920 oh        1 TCB     -0.606800
      9 O4          1.2900   -0.1780   -4.9710 oh        1 TCB     -0.595800
     10 O5          0.5090    0.4170   -1.4740 os        1 TCB     -0.400600
     11 O6          3.3760    0.0990   -1.5090 oh        1 TCB     -0.610800
     12 C1'         0.8150    0.1920    3.8850 c3        1 TCB      0.310900
     13 C2'         1.5140   -0.5480    2.7300 c3        1 TCB      0.096100
     14 C3'         0.8320   -0.2420    1.3830 c3        1 TCB      0.158100
     15 C4'        -0.6880   -0.3610    1.4850 c3        1 TCB     -0.015600
     16 C5'        -1.2440    0.3600    2.7080 c3        1 TCB      0.121100
     17 C6'        -2.7260    0.0210    2.9300 c3        1 TCB      0.134400
     18 O1'         1.2520   -0.3770    5.0930 oh        1 TCB     -0.604800
     19 O2'         2.8480   -0.0840    2.6150 oh        1 TCB     -0.594800
     20 O3'         1.2660   -1.2220    0.4520 oh        1 TCB     -0.612800
     21 S4'        -1.5250    0.4060    0.0980 ss        1 TCB     -0.291200
     22 O5'        -0.5850   -0.0560    3.9050 os        1 TCB     -0.462600
     23 O6'        -3.2660    0.7870    3.9830 oh        1 TCB     -0.590800
     24 H1         -0.5200   -1.3770   -1.1860 h2        1 TCB      0.094700
     25 H2         -1.9390    1.0260   -2.6050 h1        1 TCB      0.072700
     26 H3         -0.7040   -1.5360   -3.8890 h1        1 TCB      0.066700
     27 H4          0.3560    1.4030   -3.9810 h1        1 TCB      0.062700
     28 H5          1.4690   -1.1350   -2.5100 h1        1 TCB      0.079700
     29 H61         2.4300    1.8080   -2.2760 h1        1 TCB      0.051200
     30 H62         3.1330    0.6350   -3.5110 h1        1 TCB      0.051200
     31 HO2        -3.2200   -0.7300   -1.7180 ho        1 TCB      0.423000
     32 HO3        -2.4340   -0.3950   -4.9440 ho        1 TCB      0.427000
     33 HO4         0.7400   -0.0790   -5.7610 ho        1 TCB      0.426000
     34 HO6         4.0920    0.7030   -1.2830 ho        1 TCB      0.411000
     35 H1'         1.0220    1.2990    3.8580 h2        1 TCB      0.053700
     36 H2'         1.4970   -1.6560    2.9240 h1        1 TCB      0.078700
     37 H3'         1.1180    0.7910    1.0410 h1        1 TCB      0.080700
     38 H4'        -0.9560   -1.4490    1.5220 h1        1 TCB      0.099700
     39 H5'        -1.1140    1.4740    2.5950 h1        1 TCB      0.074700
     40 H6'1       -3.3170    0.3090    2.0180 h1        1 TCB      0.064700
     41 H6'2       -2.8390   -1.0750    3.1400 h1        1 TCB      0.064700
     42 HO1'        0.5620   -0.2380    5.7570 ho        1 TCB      0.431000
     43 HO2'        3.3020   -0.3620    3.4210 ho        1 TCB      0.419000
     44 HO3'        2.0070   -0.8360   -0.0400 ho        1 TCB      0.446000
     45 HO6'       -2.7640    0.5690    4.7790 ho        1 TCB      0.411000
@<TRIPOS>BOND
     1    1    2 1   
     2    1   10 1   
     3    1   21 1   
     4    1   24 1   
     5    2    3 1   
     6    2    7 1   
     7    2   25 1   
     8    3    4 1   
     9    3    8 1   
    10    3   26 1   
    11    4    5 1   
    12    4    9 1   
    13    4   27 1   
    14    5    6 1   
    15    5   10 1   
    16    5   28 1   
    17    6   11 1   
    18    6   29 1   
    19    6   30 1   
    20    7   31 1   
    21    8   32 1   
    22    9   33 1   
    23   11   34 1   
    24   12   13 1   
    25   12   18 1   
    26   12   22 1   
    27   12   35 1   
    28   13   14 1   
    29   13   19 1   
    30   13   36 1   
    31   14   15 1   
    32   14   20 1   
    33   14   37 1   
    34   15   16 1   
    35   15   21 1   
    36   15   38 1   
    37   16   17 1   
    38   16   22 1   
    39   16   39 1   
    40   17   23 1   
    41   17   40 1   
    42   17   41 1   
    43   18   42 1   
    44   19   43 1   
    45   20   44 1   
    46   23   45 1   
@<TRIPOS>SUBSTRUCTURE
     1 TCB         1 TEMP              0 ****  ****    0 ROOT
