@<TRIPOS>MOLECULE
TCB
   45    46     1     0     0
SMALL
bcc


@<TRIPOS>ATOM
      1 C1          0.9620   -0.2200    0.5350 c3        1 TCB      0.212200
      2 C2          2.4220   -0.5580    0.6840 c3        1 TCB      0.108100
      3 C3          2.8480   -0.6080    2.1030 c3        1 TCB      0.058100
      4 C4          2.4620    0.6200    2.8510 c3        1 TCB      0.088100
      5 C5          1.0010    0.9510    2.6930 c3        1 TCB      0.092100
      6 C6          0.7400    2.2780    3.3120 c3        1 TCB      0.145400
      7 O2          2.6660   -1.8460    0.0800 oh        1 TCB     -0.582800
      8 O3          4.2920   -0.7550    2.1550 oh        1 TCB     -0.595800
      9 O4          2.7500    0.4230    4.2570 oh        1 TCB     -0.603800
     10 O5          0.5830    0.9940    1.2850 os        1 TCB     -0.417600
     11 O6          0.6000    2.1270    4.7220 oh        1 TCB     -0.592800
     12 C1'        -3.3540   -0.5610   -2.4220 c3        1 TCB      0.333900
     13 C2'        -3.0670    0.8170   -2.3170 c3        1 TCB      0.129100
     14 C3'        -1.6470    1.0410   -2.0200 c3        1 TCB      0.118100
     15 C4'        -0.9300   -0.2350   -1.4260 c3        1 TCB     -0.057600
     16 C5'        -1.1570   -1.1830   -2.6880 c3        1 TCB      0.156100
     17 C6'        -0.5000   -2.4460   -2.4460 c3        1 TCB      0.101400
     18 O1'        -3.5790   -1.0730   -0.9200 oh        1 TCB     -0.636800
     19 O2'        -3.4040    1.4890   -3.6150 oh        1 TCB     -0.590800
     20 O3'        -1.5420    2.0940   -1.0880 oh        1 TCB     -0.613800
     21 S4'         0.6140    0.0290   -1.1550 ss        1 TCB     -0.230200
     22 O5'        -2.5790   -1.4390   -2.9800 os        1 TCB     -0.422600
     23 O6'        -0.9220   -3.3820   -3.4020 oh        1 TCB     -0.593800
     24 H1          0.4370   -0.9600    0.8560 h2        1 TCB      0.081700
     25 H2          2.9510    0.1140    0.2200 h1        1 TCB      0.060700
     26 H3          2.4410   -1.3720    2.5240 h1        1 TCB      0.107700
     27 H4          2.9900    1.3680    2.5230 h1        1 TCB      0.053700
     28 H5          0.4600    0.2600    3.1690 h1        1 TCB      0.072700
     29 H61        -0.0720    2.6480    2.9470 h1        1 TCB      0.058700
     30 H62         1.4810    2.8740    3.1230 h1        1 TCB      0.058700
     31 HO2         3.5040   -1.8840   -0.2040 ho        1 TCB      0.421000
     32 HO3         4.6840   -0.0260    1.7840 ho        1 TCB      0.406000
     33 HO4         3.6020    0.6840    4.4310 ho        1 TCB      0.426000
     34 HO6         0.2350    2.8840    5.0730 ho        1 TCB      0.420000
     35 H1'        -4.2230   -0.6270   -2.8820 h2        1 TCB      0.099700
     36 H2'        -3.6120    1.2040   -1.6020 h1        1 TCB      0.071700
     37 H3'        -1.1900    1.3030   -2.8440 h1        1 TCB      0.076700
     38 H4'        -1.3900   -0.5710   -0.6360 h1        1 TCB      0.090700
     39 H5'        -0.7440   -0.7600   -3.4770 h1        1 TCB      0.111700
     40 H6'1       -0.7320   -2.7690   -1.5460 h1        1 TCB      0.040700
     41 H6'2        0.4600   -2.3280   -2.5100 h1        1 TCB      0.040700
     42 HO1'       -4.4130   -1.3830   -0.8320 ho        1 TCB      0.437000
     43 HO2'       -4.0660    2.0520   -3.4900 ho        1 TCB      0.424000
     44 HO3'       -1.6160    2.8610   -1.5040 ho        1 TCB      0.429000
     45 HO6'       -0.4420   -4.1280   -3.3200 ho        1 TCB      0.406000
@<TRIPOS>BOND
     1    1    2 1   
     2    1   10 1   
     3    1   21 1   
     4    1   24 1   
     5    2    3 1   
     6    2    7 1   
     7    2   25 1   
     8    3    4 1   
     9    3    8 1   
    10    3   26 1   
    11    4    5 1   
    12    4    9 1   
    13    4   27 1   
    14    5    6 1   
    15    5   10 1   
    16    5   28 1   
    17    6   11 1   
    18    6   29 1   
    19    6   30 1   
    20    7   31 1   
    21    8   32 1   
    22    9   33 1   
    23   11   34 1   
    24   12   13 1   
    25   12   18 1   
    26   12   22 1   
    27   12   35 1   
    28   13   14 1   
    29   13   19 1   
    30   13   36 1   
    31   14   15 1   
    32   14   20 1   
    33   14   37 1   
    34   15   16 1   
    35   15   21 1   
    36   15   38 1   
    37   16   17 1   
    38   16   22 1   
    39   16   39 1   
    40   17   23 1   
    41   17   40 1   
    42   17   41 1   
    43   18   42 1   
    44   19   43 1   
    45   20   44 1   
    46   23   45 1   
@<TRIPOS>SUBSTRUCTURE
     1 TCB         1 TEMP              0 ****  ****    0 ROOT
