@<TRIPOS>MOLECULE
TCC
   25    26     1     0     0
SMALL
bcc


@<TRIPOS>ATOM
      1 C12        -1.0360   -1.4980   -1.6450 ca        1 TCC     -0.089000
      2 C11        -0.3770   -1.0460   -2.7920 ca        1 TCC     -0.012600
      3 CL2        -0.8190   -1.6460   -4.3180 cl        1 TCC     -0.086400
      4 C10         0.6430   -0.1000   -2.6890 ca        1 TCC     -0.087000
      5 C9          1.0030    0.3950   -1.4350 ca        1 TCC     -0.034600
      6 CL1         2.2470    1.5580   -1.3570 cl        1 TCC     -0.092400
      7 C8          0.3570   -0.0540   -0.2560 ca        1 TCC      0.140600
      8 N1          0.8000    0.3640    1.0150 nh        1 TCC     -0.606000
      9 C4         -0.1430    0.4240    2.0800 ca        1 TCC      0.006600
     10 C5         -0.7760    1.6340    2.4340 ca        1 TCC     -0.113000
     11 C6         -1.6350    1.6980    3.5240 ca        1 TCC     -0.156000
     12 C1         -1.8910    0.5570    4.2880 ca        1 TCC     -0.096000
     13 C2         -1.2840   -0.6500    3.9690 ca        1 TCC     -0.156000
     14 C3         -0.4080   -0.7230    2.8700 ca        1 TCC      0.144100
     15 O1          0.1230   -1.9650    2.6250 oh        1 TCC     -0.500100
     16 C7         -0.6760   -1.0100   -0.3970 ca        1 TCC     -0.161000
     17 H12C       -1.8430   -2.2440   -1.7260 ha        1 TCC      0.153000
     18 H10C        1.1630    0.2600   -3.5920 ha        1 TCC      0.162000
     19 HN1         1.3740    1.1870    0.9820 hn        1 TCC      0.417800
     20 HC5        -0.5860    2.5430    1.8420 ha        1 TCC      0.137000
     21 HC6        -2.1170    2.6510    3.7840 ha        1 TCC      0.138000
     22 HC1        -2.5740    0.6130    5.1490 ha        1 TCC      0.139000
     23 HC2        -1.4690   -1.5590    4.5590 ha        1 TCC      0.154000
     24 HO1         0.8250   -1.8850    1.9610 ho        1 TCC      0.440000
     25 HC7        -1.2030   -1.3790    0.4990 ha        1 TCC      0.157000
@<TRIPOS>BOND
     1    1    2 ar  
     2    1   16 ar  
     3    1   17 1   
     4    2    3 1   
     5    2    4 ar  
     6    4    5 ar  
     7    4   18 1   
     8    5    6 1   
     9    5    7 ar  
    10    7    8 1   
    11    7   16 ar  
    12    8    9 1   
    13    8   19 1   
    14    9   10 ar  
    15    9   14 ar  
    16   10   11 ar  
    17   10   20 1   
    18   11   12 ar  
    19   11   21 1   
    20   12   13 ar  
    21   12   22 1   
    22   13   14 ar  
    23   13   23 1   
    24   14   15 1   
    25   15   24 1   
    26   16   25 1   
@<TRIPOS>SUBSTRUCTURE
     1 TCC         1 TEMP              0 ****  ****    0 ROOT
