@<TRIPOS>MOLECULE
TCC
   26    27     1     0     0
SMALL
bcc


@<TRIPOS>ATOM
      1 C12        -0.2760   -1.0990    0.3950 ca        1 TCC     -0.109000
      2 C11         0.8690   -0.4870   -0.1320 ca        1 TCC      0.064400
      3 CL2         1.3320   -0.7950   -1.7220 cl        1 TCC     -0.002400
      4 C10         1.6350    0.3830    0.6560 ca        1 TCC     -0.103000
      5 C9          1.2540    0.6420    1.9730 ca        1 TCC      0.037400
      6 CL1         2.1920    1.6920    2.9190 cl        1 TCC     -0.040400
      7 C8          0.1040    0.0220    2.5050 ca        1 TCC     -0.058400
      8 N1         -0.3010    0.2650    3.8950 n4        1 TCC     -0.482800
      9 C4         -1.4810    1.1250    4.0170 ca        1 TCC     -0.091400
     10 C5         -1.3450    2.5270    3.9810 ca        1 TCC     -0.065000
     11 C6         -2.4690    3.3310    4.1230 ca        1 TCC     -0.134000
     12 C1         -3.7360    2.7600    4.2960 ca        1 TCC     -0.034000
     13 C2         -3.8880    1.3790    4.3270 ca        1 TCC     -0.186000
     14 C3         -2.7640    0.5520    4.1810 ca        1 TCC      0.161100
     15 O1         -2.8380   -0.8190    4.1880 oh        1 TCC     -0.525100
     16 C7         -0.6610   -0.8450    1.7070 ca        1 TCC     -0.071000
     17 H12C       -0.8780   -1.7840   -0.2280 ha        1 TCC      0.184000
     18 H10C        2.5380    0.8630    0.2400 ha        1 TCC      0.194000
     19 HN1         0.4810    0.7040    4.4050 hn        1 TCC      0.470300
     20 HC5        -0.3540    2.9910    3.8410 ha        1 TCC      0.162000
     21 HC6        -2.3600    4.4280    4.0980 ha        1 TCC      0.174000
     22 HC1        -4.6200    3.4120    4.4080 ha        1 TCC      0.173000
     23 HC2        -4.8840    0.9270    4.4620 ha        1 TCC      0.170000
     24 HO1        -3.7510   -1.0830    4.3930 ho        1 TCC      0.467000
     25 HC7        -1.5700   -1.3250    2.1140 ha        1 TCC      0.174000
     26 H12        -0.5200   -0.6470    4.3280 hn        1 TCC      0.470300
@<TRIPOS>BOND
     1    1    2 ar  
     2    1   16 ar  
     3    1   17 1   
     4    2    3 1   
     5    2    4 ar  
     6    4    5 ar  
     7    4   18 1   
     8    5    6 1   
     9    5    7 ar  
    10    7    8 1   
    11    7   16 ar  
    12    8    9 1   
    13    8   19 1   
    14    8   26 1   
    15    9   10 ar  
    16    9   14 ar  
    17   10   11 ar  
    18   10   20 1   
    19   11   12 ar  
    20   11   21 1   
    21   12   13 ar  
    22   12   22 1   
    23   13   14 ar  
    24   13   23 1   
    25   14   15 1   
    26   15   24 1   
    27   16   25 1   
@<TRIPOS>SUBSTRUCTURE
     1 TCC         1 TEMP              0 ****  ****    0 ROOT
