@<TRIPOS>MOLECULE
TCC
   25    26     1     0     0
SMALL
bcc


@<TRIPOS>ATOM
      1 C12         0.0420   -0.0180    0.0240 ca        1 TCC     -0.088000
      2 C11         1.3560   -0.4930    0.0110 ca        1 TCC     -0.018600
      3 Cl2         2.0610   -1.0070   -1.4470 cl        1 TCC     -0.091400
      4 C10         2.0920   -0.5530    1.1960 ca        1 TCC     -0.085000
      5 C9          1.5150   -0.1280    2.3920 ca        1 TCC     -0.033600
      6 Cl1         2.4480   -0.2320    3.8130 cl        1 TCC     -0.089400
      7 C8          0.1860    0.3760    2.4300 ca        1 TCC      0.168600
      8 N1         -0.3290    0.8790    3.6330 nu        1 TCC     -0.597000
      9 C4         -1.6830    1.2680    3.7440 ca        1 TCC      0.096600
     10 C5         -2.1920    2.3500    2.9980 ca        1 TCC     -0.110000
     11 C6         -3.5020    2.7880    3.1740 ca        1 TCC     -0.148000
     12 C1         -4.3380    2.1710    4.1020 ca        1 TCC     -0.103000
     13 C2         -3.8660    1.1070    4.8640 ca        1 TCC     -0.193000
     14 C3         -2.5540    0.6530    4.6880 ca        1 TCC      0.090100
     15 O1         -2.0420   -0.3970    5.4210 oh        1 TCC     -0.507100
     16 C7         -0.5350    0.4040    1.2130 ca        1 TCC     -0.175000
     17 H12C       -0.5430    0.0190   -0.9080 ha        1 TCC      0.149000
     18 H10C        3.1250   -0.9350    1.1900 ha        1 TCC      0.160000
     19 HN1         0.0090    0.4050    4.4500 hn        1 TCC      0.436800
     20 HC5        -1.5400    2.8620    2.2720 ha        1 TCC      0.150000
     21 HC6        -3.8730    3.6330    2.5760 ha        1 TCC      0.139000
     22 HC1        -5.3720    2.5240    4.2370 ha        1 TCC      0.137000
     23 HC2        -4.5180    0.6180    5.6020 ha        1 TCC      0.136000
     24 HO1        -2.7200   -0.6770    6.0530 ho        1 TCC      0.427000
     25 HC7        -1.5780    0.7590    1.2020 ha        1 TCC      0.150000
@<TRIPOS>BOND
     1    1    2 ar  
     2    1   16 ar  
     3    1   17 1   
     4    2    3 1   
     5    2    4 ar  
     6    4    5 ar  
     7    4   18 1   
     8    5    6 1   
     9    5    7 ar  
    10    7    8 1   
    11    7   16 ar  
    12    8    9 1   
    13    8   19 1   
    14    9   10 ar  
    15    9   14 ar  
    16   10   11 ar  
    17   10   20 1   
    18   11   12 ar  
    19   11   21 1   
    20   12   13 ar  
    21   12   22 1   
    22   13   14 ar  
    23   13   23 1   
    24   14   15 1   
    25   15   24 1   
    26   16   25 1   
@<TRIPOS>SUBSTRUCTURE
     1 TCC         1 TEMP              0 ****  ****    0 ROOT
