@<TRIPOS>MOLECULE
TCC
   25    26     1     0     0
SMALL
bcc


@<TRIPOS>ATOM
      1 C12         0.0600   -0.0130    0.0300 ca        1 TCC     -0.088000
      2 C11         1.3780   -0.4800    0.0250 ca        1 TCC     -0.018600
      3 CL2         2.0930   -0.9900   -1.4290 cl        1 TCC     -0.091400
      4 C10         2.1080   -0.5340    1.2130 ca        1 TCC     -0.085000
      5 C9          1.5220   -0.1110    2.4050 ca        1 TCC     -0.033600
      6 CL1         2.4500   -0.2060    3.8310 cl        1 TCC     -0.089400
      7 C8          0.1900    0.3850    2.4370 ca        1 TCC      0.168600
      8 N1         -0.3340    0.8850    3.6360 nh        1 TCC     -0.597000
      9 C4         -1.6910    1.2660    3.7400 ca        1 TCC      0.096600
     10 C5         -2.2040    2.3430    2.9910 ca        1 TCC     -0.110000
     11 C6         -3.5180    2.7720    3.1590 ca        1 TCC     -0.148000
     12 C1         -4.3550    2.1510    4.0840 ca        1 TCC     -0.103000
     13 C2         -3.8780    1.0910    4.8500 ca        1 TCC     -0.193000
     14 C3         -2.5630    0.6460    4.6810 ca        1 TCC      0.090100
     15 O1         -2.0470   -0.3990    5.4190 oh        1 TCC     -0.507100
     16 C7         -0.5250    0.4060    1.2170 ca        1 TCC     -0.175000
     17 H12C       -0.5200    0.0190   -0.9050 ha        1 TCC      0.149000
     18 H10C        3.1440   -0.9090    1.2120 ha        1 TCC      0.160000
     19 HN1         0.0040    0.4150    4.4560 hn        1 TCC      0.436800
     20 HC5        -1.5520    2.8590    2.2670 ha        1 TCC      0.150000
     21 HC6        -3.8920    3.6140    2.5590 ha        1 TCC      0.139000
     22 HC1        -5.3910    2.4970    4.2140 ha        1 TCC      0.137000
     23 HC2        -4.5310    0.5980    5.5850 ha        1 TCC      0.136000
     24 HO1        -2.7260   -0.6830    6.0480 ho        1 TCC      0.427000
     25 HC7        -1.5700    0.7540    1.2000 ha        1 TCC      0.150000
@<TRIPOS>BOND
     1    1    2 ar  
     2    1   16 ar  
     3    1   17 1   
     4    2    3 1   
     5    2    4 ar  
     6    4    5 ar  
     7    4   18 1   
     8    5    6 1   
     9    5    7 ar  
    10    7    8 1   
    11    7   16 ar  
    12    8    9 1   
    13    8   19 1   
    14    9   10 ar  
    15    9   14 ar  
    16   10   11 ar  
    17   10   20 1   
    18   11   12 ar  
    19   11   21 1   
    20   12   13 ar  
    21   12   22 1   
    22   13   14 ar  
    23   13   23 1   
    24   14   15 1   
    25   15   24 1   
    26   16   25 1   
@<TRIPOS>SUBSTRUCTURE
     1 TCC         1 TEMP              0 ****  ****    0 ROOT
