@<TRIPOS>MOLECULE
TCD
   32    34     1     0     0
SMALL
bcc


@<TRIPOS>ATOM
      1 C1          0.2970    0.5850   -0.1180 ca        1 TCD      0.098100
      2 O21        -0.0510    0.4350   -1.4660 os        1 TCD     -0.354400
      3 C2          1.6660    0.5970    0.1790 ca        1 TCD     -0.113000
      4 C3          2.0670    0.5900    1.5130 ca        1 TCD     -0.113000
      5 C4          1.0900    0.5860    2.5150 ca        1 TCD      0.098100
      6 O31         1.4380    0.4390    3.8630 os        1 TCD     -0.354400
      7 C5         -0.2790    0.5960    2.2180 ca        1 TCD     -0.113000
      8 C6         -0.6800    0.5870    0.8840 ca        1 TCD     -0.113000
      9 C22        -0.7730    1.4520   -2.0690 ca        1 TCD      0.632600
     10 N23        -1.0870    2.5850   -1.3890 nb        1 TCD     -0.695000
     11 C24        -1.7730    3.5330   -2.0450 ca        1 TCD      0.440200
     12 C25        -2.1760    3.4040   -3.3900 ca        1 TCD     -0.133900
     13 CL25       -3.0380    4.6480   -4.1450 cl        1 TCD     -0.063400
     14 C26        -1.8520    2.2350   -4.0860 ca        1 TCD     -0.063000
     15 C27        -1.1380    1.2290   -3.4290 ca        1 TCD     -0.111900
     16 CL27       -0.7400   -0.1890   -4.2560 cl        1 TCD     -0.043400
     17 C32         2.1580    1.4580    4.4660 ca        1 TCD      0.632600
     18 N33         2.4700    2.5900    3.7850 nb        1 TCD     -0.695000
     19 C34         3.1540    3.5410    4.4400 ca        1 TCD      0.440200
     20 C35         3.5570    3.4140    5.7860 ca        1 TCD     -0.133900
     21 CL35        4.4160    4.6600    6.5400 cl        1 TCD     -0.063400
     22 C36         3.2360    2.2440    6.4820 ca        1 TCD     -0.063000
     23 C37         2.5240    1.2360    5.8250 ca        1 TCD     -0.111900
     24 CL37        2.1290   -0.1820    6.6540 cl        1 TCD     -0.043400
     25 H2          2.4070    0.5990   -0.6330 ha        1 TCD      0.154000
     26 H3          3.1340    0.5990    1.7780 ha        1 TCD      0.154000
     27 H5         -1.0200    0.5970    3.0300 ha        1 TCD      0.154000
     28 H6         -1.7470    0.5940    0.6200 ha        1 TCD      0.154000
     29 H24        -2.0090    4.4410   -1.4590 h4        1 TCD      0.044100
     30 H26        -2.1540    2.1040   -5.1380 ha        1 TCD      0.169000
     31 H34         3.3870    4.4490    3.8530 h4        1 TCD      0.044100
     32 H36         3.5380    2.1150    7.5340 ha        1 TCD      0.169000
@<TRIPOS>BOND
     1    1    2 1   
     2    1    3 ar  
     3    1    8 ar  
     4    2    9 1   
     5    3    4 ar  
     6    3   25 1   
     7    4    5 ar  
     8    4   26 1   
     9    5    6 1   
    10    5    7 ar  
    11    6   17 1   
    12    7    8 ar  
    13    7   27 1   
    14    8   28 1   
    15    9   10 ar  
    16    9   15 ar  
    17   10   11 ar  
    18   11   12 ar  
    19   11   29 1   
    20   12   13 1   
    21   12   14 ar  
    22   14   15 ar  
    23   14   30 1   
    24   15   16 1   
    25   17   18 ar  
    26   17   23 ar  
    27   18   19 ar  
    28   19   20 ar  
    29   19   31 1   
    30   20   21 1   
    31   20   22 ar  
    32   22   23 ar  
    33   22   32 1   
    34   23   24 1   
@<TRIPOS>SUBSTRUCTURE
     1 TCD         1 TEMP              0 ****  ****    0 ROOT
