@<TRIPOS>MOLECULE
TCD
   32    34     1     0     0
SMALL
bcc


@<TRIPOS>ATOM
      1 C1          1.4430   -0.2300    1.3560 ca        1 TCD      0.098100
      2 O21         1.5910   -0.5140    2.7190 os        1 TCD     -0.354400
      3 C2          1.4300   -1.3260    0.4830 ca        1 TCD     -0.113000
      4 C3          1.4380   -1.0950   -0.8900 ca        1 TCD     -0.113000
      5 C4          1.4430    0.2250   -1.3570 ca        1 TCD      0.098100
      6 O31         1.5910    0.5090   -2.7190 os        1 TCD     -0.354400
      7 C5          1.4340    1.3210   -0.4840 ca        1 TCD     -0.113000
      8 C6          1.4410    1.0900    0.8900 ca        1 TCD     -0.113000
      9 C22         0.5730   -0.1330    3.5790 ca        1 TCD      0.632600
     10 N23        -0.5580    0.4510    3.1070 nb        1 TCD     -0.695000
     11 C24        -1.5070    0.7760    3.9980 ca        1 TCD      0.440200
     12 C25        -1.3790    0.5420    5.3830 ca        1 TCD     -0.133900
     13 CL25       -2.6230    0.9810    6.4410 cl        1 TCD     -0.063400
     14 C26        -0.2100   -0.0570    5.8640 ca        1 TCD     -0.063000
     15 C27         0.7960   -0.4070    4.9590 ca        1 TCD     -0.111900
     16 CL27        2.2130   -1.1310    5.5260 cl        1 TCD     -0.043400
     17 C32         0.5730    0.1310   -3.5790 ca        1 TCD      0.632600
     18 N33        -0.5610   -0.4500   -3.1070 nb        1 TCD     -0.695000
     19 C34        -1.5100   -0.7720   -3.9980 ca        1 TCD      0.440200
     20 C35        -1.3830   -0.5390   -5.3830 ca        1 TCD     -0.133900
     21 CL35       -2.6280   -0.9750   -6.4400 cl        1 TCD     -0.063400
     22 C36        -0.2120    0.0570   -5.8640 ca        1 TCD     -0.063000
     23 C37         0.7950    0.4040   -4.9600 ca        1 TCD     -0.111900
     24 CL37        2.2140    1.1240   -5.5270 cl        1 TCD     -0.043400
     25 H2          1.4270   -2.3500    0.8840 ha        1 TCD      0.154000
     26 H3          1.4290   -1.9350   -1.5990 ha        1 TCD      0.154000
     27 H5          1.4330    2.3450   -0.8850 ha        1 TCD      0.154000
     28 H6          1.4350    1.9300    1.5990 ha        1 TCD      0.154000
     29 H24        -2.4150    1.2470    3.5760 h4        1 TCD      0.044100
     30 H26        -0.0800   -0.2520    6.9410 ha        1 TCD      0.169000
     31 H34        -2.4190   -1.2410   -3.5750 h4        1 TCD      0.044100
     32 H36        -0.0820    0.2520   -6.9410 ha        1 TCD      0.169000
@<TRIPOS>BOND
     1    1    2 1   
     2    1    3 ar  
     3    1    8 ar  
     4    2    9 1   
     5    3    4 ar  
     6    3   25 1   
     7    4    5 ar  
     8    4   26 1   
     9    5    6 1   
    10    5    7 ar  
    11    6   17 1   
    12    7    8 ar  
    13    7   27 1   
    14    8   28 1   
    15    9   10 ar  
    16    9   15 ar  
    17   10   11 ar  
    18   11   12 ar  
    19   11   29 1   
    20   12   13 1   
    21   12   14 ar  
    22   14   15 ar  
    23   14   30 1   
    24   15   16 1   
    25   17   18 ar  
    26   17   23 ar  
    27   18   19 ar  
    28   19   20 ar  
    29   19   31 1   
    30   20   21 1   
    31   20   22 ar  
    32   22   23 ar  
    33   22   32 1   
    34   23   24 1   
@<TRIPOS>SUBSTRUCTURE
     1 TCD         1 TEMP              0 ****  ****    0 ROOT
