@<TRIPOS>MOLECULE
TCD
   32    34     1     0     0
SMALL
bcc


@<TRIPOS>ATOM
      1 C1         -0.0890    0.4470    0.0510 ca        1 TCD      0.098100
      2 O21        -0.7150    0.2860   -1.1900 os        1 TCD     -0.354400
      3 C2          1.2450    0.8590    0.1400 ca        1 TCD     -0.112500
      4 C3          1.8710    0.8590    1.3850 ca        1 TCD     -0.112500
      5 C4          1.1470    0.4460    2.5090 ca        1 TCD      0.098100
      6 O31         1.7700    0.2860    3.7520 os        1 TCD     -0.354400
      7 C5         -0.1950    0.0490    2.4230 ca        1 TCD     -0.112500
      8 C6         -0.8200    0.0490    1.1790 ca        1 TCD     -0.112500
      9 C22        -0.9410    1.4190   -1.9570 ca        1 TCD      0.632600
     10 N23        -0.6220    2.6530   -1.4900 nb        1 TCD     -0.695000
     11 C24        -0.8860    3.7040   -2.2820 ca        1 TCD      0.440200
     12 C25        -1.4720    3.5810   -3.5590 ca        1 TCD     -0.133900
     13 Cl25       -1.7740    4.9570   -4.4940 cl        1 TCD     -0.063400
     14 C26        -1.7970    2.3070   -4.0360 ca        1 TCD     -0.063000
     15 C27        -1.5330    1.1930   -3.2330 ca        1 TCD     -0.111900
     16 Cl27       -1.9190   -0.3520   -3.7970 cl        1 TCD     -0.043400
     17 C32         2.2510    1.4180    4.3900 ca        1 TCD      0.632600
     18 N33         2.0670    2.6530    3.8560 nb        1 TCD     -0.695000
     19 C34         2.5440    3.7030    4.5410 ca        1 TCD      0.440200
     20 C35         3.2200    3.5800    5.7730 ca        1 TCD     -0.133900
     21 Cl35        3.7900    4.9560    6.5730 cl        1 TCD     -0.063400
     22 C36         3.4090    2.3060    6.3180 ca        1 TCD     -0.063000
     23 C37         2.9220    1.1920    5.6270 ca        1 TCD     -0.111900
     24 Cl37        3.1440   -0.3530    6.2730 cl        1 TCD     -0.043400
     25 H2          1.7870    1.1820   -0.7600 ha        1 TCD      0.154000
     26 H3          2.9170    1.1820    1.4870 ha        1 TCD      0.154000
     27 H5         -0.7360   -0.2660    3.3270 ha        1 TCD      0.154000
     28 H6         -1.8690   -0.2650    1.0740 ha        1 TCD      0.154000
     29 H24        -0.6150    4.6920   -1.8670 h4        1 TCD      0.044100
     30 H26        -2.2550    2.1780   -5.0300 ha        1 TCD      0.169000
     31 H34         2.3730    4.6920    4.0750 h4        1 TCD      0.044100
     32 H36         3.9330    2.1770    7.2790 ha        1 TCD      0.169000
@<TRIPOS>BOND
     1    1    2 1   
     2    1    3 ar  
     3    1    8 ar  
     4    2    9 1   
     5    3    4 ar  
     6    3   25 1   
     7    4    5 ar  
     8    4   26 1   
     9    5    6 1   
    10    5    7 ar  
    11    6   17 1   
    12    7    8 ar  
    13    7   27 1   
    14    8   28 1   
    15    9   10 ar  
    16    9   15 ar  
    17   10   11 ar  
    18   11   12 ar  
    19   11   29 1   
    20   12   13 1   
    21   12   14 ar  
    22   14   15 ar  
    23   14   30 1   
    24   15   16 1   
    25   17   18 ar  
    26   17   23 ar  
    27   18   19 ar  
    28   19   20 ar  
    29   19   31 1   
    30   20   21 1   
    31   20   22 ar  
    32   22   23 ar  
    33   22   32 1   
    34   23   24 1   
@<TRIPOS>SUBSTRUCTURE
     1 TCD         1 TEMP              0 ****  ****    0 ROOT
