@<TRIPOS>MOLECULE
TCE
   28    27     1     0     0
SMALL
bcc


@<TRIPOS>ATOM
      1 O16         4.3740    0.9000    0.6560 o         1 TCE     -0.881800
      2 C14         3.9390    0.8380   -0.5330 c         1 TCE      0.904600
      3 O15         4.6600    1.1750   -1.5250 o         1 TCE     -0.881800
      4 C5          2.5300    0.3050   -0.8130 c3        1 TCE     -0.171400
      5 C2          1.4850    0.7640    0.1550 c3        1 TCE      0.083500
      6 P           0.0040   -0.0020   -0.3690 p3        1 TCE     -0.581700
      7 C3         -0.0320   -1.4860    0.5530 c3        1 TCE      0.083500
      8 C6         -0.9760   -2.3840   -0.1820 c3        1 TCE     -0.171400
      9 C8         -1.1890   -3.7560    0.4650 c         1 TCE      0.904600
     10 O10        -1.3040   -3.8580    1.7240 o         1 TCE     -0.881800
     11 O9         -1.2820   -4.7710   -0.2970 o         1 TCE     -0.881800
     12 C1         -1.2400    0.9700    0.3810 c3        1 TCE      0.083500
     13 C4         -1.5890    2.0140   -0.6320 c3        1 TCE     -0.171400
     14 C11        -2.6590    3.0120   -0.1800 c         1 TCE      0.904600
     15 O12        -3.5260    3.3890   -1.0300 o         1 TCE     -0.881800
     16 O13        -2.6470    3.4700    1.0030 o         1 TCE     -0.881800
     17 H5          2.2210    0.6010   -1.8480 hc        1 TCE      0.029700
     18 H5A         2.5740   -0.8160   -0.7860 hc        1 TCE      0.029700
     19 H2          1.7410    0.4770    1.1990 hc        1 TCE      0.041200
     20 H2A         1.3360    1.8660    0.1100 hc        1 TCE      0.041200
     21 H3          1.0010   -1.9010    0.5750 hc        1 TCE      0.041200
     22 H3A        -0.3690   -1.3050    1.5980 hc        1 TCE      0.041200
     23 H6         -1.9740   -1.8760   -0.2470 hc        1 TCE      0.029700
     24 H6A        -0.6050   -2.5230   -1.2290 hc        1 TCE      0.029700
     25 H1         -2.1050    0.3060    0.6050 hc        1 TCE      0.041200
     26 H1A        -0.8800    1.4250    1.3300 hc        1 TCE      0.041200
     27 H4         -0.6620    2.5940   -0.8820 hc        1 TCE      0.029700
     28 H4A        -1.9290    1.5090   -1.5720 hc        1 TCE      0.029700
@<TRIPOS>BOND
     1    1    2 1   
     2    2    3 1   
     3    2    4 1   
     4    4    5 1   
     5    4   17 1   
     6    4   18 1   
     7    5    6 1   
     8    5   19 1   
     9    5   20 1   
    10    6    7 1   
    11    6   12 1   
    12    7    8 1   
    13    7   21 1   
    14    7   22 1   
    15    8    9 1   
    16    8   23 1   
    17    8   24 1   
    18    9   10 1   
    19    9   11 1   
    20   12   13 1   
    21   12   25 1   
    22   12   26 1   
    23   13   14 1   
    24   13   27 1   
    25   13   28 1   
    26   14   15 1   
    27   14   16 1   
@<TRIPOS>SUBSTRUCTURE
     1 TCE         1 TEMP              0 ****  ****    0 ROOT
