@<TRIPOS>MOLECULE
TCE
   28    27     1     0     0
SMALL
bcc


@<TRIPOS>ATOM
      1 O16         0.5190   -0.0970    0.0460 o         1 TCE     -0.881800
      2 C14         1.5390    0.5010   -0.4110 c         1 TCE      0.904600
      3 O15         2.1740    1.3580    0.2820 o         1 TCE     -0.881800
      4 C5          2.0640    0.1720   -1.8120 c3        1 TCE     -0.171400
      5 C2          1.0020   -0.0220   -2.8480 c3        1 TCE      0.083500
      6 P           1.8610   -0.4100   -4.3200 p3        1 TCE     -0.581700
      7 C3          1.9260   -2.1570   -4.3000 c3        1 TCE      0.083500
      8 C6          3.0350   -2.5200   -5.2370 c3        1 TCE     -0.171400
      9 C8          3.2640   -4.0260   -5.4030 c         1 TCE      0.904600
     10 O10         2.2770   -4.8170   -5.4900 o         1 TCE     -0.881800
     11 O9          4.4630   -4.4440   -5.4850 o         1 TCE     -0.881800
     12 C1          0.6930   -0.0640   -5.5720 c3        1 TCE      0.083500
     13 C4          0.9480    1.3570   -5.9670 c3        1 TCE     -0.171400
     14 C11         0.0120    1.8980   -7.0520 c         1 TCE      0.904600
     15 O12         0.5040    2.6580   -7.9460 o         1 TCE     -0.881800
     16 O13        -1.2250    1.6170   -7.0280 o         1 TCE     -0.881800
     17 H5          2.7560    0.9850   -2.1480 hc        1 TCE      0.029700
     18 H5A         2.6680   -0.7710   -1.7390 hc        1 TCE      0.029700
     19 H2          0.2980   -0.8340   -2.5640 hc        1 TCE      0.041200
     20 H2A         0.4230    0.9120   -3.0260 hc        1 TCE      0.041200
     21 H3          2.1430   -2.4800   -3.2570 hc        1 TCE      0.041200
     22 H3A         0.9580   -2.6010   -4.6210 hc        1 TCE      0.041200
     23 H6          3.9820   -2.0380   -4.8830 hc        1 TCE      0.029700
     24 H6A         2.8020   -2.0950   -6.2480 hc        1 TCE      0.029700
     25 H1         -0.3480   -0.2050   -5.2050 hc        1 TCE      0.041200
     26 H1A         0.8760   -0.7660   -6.4160 hc        1 TCE      0.041200
     27 H4          2.0090    1.4530   -6.3130 hc        1 TCE      0.029700
     28 H4A         0.8340    2.0060   -5.0600 hc        1 TCE      0.029700
@<TRIPOS>BOND
     1    1    2 1   
     2    2    3 1   
     3    2    4 1   
     4    4    5 1   
     5    4   17 1   
     6    4   18 1   
     7    5    6 1   
     8    5   19 1   
     9    5   20 1   
    10    6    7 1   
    11    6   12 1   
    12    7    8 1   
    13    7   21 1   
    14    7   22 1   
    15    8    9 1   
    16    8   23 1   
    17    8   24 1   
    18    9   10 1   
    19    9   11 1   
    20   12   13 1   
    21   12   25 1   
    22   12   26 1   
    23   13   14 1   
    24   13   27 1   
    25   13   28 1   
    26   14   15 1   
    27   14   16 1   
@<TRIPOS>SUBSTRUCTURE
     1 TCE         1 TEMP              0 ****  ****    0 ROOT
