@<TRIPOS>MOLECULE
TCE
   28    27     1     0     0
SMALL
bcc


@<TRIPOS>ATOM
      1 O16         0.5820   -0.0720    0.0590 o         1 TCE     -0.881800
      2 C14         1.6160    0.4940   -0.4090 c         1 TCE      0.904600
      3 O15         2.2870    1.3280    0.2780 o         1 TCE     -0.881800
      4 C5          2.1150    0.1510   -1.8160 c3        1 TCE     -0.171400
      5 C2          1.0360   -0.0060   -2.8410 c3        1 TCE      0.083500
      6 P           1.8650   -0.4190   -4.3230 p3        1 TCE     -0.581700
      7 C3          1.8750   -2.1660   -4.3070 c3        1 TCE      0.083500
      8 C6          2.9610   -2.5630   -5.2570 c3        1 TCE     -0.171400
      9 C8          3.1410   -4.0740   -5.4280 c         1 TCE      0.904600
     10 O10         2.1280   -4.8340   -5.5050 o         1 TCE     -0.881800
     11 O9          4.3240   -4.5310   -5.5260 o         1 TCE     -0.881800
     12 C1          0.6940   -0.0330   -5.5610 c3        1 TCE      0.083500
     13 C4          0.9900    1.3800   -5.9570 c3        1 TCE     -0.171400
     14 C11         0.0590    1.9520   -7.0300 c         1 TCE      0.904600
     15 O12         0.5650    2.6990   -7.9270 o         1 TCE     -0.881800
     16 O13        -1.1850    1.7100   -6.9920 o         1 TCE     -0.881800
     17 H5          2.8290    0.9430   -2.1590 hc        1 TCE      0.029700
     18 H5A         2.6890   -0.8100   -1.7520 hc        1 TCE      0.029700
     19 H2          0.3090   -0.7970   -2.5500 hc        1 TCE      0.041200
     20 H2A         0.4840    0.9460   -3.0100 hc        1 TCE      0.041200
     21 H3          2.0930   -2.4990   -3.2670 hc        1 TCE      0.041200
     22 H3A         0.8890   -2.5790   -4.6180 hc        1 TCE      0.041200
     23 H6          3.9260   -2.1120   -4.9130 hc        1 TCE      0.029700
     24 H6A         2.7300   -2.1280   -6.2650 hc        1 TCE      0.029700
     25 H1         -0.3460   -0.1410   -5.1830 hc        1 TCE      0.041200
     26 H1A         0.8450   -0.7390   -6.4090 hc        1 TCE      0.041200
     27 H4          2.0490    1.4430   -6.3140 hc        1 TCE      0.029700
     28 H4A         0.9060    2.0300   -5.0470 hc        1 TCE      0.029700
@<TRIPOS>BOND
     1    1    2 1   
     2    2    3 1   
     3    2    4 1   
     4    4    5 1   
     5    4   17 1   
     6    4   18 1   
     7    5    6 1   
     8    5   19 1   
     9    5   20 1   
    10    6    7 1   
    11    6   12 1   
    12    7    8 1   
    13    7   21 1   
    14    7   22 1   
    15    8    9 1   
    16    8   23 1   
    17    8   24 1   
    18    9   10 1   
    19    9   11 1   
    20   12   13 1   
    21   12   25 1   
    22   12   26 1   
    23   13   14 1   
    24   13   27 1   
    25   13   28 1   
    26   14   15 1   
    27   14   16 1   
@<TRIPOS>SUBSTRUCTURE
     1 TCE         1 TEMP              0 ****  ****    0 ROOT
