@<TRIPOS>MOLECULE
TCF
   23    23     1     0     0
SMALL
bcc


@<TRIPOS>ATOM
      1 C1B         0.1060    0.0020    0.0440 c         1 TCF      0.550100
      2 O1B         1.3030   -0.0010   -0.1660 o         1 TCF     -0.378100
      3 C2B        -0.6650    0.0030    1.3260 c3        1 TCF     -0.151400
      4 C3B         0.2840   -0.0010    2.5190 c3        1 TCF     -0.026100
      5 CB1        -0.4990   -0.0000    3.7830 ca        1 TCF     -0.118300
      6 CB2        -0.8620   -1.2080    4.3890 ca        1 TCF     -0.119000
      7 CB3        -1.5810   -1.2090    5.5820 ca        1 TCF     -0.095000
      8 CB6        -0.8570    1.2080    4.3900 ca        1 TCF     -0.119000
      9 CB5        -1.5770    1.2110    5.5830 ca        1 TCF     -0.095000
     10 CB4        -1.9460    0.0010    6.1820 ca        1 TCF     -0.010900
     11 BR         -2.9140    0.0020    7.7790 br        1 TCF     -0.041100
     12 NXT        -0.7490    0.0050   -1.2240 n4        1 TCF     -0.775400
     13 H2B1       -1.3230    0.9150    1.3710 hc        1 TCF      0.108700
     14 H2B2       -1.3270   -0.9070    1.3690 hc        1 TCF      0.108700
     15 HXT1       -1.3420    0.8390   -1.2420 hn        1 TCF      0.467800
     16 HXT2       -0.1470    0.0040   -2.0570 hn        1 TCF      0.467800
     17 H3B1        0.9510    0.9030    2.4720 hc        1 TCF      0.079700
     18 H3B2        0.9460   -0.9070    2.4700 hc        1 TCF      0.079700
     19 HB2        -0.5670   -2.1660    3.9330 ha        1 TCF      0.137000
     20 HB6        -0.5580    2.1660    3.9360 ha        1 TCF      0.137000
     21 HB3        -1.8540   -2.1690    6.0510 ha        1 TCF      0.162000
     22 HB5        -1.8460    2.1710    6.0540 ha        1 TCF      0.162000
     23 HXT3       -1.3470   -0.8260   -1.2440 hn        1 TCF      0.467800
@<TRIPOS>BOND
     1    1    2 2   
     2    1    3 1   
     3    1   12 1   
     4    3    4 1   
     5    3   13 1   
     6    3   14 1   
     7    4    5 1   
     8    4   17 1   
     9    4   18 1   
    10    5    6 ar  
    11    5    8 ar  
    12    6    7 ar  
    13    6   19 1   
    14    7   10 ar  
    15    7   21 1   
    16    8    9 ar  
    17    8   20 1   
    18    9   10 ar  
    19    9   22 1   
    20   10   11 1   
    21   12   15 1   
    22   12   16 1   
    23   12   23 1   
@<TRIPOS>SUBSTRUCTURE
     1 TCF         1 TEMP              0 ****  ****    0 ROOT
