@<TRIPOS>MOLECULE
TCF
   23    23     1     0     0
SMALL
bcc


@<TRIPOS>ATOM
      1 C1B         0.1080   -0.0020    0.0450 c         1 TCF      0.550100
      2 O1B         1.3060   -0.0110   -0.1640 o         1 TCF     -0.378100
      3 C2B        -0.6640    0.0010    1.3270 c3        1 TCF     -0.151400
      4 C3B         0.2850    0.0010    2.5200 c3        1 TCF     -0.026100
      5 CB1        -0.5000    0.0010    3.7840 ca        1 TCF     -0.118300
      6 CB2        -0.8620   -1.2070    4.3890 ca        1 TCF     -0.119000
      7 CB3        -1.5830   -1.2090    5.5810 ca        1 TCF     -0.095000
      8 CB6        -0.8600    1.2090    4.3900 ca        1 TCF     -0.119000
      9 CB5        -1.5800    1.2110    5.5830 ca        1 TCF     -0.095000
     10 CB4        -1.9490    0.0010    6.1810 ca        1 TCF     -0.010900
     11 Br         -2.9180    0.0010    7.7780 br        1 TCF     -0.041100
     12 NXT        -0.7450    0.0060   -1.2240 nz        1 TCF     -0.775400
     13 H2B1       -1.3230    0.9120    1.3690 hc        1 TCF      0.109200
     14 H2B2       -1.3240   -0.9100    1.3710 hc        1 TCF      0.109200
     15 HXT1       -1.3330    0.8440   -1.2430 hn        1 TCF      0.467800
     16 HXT2       -0.1430    0.0010   -2.0570 hn        1 TCF      0.467800
     17 H3B1        0.9490    0.9060    2.4730 hc        1 TCF      0.079700
     18 H3B2        0.9490   -0.9040    2.4730 hc        1 TCF      0.079700
     19 HB2        -0.5660   -2.1650    3.9340 ha        1 TCF      0.137000
     20 HB6        -0.5610    2.1670    3.9370 ha        1 TCF      0.137000
     21 HB3        -1.8560   -2.1690    6.0500 ha        1 TCF      0.162000
     22 HB5        -1.8500    2.1710    6.0530 ha        1 TCF      0.162000
     23 HXT3       -1.3490   -0.8200   -1.2440 hn        1 TCF      0.467800
@<TRIPOS>BOND
     1    1    2 2   
     2    1    3 1   
     3    1   12 1   
     4    3    4 1   
     5    3   13 1   
     6    3   14 1   
     7    4    5 1   
     8    4   17 1   
     9    4   18 1   
    10    5    6 ar  
    11    5    8 ar  
    12    6    7 ar  
    13    6   19 1   
    14    7   10 ar  
    15    7   21 1   
    16    8    9 ar  
    17    8   20 1   
    18    9   10 ar  
    19    9   22 1   
    20   10   11 1   
    21   12   15 1   
    22   12   16 1   
    23   12   23 1   
@<TRIPOS>SUBSTRUCTURE
     1 TCF         1 TEMP              0 ****  ****    0 ROOT
