@<TRIPOS>MOLECULE
TCF
   22    22     1     0     0
SMALL
bcc


@<TRIPOS>ATOM
      1 C1B        -4.7650    0.0450   -0.2460 c         1 TCF      0.655100
      2 O1B        -5.2450   -0.0540    0.9010 o         1 TCF     -0.612100
      3 C2B        -3.2720    0.0500   -0.5110 c3        1 TCF     -0.147400
      4 C3B        -2.4970   -0.1480    0.7770 c3        1 TCF     -0.034100
      5 CB1        -1.0300   -0.0920    0.5380 ca        1 TCF     -0.068300
      6 CB2        -0.3990    1.1370    0.3070 ca        1 TCF     -0.129000
      7 CB3         0.9760    1.1980    0.0920 ca        1 TCF     -0.101000
      8 CB6        -0.2600   -1.2600    0.5540 ca        1 TCF     -0.129000
      9 CB5         1.1160   -1.2040    0.3400 ca        1 TCF     -0.101000
     10 CB4         1.7370    0.0250    0.1060 ca        1 TCF     -0.028900
     11 BR          3.5860    0.1030   -0.1850 br        1 TCF     -0.089100
     12 NXT        -5.6040    0.1590   -1.3290 n         1 TCF     -0.681000
     13 H2B1       -3.0190   -0.7660   -1.2380 hc        1 TCF      0.065700
     14 H2B2       -2.9860    1.0290   -0.9800 hc        1 TCF      0.065700
     15 HXT1       -6.5840    0.1580   -1.1920 hn        1 TCF      0.311500
     16 HXT2       -5.2500    0.2310   -2.2460 hn        1 TCF      0.311500
     17 H3B1       -2.7950    0.6480    1.5130 hc        1 TCF      0.071200
     18 H3B2       -2.7860   -1.1330    1.2330 hc        1 TCF      0.071200
     19 HB2        -0.9940    2.0620    0.3010 ha        1 TCF      0.139000
     20 HB6        -0.7420   -2.2320    0.7420 ha        1 TCF      0.139000
     21 HB3         1.4550    2.1730   -0.0860 ha        1 TCF      0.146500
     22 HB5         1.7060   -2.1340    0.3570 ha        1 TCF      0.146500
@<TRIPOS>BOND
     1    1    2 2   
     2    1    3 1   
     3    1   12 1   
     4    3    4 1   
     5    3   13 1   
     6    3   14 1   
     7    4    5 1   
     8    4   17 1   
     9    4   18 1   
    10    5    6 ar  
    11    5    8 ar  
    12    6    7 ar  
    13    6   19 1   
    14    7   10 ar  
    15    7   21 1   
    16    8    9 ar  
    17    8   20 1   
    18    9   10 ar  
    19    9   22 1   
    20   10   11 1   
    21   12   15 1   
    22   12   16 1   
@<TRIPOS>SUBSTRUCTURE
     1 TCF         1 TEMP              0 ****  ****    0 ROOT
