@<TRIPOS>MOLECULE
TCI
   53    69     1     0     0
SMALL
bcc


@<TRIPOS>ATOM
      1 C1          0.0000    0.0000    0.0000 c2        1 TCI     -0.257000
      2 O1         -2.0630   -0.0110    1.1500 os        1 TCI     -0.103000
      3 C2          1.3800    0.0000    0.0000 DU        1 TCI      0.018000
      4 C3          2.0740    0.0000    1.1940 c2        1 TCI     -0.402000
      5 C4          1.3800    0.0060    2.3950 c3        1 TCI      0.208000
      6 C5         -0.0070    0.0140    2.3990 c3        1 TCI     -0.495000
      7 C6         -0.7060    0.0040    1.2000 c3        1 TCI      0.358000
      8 C7         -0.7540    0.0500    3.6960 DU        1 TCI     -0.003000
      9 C8         -0.0800   -0.6760    4.8120 c2        1 TCI     -0.481000
     10 C9         -0.7580   -1.2870    5.7400 c2        1 TCI     -0.132000
     11 C10        -2.2540   -1.3690    5.8040 DU        1 TCI     -0.057000
     12 C11        -2.9130   -0.4170    4.8000 DU        1 TCI     -0.309000
     13 C12        -2.1540   -0.5350    3.4810 c3        1 TCI     -0.789000
     14 C13        -2.8130    0.2410    2.3450 DU        1 TCI      0.203000
     15 C14        -4.2560   -0.2350    2.1590 c3        1 TCI     -0.467500
     16 C15        -2.7960    1.7380    2.6610 c3        1 TCI     -0.467500
     17 C16         0.0210   -1.9680    6.8370 c3        1 TCI     -0.186000
     18 C17         2.1310   -0.0020   -1.3070 DU        1 TCI     -0.104000
     19 C18         2.3860    1.4410   -1.7510 DU        1 TCI     -0.266000
     20 C19         3.1480    1.4390   -3.0760 DU        1 TCI     -0.261000
     21 C20         3.4030    2.8810   -3.5200 DU        1 TCI     -0.280000
     22 C21         4.1660    2.8790   -4.8470 c3        1 TCI     -0.292000
     23 H1          0.5390    0.1100    0.9330 DU        1 TCI      0.185000
     24 HO2         1.7030   -0.1010    2.7050 ho        1 TCI      0.238000
     25 H3          2.1900    0.5400    2.1260 DU        1 TCI      0.206000
     26 H7          0.1590    0.0380    3.1120 DU        1 TCI      0.414000
     27 H8         -0.4840    0.2350    4.3890 DU        1 TCI      0.186000
     28 H10        -1.2340   -1.1580    5.5060 ha        1 TCI      0.145000
     29 H10A       -2.5790   -1.1070    6.8040 ha        1 TCI      0.145000
     30 H11        -2.7370   -1.4110    5.1930 DU        1 TCI      0.190000
     31 H11A       -3.9490   -0.7010    4.6520 ha        1 TCI      0.134000
     32 H12        -2.5060    0.0390    4.3300 DU        1 TCI      0.190000
     33 H14        -3.4020   -0.7620    2.5670 DU        1 TCI      0.261000
     34 H14A       -4.8770    0.1810    2.9430 hc        1 TCI      0.105750
     35 H14B       -4.2880   -1.3160    2.2080 hc        1 TCI      0.105750
     36 H15        -3.4880    1.1170    2.1050 DU        1 TCI      0.261000
     37 H15A       -3.1590    1.8980    3.6700 hc        1 TCI      0.105750
     38 H15B       -1.7830    2.1130    2.5780 hc        1 TCI      0.105750
     39 H16        -0.4810   -1.3180    6.1290 hc        1 TCI      0.123000
     40 H16A       -0.6600   -2.5170    7.4760 hc        1 TCI      0.123000
     41 H16B        0.7370   -2.6530    6.3990 hc        1 TCI      0.123000
     42 H17         1.9390   -0.1490   -0.2510 DU        1 TCI      0.251000
     43 H17A        3.0770   -0.5130   -1.1790 ha        1 TCI      0.125000
     44 H18         1.9610    0.4570   -1.9080 DU        1 TCI      0.196000
     45 H18A        1.4390    1.9520   -1.8790 ha        1 TCI      0.133000
     46 H19         3.0610    1.6980   -2.0280 DU        1 TCI      0.141000
     47 H19A        2.5610    0.9280   -3.8300 ha        1 TCI      0.105000
     48 H20         3.7530    1.8970   -3.2320 DU        1 TCI      0.163000
     49 H20A        2.4560    3.3910   -3.6490 ha        1 TCI      0.122000
     50 H21         4.0790    3.1380   -3.7990 DU        1 TCI      0.186000
     51 H21A        4.0080    2.0150   -5.4800 hc        1 TCI      0.080000
     52 H21B        5.2120    3.1570   -4.7890 hc        1 TCI      0.080000
     53 O2          2.0610    0.0050    3.5710 oh        1 TCI     -0.366000
@<TRIPOS>BOND
     1    1    3 1   
     2    1    7 1   
     3    1   23 1   
     4    2    7 1   
     5    2   14 1   
     6    3    4 1   
     7    3   18 1   
     8    3   23 1   
     9    3   42 1   
    10    4    5 1   
    11    4   25 1   
    12    5    6 1   
    13    5   25 1   
    14    5   53 1   
    15    6    7 1   
    16    6    8 1   
    17    6   26 1   
    18    7   23 1   
    19    8    9 1   
    20    8   13 1   
    21    8   26 1   
    22    8   27 1   
    23    9   10 1   
    24    9   27 1   
    25   10   11 1   
    26   10   17 1   
    27   11   12 1   
    28   11   28 1   
    29   11   29 1   
    30   11   30 1   
    31   12   13 1   
    32   12   30 1   
    33   12   31 1   
    34   12   32 1   
    35   13   14 1   
    36   13   32 1   
    37   14   15 1   
    38   14   16 1   
    39   14   33 1   
    40   14   36 1   
    41   15   33 1   
    42   15   34 1   
    43   15   35 1   
    44   16   36 1   
    45   16   37 1   
    46   16   38 1   
    47   17   39 1   
    48   17   40 1   
    49   17   41 1   
    50   18   19 1   
    51   18   42 1   
    52   18   43 1   
    53   18   44 1   
    54   19   20 1   
    55   19   44 1   
    56   19   45 1   
    57   19   46 1   
    58   20   21 1   
    59   20   46 1   
    60   20   47 1   
    61   20   48 1   
    62   21   22 1   
    63   21   48 1   
    64   21   49 1   
    65   21   50 1   
    66   22   50 1   
    67   22   51 1   
    68   22   52 1   
    69   24   53 1   
@<TRIPOS>SUBSTRUCTURE
     1 TCI         1 TEMP              0 ****  ****    0 ROOT
