@<TRIPOS>MOLECULE
TCI
   53    55     1     0     0
SMALL
bcc


@<TRIPOS>ATOM
      1 C1         -1.2540    0.8630    0.7910 ca        1 TCI     -0.189000
      2 O1          0.7940    1.9810    0.6200 os        1 TCI     -0.328900
      3 C2         -2.0730   -0.2480    0.5890 ca        1 TCI     -0.018300
      4 C3         -1.5630   -1.3820   -0.0480 ca        1 TCI     -0.190000
      5 C4         -0.2170   -1.4140   -0.4410 ca        1 TCI      0.158100
      6 C5          0.6570   -0.3440   -0.1710 ca        1 TCI     -0.218300
      7 C6          0.0930    0.8150    0.3940 ca        1 TCI      0.168100
      8 C7          2.1110   -0.3840   -0.4970 c3        1 TCI      0.027800
      9 C8          2.8220   -1.6230   -0.0620 c2        1 TCI     -0.183200
     10 C9          4.1520   -1.6400    0.1210 c2        1 TCI     -0.110400
     11 C10         5.0140   -0.4310   -0.0190 c3        1 TCI     -0.044200
     12 C11         4.2650    0.8320   -0.4110 c3        1 TCI     -0.068400
     13 C12         2.8480    0.8070    0.1310 c3        1 TCI     -0.081700
     14 C13         2.0680    2.1060   -0.0650 c3        1 TCI      0.160800
     15 C14         2.7440    3.2770    0.6410 c3        1 TCI     -0.102600
     16 C15         1.8160    2.4480   -1.5260 c3        1 TCI     -0.102600
     17 C16         4.8740   -2.8750    0.5140 c3        1 TCI     -0.060900
     18 C17        -3.4940   -0.2250    1.0350 c3        1 TCI     -0.039100
     19 C18        -4.4490   -0.1030   -0.1370 c3        1 TCI     -0.076400
     20 C19        -5.8890   -0.1190    0.3310 c3        1 TCI     -0.080400
     21 C20        -6.8470    0.0060   -0.8350 c3        1 TCI     -0.080400
     22 C21        -8.2810   -0.0100   -0.3750 c3        1 TCI     -0.093100
     23 H1         -1.6440    1.7790    1.2560 ha        1 TCI      0.150000
     24 HO2         0.9950   -2.3750   -1.5700 ho        1 TCI      0.424000
     25 H3         -2.2040   -2.2510   -0.2520 ha        1 TCI      0.150000
     26 H7          2.2090   -0.3130   -1.6250 hc        1 TCI      0.056700
     27 H8          2.2110   -2.5200    0.1200 ha        1 TCI      0.140000
     28 H10         5.5320   -0.2630    0.9650 hc        1 TCI      0.050700
     29 H10A        5.8150   -0.6360   -0.7800 hc        1 TCI      0.050700
     30 H11         4.8110    1.7250   -0.0100 hc        1 TCI      0.044700
     31 H11A        4.2410    0.9280   -1.5280 hc        1 TCI      0.044700
     32 H12         2.8980    0.6320    1.2460 hc        1 TCI      0.075700
     33 H14         3.0760    2.9770    1.6630 hc        1 TCI      0.048700
     34 H14A        3.6260    3.6110    0.0470 hc        1 TCI      0.048700
     35 H14B        2.0240    4.1250    0.7360 hc        1 TCI      0.048700
     36 H15         1.2860    3.4290   -1.5970 hc        1 TCI      0.048700
     37 H15A        2.7850    2.5170   -2.0730 hc        1 TCI      0.048700
     38 H15B        1.1780    1.6670   -2.0050 hc        1 TCI      0.048700
     39 H16         4.1780   -3.7440    0.6140 hc        1 TCI      0.043700
     40 H16A        5.6470   -3.1280   -0.2540 hc        1 TCI      0.043700
     41 H16B        5.3910   -2.7240    1.4940 hc        1 TCI      0.043700
     42 H17        -3.7170   -1.1710    1.6000 hc        1 TCI      0.051200
     43 H17A       -3.6610    0.6320    1.7420 hc        1 TCI      0.051200
     44 H18        -4.2430    0.8490   -0.6930 hc        1 TCI      0.045700
     45 H18A       -4.2740   -0.9500   -0.8520 hc        1 TCI      0.045700
     46 H19        -6.0950   -1.0720    0.8860 hc        1 TCI      0.039700
     47 H19A       -6.0600    0.7250    1.0500 hc        1 TCI      0.039700
     48 H20        -6.6390    0.9590   -1.3880 hc        1 TCI      0.039700
     49 H20A       -6.6710   -0.8380   -1.5530 hc        1 TCI      0.039700
     50 H21        -8.5150   -0.9640    0.1580 hc        1 TCI      0.032700
     51 H21A       -8.4820    0.8380    0.3240 hc        1 TCI      0.032700
     52 H21B       -8.9700    0.0830   -1.2490 hc        1 TCI      0.032700
     53 O2          0.1720   -2.5630   -1.0950 oh        1 TCI     -0.505100
@<TRIPOS>BOND
     1    1    3 ar  
     2    1    7 ar  
     3    1   23 1   
     4    2    7 1   
     5    2   14 1   
     6    3    4 ar  
     7    3   18 1   
     8    4    5 ar  
     9    4   25 1   
    10    5    6 ar  
    11    5   53 1   
    12    6    7 ar  
    13    6    8 1   
    14    8    9 1   
    15    8   13 1   
    16    8   26 1   
    17    9   10 2   
    18    9   27 1   
    19   10   11 1   
    20   10   17 1   
    21   11   12 1   
    22   11   28 1   
    23   11   29 1   
    24   12   13 1   
    25   12   30 1   
    26   12   31 1   
    27   13   14 1   
    28   13   32 1   
    29   14   15 1   
    30   14   16 1   
    31   15   33 1   
    32   15   34 1   
    33   15   35 1   
    34   16   36 1   
    35   16   37 1   
    36   16   38 1   
    37   17   39 1   
    38   17   40 1   
    39   17   41 1   
    40   18   19 1   
    41   18   42 1   
    42   18   43 1   
    43   19   20 1   
    44   19   44 1   
    45   19   45 1   
    46   20   21 1   
    47   20   46 1   
    48   20   47 1   
    49   21   22 1   
    50   21   48 1   
    51   21   49 1   
    52   22   50 1   
    53   22   51 1   
    54   22   52 1   
    55   24   53 1   
@<TRIPOS>SUBSTRUCTURE
     1 TCI         1 TEMP              0 ****  ****    0 ROOT
