@<TRIPOS>MOLECULE
TCK
   42    42     1     0     0
SMALL
bcc


@<TRIPOS>ATOM
      1 S           0.1620    0.8020    1.0300 sy        1 TCK      1.529200
      2 O1S         0.0930    0.4450    2.3930 o         1 TCK     -0.662800
      3 O2S        -0.5950    1.9280    0.6560 o         1 TCK     -0.662800
      4 C1          1.7600    1.0430    0.5700 ca        1 TCK     -0.401500
      5 C2          2.0870    1.9620   -0.4360 ca        1 TCK     -0.006500
      6 C3          3.4100    2.1850   -0.7990 ca        1 TCK     -0.160500
      7 C4          4.4440    1.4900   -0.1580 ca        1 TCK     -0.001300
      8 C5          4.1270    0.5740    0.8540 ca        1 TCK     -0.160500
      9 C6          2.8010    0.3580    1.2100 ca        1 TCK     -0.006500
     10 C7          5.8560    1.7330   -0.5330 c3        1 TCK     -0.070800
     11 N          -0.2430   -0.4790    0.1180 n3        1 TCK     -0.913100
     12 CA         -1.2030   -1.4690    0.5190 c3        1 TCK      0.145500
     13 C          -0.6700   -2.8980    0.3250 c         1 TCK      0.548100
     14 O           0.0350   -3.2110   -0.6330 o         1 TCK     -0.492100
     15 CB         -2.5440   -1.3870   -0.2370 c3        1 TCK     -0.093400
     16 CG         -3.3390   -0.1640    0.1650 c3        1 TCK     -0.092400
     17 CD         -4.6400   -0.0930   -0.6060 c3        1 TCK     -0.078400
     18 CE         -5.4400    1.1330   -0.1680 c3        1 TCK      0.156800
     19 NZ         -6.7170    1.2470   -0.8330 n3        1 TCK     -0.916800
     20 CM         -1.0940   -3.8320    1.4220 c3        1 TCK     -0.081000
     21 CL1        -0.9430   -5.5260    1.0380 cl        1 TCK     -0.142400
     22 H2          1.2770    2.5270   -0.9320 ha        1 TCK      0.154000
     23 H3          3.6480    2.9110   -1.5910 ha        1 TCK      0.143500
     24 H5          4.9310    0.0260    1.3670 ha        1 TCK      0.143500
     25 H6          2.5590   -0.3530    2.0200 ha        1 TCK      0.154000
     26 H1          6.2790    2.5480    0.1080 hc        1 TCK      0.055033
     27 H2A         6.4740    0.8140   -0.3830 hc        1 TCK      0.055033
     28 H3A         5.9390    2.0480   -1.6020 hc        1 TCK      0.055033
     29 H           0.1370   -0.6490   -0.7840 hn        1 TCK      0.457800
     30 HA         -1.4100   -1.3200    1.6250 h1        1 TCK      0.087700
     31 HB2        -2.3570   -1.3790   -1.3430 hc        1 TCK      0.056200
     32 HB3        -3.1350   -2.3120   -0.0020 hc        1 TCK      0.056200
     33 HG2        -3.5570   -0.2010    1.2650 hc        1 TCK      0.056200
     34 HG3        -2.7390    0.7670   -0.0230 hc        1 TCK      0.056200
     35 HD2        -4.4240   -0.0390   -1.7050 hc        1 TCK      0.045700
     36 HD3        -5.2400   -1.0240   -0.4280 hc        1 TCK      0.045700
     37 HE2        -5.6450    1.0560    0.9380 h1        1 TCK      0.030200
     38 HE3        -4.7890    2.0450   -0.3190 h1        1 TCK      0.030200
     39 HZ1        -7.1610    2.1070   -0.5840 hn        1 TCK      0.348300
     40 HZ2        -6.6090    1.2090   -1.8270 hn        1 TCK      0.348300
     41 HM1        -0.4560   -3.6380    2.3220 h1        1 TCK      0.093700
     42 HM2        -2.1680   -3.6540    1.6810 h1        1 TCK      0.093700
@<TRIPOS>BOND
     1    1    2 2   
     2    1    3 2   
     3    1    4 1   
     4    1   11 1   
     5    4    5 ar  
     6    4    9 ar  
     7    5    6 ar  
     8    5   22 1   
     9    6    7 ar  
    10    6   23 1   
    11    7    8 ar  
    12    7   10 1   
    13    8    9 ar  
    14    8   24 1   
    15    9   25 1   
    16   10   26 1   
    17   10   27 1   
    18   10   28 1   
    19   11   12 1   
    20   11   29 1   
    21   12   13 1   
    22   12   15 1   
    23   12   30 1   
    24   13   14 2   
    25   13   20 1   
    26   15   16 1   
    27   15   31 1   
    28   15   32 1   
    29   16   17 1   
    30   16   33 1   
    31   16   34 1   
    32   17   18 1   
    33   17   35 1   
    34   17   36 1   
    35   18   19 1   
    36   18   37 1   
    37   18   38 1   
    38   19   39 1   
    39   19   40 1   
    40   20   21 1   
    41   20   41 1   
    42   20   42 1   
@<TRIPOS>SUBSTRUCTURE
     1 TCK         1 TEMP              0 ****  ****    0 ROOT
