@<TRIPOS>MOLECULE
TCL
   24    24     1     0     0
SMALL
bcc


@<TRIPOS>ATOM
      1 C1         -0.3250   -0.4090   -0.0970 c2        1 TCL     -0.122000
      2 C2          1.0260    0.0190   -0.3720 c2        1 TCL     -0.330000
      3 C6         -0.9290   -0.1690    1.0920 c2        1 TCL      0.048000
      4 C5         -0.2450    0.5120    2.2020 c2        1 TCL      0.050000
      5 C4          0.9820    0.1770    2.6410 c2        1 TCL     -0.264000
      6 C3          1.9540    0.3640    0.5340 c1        1 TCL      0.188000
      7 C11        -2.6540    3.6120    4.7740 c2        1 TCL     -0.037000
      8 C10        -1.6310    2.7980    4.6550 cu        1 TCL     -0.185000
      9 C9         -0.7510    1.7640    5.2030 cx        1 TCL     -0.081000
     10 C8         -0.5490    2.2970    3.7710 cx        1 TCL      0.189000
     11 C12         1.5300    3.8070    3.2630 c1        1 TCL     -0.127000
     12 C13         0.5880    3.1070    3.4930 c1        1 TCL     -0.191000
     13 O7         -1.0360    1.5520    2.6700 os        1 TCL     -0.174000
     14 CL14        1.4760    0.1110   -2.0190 cl        1 TCL      0.018000
     15 CL16       -1.3430    0.1830    5.5050 cl        1 TCL     -0.028000
     16 O17        -2.2330   -0.5780    1.2620 oh        1 TCL     -0.242000
     17 H11        -0.8730   -0.9360   -0.8960 ha        1 TCL      0.169000
     18 H41         1.4670   -0.7680    2.3440 ha        1 TCL      0.156500
     19 H31         1.5160    0.7580    3.4030 ha        1 TCL      0.156500
     20 H101        0.0030    2.0350    5.9690 h1        1 TCL      0.162000
     21 H121       -2.9830    4.2880    3.9690 h4        1 TCL      0.171000
     22 H131        2.3720    4.4190    3.0540 ha        1 TCL      0.234000
     23 H171       -2.5900   -0.1090    2.0320 ho        1 TCL      0.236000
     24 CL15       -3.5910    3.7240    6.1740 cl        1 TCL      0.004000
@<TRIPOS>BOND
     1    1    2 1   
     2    1    3 1   
     3    1   17 1   
     4    2    6 1   
     5    2   14 1   
     6    3    4 1   
     7    3   16 1   
     8    4    5 1   
     9    4   13 1   
    10    5   18 1   
    11    5   19 1   
    12    7    8 1   
    13    7   21 1   
    14    7   24 1   
    15    8    9 1   
    16    8   10 1   
    17    9   10 1   
    18    9   15 1   
    19    9   20 1   
    20   10   12 1   
    21   10   13 1   
    22   11   12 1   
    23   11   22 1   
    24   16   23 1   
@<TRIPOS>SUBSTRUCTURE
     1 TCL         1 TEMP              0 ****  ****    0 ROOT
