@<TRIPOS>MOLECULE
TCL
   24    25     1     0     0
SMALL
bcc


@<TRIPOS>ATOM
      1 C1          0.3870    0.9640    3.5970 ca        1 TCL     -0.149000
      2 C2         -0.0080   -0.3210    3.9710 ca        1 TCL      0.046400
      3 C6          0.7600    1.1960    2.2640 ca        1 TCL      0.143100
      4 C5          0.7320    0.1360    1.3350 ca        1 TCL     -0.003900
      5 C4          0.3420   -1.1470    1.7270 ca        1 TCL     -0.099000
      6 C3         -0.0320   -1.3750    3.0480 ca        1 TCL     -0.150000
      7 C11        -1.2220   -0.2860   -3.2360 ca        1 TCL      0.001400
      8 C10         0.1680   -0.2900   -3.3760 ca        1 TCL     -0.101000
      9 C9          0.9830   -0.0840   -2.2590 ca        1 TCL      0.004400
     10 C8          0.3830    0.1360   -1.0030 ca        1 TCL      0.111100
     11 C12        -1.8150   -0.0740   -1.9870 ca        1 TCL     -0.096000
     12 C13        -1.0110    0.1380   -0.8720 ca        1 TCL     -0.164000
     13 O7          1.2360    0.4090    0.0630 os        1 TCL     -0.245200
     14 CL14       -0.4680   -0.6110    5.5800 cl        1 TCL     -0.080400
     15 CL16        2.6660   -0.0980   -2.4640 cl        1 TCL     -0.057400
     16 O17         1.1520    2.4670    1.9350 oh        1 TCL     -0.485100
     17 H11         0.4140    1.7950    4.3170 ha        1 TCL      0.171000
     18 H41         0.3320   -1.9640    0.9900 ha        1 TCL      0.156000
     19 H31        -0.3410   -2.3830    3.3650 ha        1 TCL      0.155000
     20 H101        0.6270   -0.4590   -4.3640 ha        1 TCL      0.166000
     21 H121       -2.9110   -0.0700   -1.8830 ha        1 TCL      0.156000
     22 H131       -1.4660    0.3050    0.1170 ha        1 TCL      0.159000
     23 H171        1.4100    2.4700    0.9990 ho        1 TCL      0.441000
     24 CL15       -2.2000   -0.5440   -4.6000 cl        1 TCL     -0.079400
@<TRIPOS>BOND
     1    1    2 ar  
     2    1    3 ar  
     3    1   17 1   
     4    2    6 ar  
     5    2   14 1   
     6    3    4 ar  
     7    3   16 1   
     8    4    5 ar  
     9    4   13 1   
    10    5    6 ar  
    11    5   18 1   
    12    6   19 1   
    13    7    8 ar  
    14    7   11 ar  
    15    7   24 1   
    16    8    9 ar  
    17    8   20 1   
    18    9   10 ar  
    19    9   15 1   
    20   10   12 ar  
    21   10   13 1   
    22   11   12 ar  
    23   11   21 1   
    24   12   22 1   
    25   16   23 1   
@<TRIPOS>SUBSTRUCTURE
     1 TCL         1 TEMP              0 ****  ****    0 ROOT
