@<TRIPOS>MOLECULE
TCL
   24    24     1     0     0
SMALL
bcc


@<TRIPOS>ATOM
      1 C1         -0.1270   -0.7400    0.0590 c2        1 TCL     -0.019000
      2 C2          1.1650   -0.4120   -0.2450 c2        1 TCL     -0.148000
      3 C6         -0.6610   -0.3750    1.3520 c2        1 TCL      0.038000
      4 C5          0.1210    0.2790    2.2650 c2        1 TCL     -0.069000
      5 C4          1.5210    0.6520    1.9610 c3        1 TCL     -0.192000
      6 C3          2.0280    0.2880    0.6490 c1        1 TCL     -0.051000
      7 C11        -1.7740    3.9810    6.3990 c1        1 TCL     -0.145000
      8 C10        -1.7450    2.9700    5.7600 c1        1 TCL     -0.163000
      9 C9         -1.7220    1.7460    5.0220 c3        1 TCL      0.125000
     10 C8         -0.8110    1.7910    3.8300 c2        1 TCL      0.055000
     11 C12        -0.1240    3.9420    2.5330 c2        1 TCL     -0.101000
     12 C13        -0.4460    2.8630    3.1740 c1        1 TCL     -0.220000
     13 O7         -0.3680    0.4900    3.5490 os        1 TCL     -0.172000
     14 Cl14        1.8050   -0.8380   -1.7610 cl        1 TCL      0.012000
     15 Cl16       -3.3660    1.3370    4.4690 cl        1 TCL     -0.098000
     16 O17        -1.9620   -0.7550    1.5650 oh        1 TCL     -0.241000
     17 H11        -0.8020   -1.2730   -0.6330 ha        1 TCL      0.169000
     18 H41         1.6490    1.7730    2.0750 hc        1 TCL      0.179000
     19 H31         2.2140    0.1880    2.7280 hc        1 TCL      0.179000
     20 H101       -1.4210    0.8880    5.6910 h1        1 TCL      0.156000
     21 H121       -0.7160    4.3220    1.6860 ha        1 TCL      0.139500
     22 H131        0.7620    4.5410    2.8000 ha        1 TCL      0.139500
     23 H171       -2.2300   -0.4280    2.4410 ho        1 TCL      0.241000
     24 Cl15       -1.8080    5.3240    7.2540 cl        1 TCL      0.185000
@<TRIPOS>BOND
     1    1    2 1   
     2    1    3 1   
     3    1   17 1   
     4    2    6 1   
     5    2   14 1   
     6    3    4 1   
     7    3   16 1   
     8    4    5 1   
     9    4   13 1   
    10    5    6 1   
    11    5   18 1   
    12    5   19 1   
    13    7    8 1   
    14    7   24 1   
    15    8    9 1   
    16    9   10 1   
    17    9   15 1   
    18    9   20 1   
    19   10   12 1   
    20   10   13 1   
    21   11   12 1   
    22   11   21 1   
    23   11   22 1   
    24   16   23 1   
@<TRIPOS>SUBSTRUCTURE
     1 TCL         1 TEMP              0 ****  ****    0 ROOT
