@<TRIPOS>MOLECULE
TCM
   27    28     1     0     0
SMALL
bcc


@<TRIPOS>ATOM
      1 C1         -0.0100    0.0110    0.0050 c3        1 TCM     -0.109000
      2 C2          1.5200    0.0080   -0.0170 c         1 TCM      0.245400
      3 C3          1.9290    0.0270    1.4440 c3        1 TCM     -0.140400
      4 C4          0.5880    0.0630    2.2060 c3        1 TCM     -0.070700
      5 C5          0.0050    1.4680    1.9610 c3        1 TCM     -0.083400
      6 C6         -0.3860    1.4440    0.4740 c3        1 TCM     -0.072400
      7 C7         -0.3100   -0.8360    1.2970 c3        1 TCM     -0.050000
      8 C8          0.1690   -2.2690    1.2080 c3        1 TCM     -0.083100
      9 C9         -1.7680   -0.8510    1.6980 c3        1 TCM     -0.083100
     10 C10        -0.6890   -0.4290   -1.2510 c3        1 TCM     -0.074100
     11 S2          2.4540    0.0100   -1.2250 s         1 TCM     -0.275400
     12 H31         2.5170   -0.8870    1.7050 hc        1 TCM      0.074200
     13 H32         2.5610    0.9200    1.6740 hc        1 TCM      0.074200
     14 H4          0.6490   -0.2400    3.2670 hc        1 TCM      0.074700
     15 H51         0.7600    2.2620    2.1730 hc        1 TCM      0.047700
     16 H52        -0.8810    1.6540    2.6150 hc        1 TCM      0.047700
     17 H61        -1.4800    1.6170    0.3330 hc        1 TCM      0.052700
     18 H62         0.1660    2.2150   -0.1130 hc        1 TCM      0.052700
     19 H81         0.2090   -2.7170    2.2310 hc        1 TCM      0.039033
     20 H82         1.1830   -2.3470    0.7490 hc        1 TCM      0.039033
     21 H83        -0.5360   -2.8700    0.5830 hc        1 TCM      0.039033
     22 H91        -2.1900    0.1750    1.8080 hc        1 TCM      0.039033
     23 H92        -1.8830   -1.3840    2.6740 hc        1 TCM      0.039033
     24 H93        -2.3680   -1.3910    0.9240 hc        1 TCM      0.039033
     25 H101       -1.7960   -0.3040   -1.1530 hc        1 TCM      0.047033
     26 H102       -0.3320    0.1760   -2.1200 hc        1 TCM      0.047033
     27 H103       -0.4700   -1.5060   -1.4550 hc        1 TCM      0.047033
@<TRIPOS>BOND
     1    1    2 1   
     2    1    6 1   
     3    1    7 1   
     4    1   10 1   
     5    2    3 1   
     6    2   11 2   
     7    3    4 1   
     8    3   12 1   
     9    3   13 1   
    10    4    5 1   
    11    4    7 1   
    12    4   14 1   
    13    5    6 1   
    14    5   15 1   
    15    5   16 1   
    16    6   17 1   
    17    6   18 1   
    18    7    8 1   
    19    7    9 1   
    20    8   19 1   
    21    8   20 1   
    22    8   21 1   
    23    9   22 1   
    24    9   23 1   
    25    9   24 1   
    26   10   25 1   
    27   10   26 1   
    28   10   27 1   
@<TRIPOS>SUBSTRUCTURE
     1 TCM         1 TEMP              0 ****  ****    0 ROOT
