@<TRIPOS>MOLECULE
TCM
   27    28     1     0     0
SMALL
bcc


@<TRIPOS>ATOM
      1 C1         -0.4750    0.5580    0.0450 c3        1 TCM     -0.109000
      2 C2          0.2840   -0.1380   -1.0870 c         1 TCM      0.245400
      3 C3          1.3870   -0.9150   -0.3930 c3        1 TCM     -0.140400
      4 C4          1.1920   -0.5860    1.1010 c3        1 TCM     -0.070700
      5 C5          1.6120    0.8870    1.2640 c3        1 TCM     -0.083400
      6 C6          0.4990    1.6630    0.5400 c3        1 TCM     -0.072400
      7 C7         -0.3660   -0.5040    1.2010 c3        1 TCM     -0.050000
      8 C8         -1.0570   -1.8130    0.8890 c3        1 TCM     -0.083100
      9 C9         -0.8690   -0.0120    2.5380 c3        1 TCM     -0.083100
     10 C10        -1.8500    1.0450   -0.2830 c3        1 TCM     -0.074100
     11 S2          0.0260   -0.0660   -2.5910 s         1 TCM     -0.275400
     12 H31         2.3940   -0.5990   -0.7600 hc        1 TCM      0.074200
     13 H32         1.2800   -2.0120   -0.5830 hc        1 TCM      0.074200
     14 H4          1.6790   -1.2920    1.7990 hc        1 TCM      0.074700
     15 H51         1.6750    1.1700    2.3410 hc        1 TCM      0.047700
     16 H52         2.6110    1.0770    0.8020 hc        1 TCM      0.047700
     17 H61        -0.0330    2.3600    1.2310 hc        1 TCM      0.052700
     18 H62         0.8970    2.2590   -0.3150 hc        1 TCM      0.052700
     19 H81        -0.6930   -2.6070    1.5860 hc        1 TCM      0.039033
     20 H82        -2.1620   -1.7040    1.0220 hc        1 TCM      0.039033
     21 H83        -0.8710   -2.1500   -0.1580 hc        1 TCM      0.039033
     22 H91        -0.6650   -0.7820    3.3220 hc        1 TCM      0.039033
     23 H92        -0.3850    0.9420    2.8520 hc        1 TCM      0.039033
     24 H93        -1.9730    0.1600    2.4870 hc        1 TCM      0.039033
     25 H101       -1.8240    1.7140   -1.1770 hc        1 TCM      0.047033
     26 H102       -2.5250    0.1820   -0.5050 hc        1 TCM      0.047033
     27 H103       -2.2720    1.6120    0.5830 hc        1 TCM      0.047033
@<TRIPOS>BOND
     1    1    2 1   
     2    1    6 1   
     3    1    7 1   
     4    1   10 1   
     5    2    3 1   
     6    2   11 2   
     7    3    4 1   
     8    3   12 1   
     9    3   13 1   
    10    4    5 1   
    11    4    7 1   
    12    4   14 1   
    13    5    6 1   
    14    5   15 1   
    15    5   16 1   
    16    6   17 1   
    17    6   18 1   
    18    7    8 1   
    19    7    9 1   
    20    8   19 1   
    21    8   20 1   
    22    8   21 1   
    23    9   22 1   
    24    9   23 1   
    25    9   24 1   
    26   10   25 1   
    27   10   26 1   
    28   10   27 1   
@<TRIPOS>SUBSTRUCTURE
     1 TCM         1 TEMP              0 ****  ****    0 ROOT
