@<TRIPOS>MOLECULE
TCM
   27    28     1     0     0
SMALL
bcc


@<TRIPOS>ATOM
      1 C1         -0.0080    0.0120    0.0050 c3        1 TCM     -0.109000
      2 C2          1.5220    0.0060   -0.0150 c         1 TCM      0.245400
      3 C3          1.9280    0.0230    1.4470 c3        1 TCM     -0.140400
      4 C4          0.5870    0.0610    2.2070 c3        1 TCM     -0.070700
      5 C5          0.0060    1.4670    1.9630 c3        1 TCM     -0.083400
      6 C6         -0.3830    1.4450    0.4750 c3        1 TCM     -0.072400
      7 C7         -0.3120   -0.8360    1.2960 c3        1 TCM     -0.050000
      8 C8          0.1650   -2.2690    1.2070 c3        1 TCM     -0.083100
      9 C9         -1.7700   -0.8490    1.6950 c3        1 TCM     -0.083100
     10 C10        -0.6870   -0.4260   -1.2520 c3        1 TCM     -0.074100
     11 S2          2.4580    0.0080   -1.2220 s         1 TCM     -0.275400
     12 H31         2.5150   -0.8930    1.7080 hc        1 TCM      0.074200
     13 H32         2.5620    0.9140    1.6780 hc        1 TCM      0.074200
     14 H4          0.6460   -0.2430    3.2680 hc        1 TCM      0.074700
     15 H51         0.7620    2.2600    2.1760 hc        1 TCM      0.047700
     16 H52        -0.8800    1.6540    2.6150 hc        1 TCM      0.047700
     17 H61        -1.4760    1.6200    0.3330 hc        1 TCM      0.052700
     18 H62         0.1710    2.2160   -0.1100 hc        1 TCM      0.052700
     19 H81         0.2040   -2.7180    2.2290 hc        1 TCM      0.039033
     20 H82         1.1790   -2.3490    0.7480 hc        1 TCM      0.039033
     21 H83        -0.5410   -2.8690    0.5810 hc        1 TCM      0.039033
     22 H91        -2.1910    0.1770    1.8060 hc        1 TCM      0.039033
     23 H92        -1.8870   -1.3830    2.6690 hc        1 TCM      0.039033
     24 H93        -2.3700   -1.3870    0.9190 hc        1 TCM      0.039033
     25 H101       -1.7930   -0.2970   -1.1560 hc        1 TCM      0.047033
     26 H102       -0.3260    0.1780   -2.1210 hc        1 TCM      0.047033
     27 H103       -0.4710   -1.5040   -1.4560 hc        1 TCM      0.047033
@<TRIPOS>BOND
     1    1    2 1   
     2    1    6 1   
     3    1    7 1   
     4    1   10 1   
     5    2    3 1   
     6    2   11 2   
     7    3    4 1   
     8    3   12 1   
     9    3   13 1   
    10    4    5 1   
    11    4    7 1   
    12    4   14 1   
    13    5    6 1   
    14    5   15 1   
    15    5   16 1   
    16    6   17 1   
    17    6   18 1   
    18    7    8 1   
    19    7    9 1   
    20    8   19 1   
    21    8   20 1   
    22    8   21 1   
    23    9   22 1   
    24    9   23 1   
    25    9   24 1   
    26   10   25 1   
    27   10   26 1   
    28   10   27 1   
@<TRIPOS>SUBSTRUCTURE
     1 TCM         1 TEMP              0 ****  ****    0 ROOT
