@<TRIPOS>MOLECULE
TCO
   41    41     1     0     0
SMALL
bcc


@<TRIPOS>ATOM
      1 N          -0.1560    0.0620   -0.1140 n4        1 TCO     -0.645800
      2 CA          1.3490    0.1020   -0.0520 c3        1 TCO     -0.010500
      3 C           1.8410    0.1080    1.3990 c         1 TCO      0.565900
      4 O           1.0950    0.3940    2.3300 o         1 TCO     -0.487100
      5 CG2         3.3910    1.4930   -0.5090 c3        1 TCO     -0.080900
      6 CD2         3.9850    2.6420   -1.3010 c3        1 TCO     -0.079400
      7 CE          3.7630    2.4710   -2.7880 c3        1 TCO     -0.085400
      8 CD1         2.2920    2.2970   -3.0980 c3        1 TCO     -0.079400
      9 CG1         1.7020    1.1370   -2.3190 c3        1 TCO     -0.080900
     10 CB          1.9070    1.3210   -0.8200 c3        1 TCO     -0.077700
     11 C1         -0.7170   -1.3320   -0.2300 c         1 TCO      0.634100
     12 O1         -0.0310   -2.2810   -0.5790 o         1 TCO     -0.437000
     13 O2         -2.0130   -1.3030    0.0890 os        1 TCO     -0.422900
     14 C4         -4.1680   -2.0730    0.5190 c3        1 TCO     -0.130433
     15 C3         -2.8000   -2.5770    0.0860 c3        1 TCO      0.202800
     16 C6         -2.1990   -3.5300    1.0950 c3        1 TCO     -0.130433
     17 C5         -2.8180   -3.1410   -1.3170 c3        1 TCO     -0.130433
     18 HN         -0.4850    0.6030   -0.9240 hn        1 TCO      0.478800
     19 HA          1.7380   -0.8440   -0.5480 hx        1 TCO      0.148700
     20 HC          2.9090   -0.1720    1.5120 h4        1 TCO      0.075200
     21 HG21        3.5310    1.7090    0.5840 hc        1 TCO      0.047950
     22 HG22        3.9380    0.5440   -0.7520 hc        1 TCO      0.047950
     23 HD21        3.5260    3.6070   -0.9590 hc        1 TCO      0.060700
     24 HD22        5.0850    2.6980   -1.0870 hc        1 TCO      0.060700
     25 HE1         4.1560    3.3710   -3.3300 hc        1 TCO      0.061700
     26 HE2         4.3360    1.5800   -3.1570 hc        1 TCO      0.061700
     27 HD11        1.7390    3.2400   -2.8460 hc        1 TCO      0.060700
     28 HD12        2.1570    2.1080   -4.1950 hc        1 TCO      0.060700
     29 HG11        0.6110    1.0630   -2.5670 hc        1 TCO      0.047950
     30 HG12        2.1920    0.1820   -2.6490 hc        1 TCO      0.047950
     31 HB          1.3720    2.2540   -0.4830 hc        1 TCO      0.074700
     32 H41        -4.1120   -1.6040    1.5300 hc        1 TCO      0.073367
     33 H42        -4.5590   -1.3220   -0.2080 hc        1 TCO      0.073367
     34 H43        -4.8670   -2.9440    0.5570 hc        1 TCO      0.073367
     35 H61        -1.1920   -3.8820    0.7620 hc        1 TCO      0.073367
     36 H62        -2.1060   -3.0390    2.0940 hc        1 TCO      0.073367
     37 H63        -2.8690   -4.4200    1.1970 hc        1 TCO      0.073367
     38 H51        -3.5160   -4.0140   -1.3470 hc        1 TCO      0.073367
     39 H52        -1.8020   -3.4910   -1.6220 hc        1 TCO      0.073367
     40 H53        -3.1770   -2.3740   -2.0460 hc        1 TCO      0.073367
     41 H2         -0.5400    0.4930    0.7440 hn        1 TCO      0.478800
@<TRIPOS>BOND
     1    1    2 1   
     2    1   11 1   
     3    1   18 1   
     4    1   41 1   
     5    2    3 1   
     6    2   10 1   
     7    2   19 1   
     8    3    4 2   
     9    3   20 1   
    10    5    6 1   
    11    5   10 1   
    12    5   21 1   
    13    5   22 1   
    14    6    7 1   
    15    6   23 1   
    16    6   24 1   
    17    7    8 1   
    18    7   25 1   
    19    7   26 1   
    20    8    9 1   
    21    8   27 1   
    22    8   28 1   
    23    9   10 1   
    24    9   29 1   
    25    9   30 1   
    26   10   31 1   
    27   11   12 2   
    28   11   13 1   
    29   13   15 1   
    30   14   15 1   
    31   14   32 1   
    32   14   33 1   
    33   14   34 1   
    34   15   16 1   
    35   15   17 1   
    36   16   35 1   
    37   16   36 1   
    38   16   37 1   
    39   17   38 1   
    40   17   39 1   
    41   17   40 1   
@<TRIPOS>SUBSTRUCTURE
     1 TCO         1 TEMP              0 ****  ****    0 ROOT
