@<TRIPOS>MOLECULE
TCO
   40    40     1     0     0
SMALL
bcc


@<TRIPOS>ATOM
      1 N          -0.1830   -0.5550    0.2460 n         1 TCO     -0.515900
      2 CA         -0.7970    0.0420   -0.9220 c3        1 TCO     -0.017300
      3 C          -2.2710   -0.3280   -1.0790 c         1 TCO      0.541900
      4 O          -2.7550   -1.3840   -0.6750 o         1 TCO     -0.520100
      5 CG2        -0.8100    0.1970   -3.4330 c3        1 TCO     -0.076400
      6 CD2        -0.0760   -0.1020   -4.7240 c3        1 TCO     -0.076900
      7 CE          1.3430    0.4270   -4.6930 c3        1 TCO     -0.079400
      8 CD1         2.0940   -0.1160   -3.4970 c3        1 TCO     -0.076900
      9 CG1         1.3670    0.1880   -2.2030 c3        1 TCO     -0.076400
     10 CB         -0.0570   -0.3480   -2.2260 c3        1 TCO     -0.057700
     11 C1         -0.0830    0.1950    1.4110 c         1 TCO      0.739100
     12 O1         -0.1470    1.4320    1.5080 o         1 TCO     -0.595000
     13 O2          0.1610   -0.5990    2.5040 os        1 TCO     -0.443900
     14 C4          0.7730   -1.1850    4.6700 c3        1 TCO     -0.114100
     15 C3          0.5110    0.0210    3.7700 c3        1 TCO      0.185800
     16 C6         -0.6540    0.8370    4.3040 c3        1 TCO     -0.114100
     17 C5          1.7680    0.8630    3.6310 c3        1 TCO     -0.114100
     18 HN         -0.3130   -1.5380    0.3540 hn        1 TCO      0.325500
     19 HA         -0.7360    1.1690   -0.8080 h1        1 TCO      0.105700
     20 HC         -2.8840    0.4430   -1.5970 h4        1 TCO      0.009200
     21 HG21       -1.8310   -0.2650   -3.4880 hc        1 TCO      0.046450
     22 HG22       -0.9410    1.3060   -3.3220 hc        1 TCO      0.046450
     23 HD21       -0.0570   -1.2100   -4.8930 hc        1 TCO      0.042450
     24 HD22       -0.6320    0.3610   -5.5800 hc        1 TCO      0.042450
     25 HE1         1.8730    0.1360   -5.6370 hc        1 TCO      0.041700
     26 HE2         1.3250    1.5480   -4.6480 hc        1 TCO      0.041700
     27 HD11        2.2170   -1.2260   -3.6050 hc        1 TCO      0.042450
     28 HD12        3.1200    0.3340   -3.4600 hc        1 TCO      0.042450
     29 HG11        1.3430    1.2980   -2.0380 hc        1 TCO      0.046450
     30 HG12        1.9330   -0.2680   -1.3490 hc        1 TCO      0.046450
     31 HB         -0.0210   -1.4700   -2.3040 hc        1 TCO      0.061700
     32 H41         1.0450   -0.8250    5.6900 hc        1 TCO      0.052367
     33 H42        -0.1400   -1.8230    4.7340 hc        1 TCO      0.052367
     34 H43         1.6100   -1.7980    4.2590 hc        1 TCO      0.052367
     35 H61        -1.5860    0.2230    4.2980 hc        1 TCO      0.052367
     36 H62        -0.4350    1.1550    5.3510 hc        1 TCO      0.052367
     37 H63        -0.8180    1.7450    3.6750 hc        1 TCO      0.052367
     38 H51         2.5770    0.2670    3.1460 hc        1 TCO      0.052367
     39 H52         1.5650    1.7690    3.0100 hc        1 TCO      0.052367
     40 H53         2.1110    1.1860    4.6430 hc        1 TCO      0.052367
@<TRIPOS>BOND
     1    1    2 1   
     2    1   11 1   
     3    1   18 1   
     4    2    3 1   
     5    2   10 1   
     6    2   19 1   
     7    3    4 2   
     8    3   20 1   
     9    5    6 1   
    10    5   10 1   
    11    5   21 1   
    12    5   22 1   
    13    6    7 1   
    14    6   23 1   
    15    6   24 1   
    16    7    8 1   
    17    7   25 1   
    18    7   26 1   
    19    8    9 1   
    20    8   27 1   
    21    8   28 1   
    22    9   10 1   
    23    9   29 1   
    24    9   30 1   
    25   10   31 1   
    26   11   12 2   
    27   11   13 1   
    28   13   15 1   
    29   14   15 1   
    30   14   32 1   
    31   14   33 1   
    32   14   34 1   
    33   15   16 1   
    34   15   17 1   
    35   16   35 1   
    36   16   36 1   
    37   16   37 1   
    38   17   38 1   
    39   17   39 1   
    40   17   40 1   
@<TRIPOS>SUBSTRUCTURE
     1 TCO         1 TEMP              0 ****  ****    0 ROOT
