@<TRIPOS>MOLECULE
TCO
   41    41     1     0     0
SMALL
bcc


@<TRIPOS>ATOM
      1 N          -0.1500    0.0610   -0.0990 n4        1 TCO     -0.645800
      2 CA          1.3550    0.1010   -0.0430 c3        1 TCO     -0.010500
      3 C           1.8520    0.1080    1.4060 c         1 TCO      0.565900
      4 O           1.1100    0.3950    2.3400 o         1 TCO     -0.487100
      5 CG2         3.3950    1.4900   -0.5100 c3        1 TCO     -0.080900
      6 CD2         3.9860    2.6380   -1.3060 c3        1 TCO     -0.079400
      7 CE          3.7570    2.4670   -2.7920 c3        1 TCO     -0.085400
      8 CD1         2.2850    2.2930   -3.0950 c3        1 TCO     -0.079400
      9 CG1         1.6980    1.1340   -2.3130 c3        1 TCO     -0.080900
     10 CB          1.9100    1.3190   -0.8150 c3        1 TCO     -0.077700
     11 C1         -0.7130   -1.3320   -0.2160 c         1 TCO      0.634100
     12 O1         -0.0240   -2.2850   -0.5530 o         1 TCO     -0.437000
     13 O2         -2.0120   -1.2990    0.0850 os        1 TCO     -0.422900
     14 C4         -4.1740   -2.0630    0.4910 c3        1 TCO     -0.130100
     15 C3         -2.8020   -2.5720    0.0790 c3        1 TCO      0.202800
     16 C6         -2.2160   -3.5210    1.1000 c3        1 TCO     -0.130100
     17 C5         -2.8030   -3.1430   -1.3220 c3        1 TCO     -0.130100
     18 HN         -0.4830    0.6040   -0.9060 hn        1 TCO      0.478800
     19 HA          1.7420   -0.8460   -0.5400 hx        1 TCO      0.148700
     20 HC          2.9210   -0.1720    1.5150 h4        1 TCO      0.075200
     21 HG21        3.5400    1.7070    0.5810 hc        1 TCO      0.047950
     22 HG22        3.9400    0.5410   -0.7560 hc        1 TCO      0.047950
     23 HD21        3.5290    3.6040   -0.9630 hc        1 TCO      0.060700
     24 HD22        5.0870    2.6940   -1.0970 hc        1 TCO      0.060700
     25 HE1         4.1480    3.3660   -3.3370 hc        1 TCO      0.061700
     26 HE2         4.3280    1.5750   -3.1630 hc        1 TCO      0.061700
     27 HD11        2.1440    2.1030   -4.1910 hc        1 TCO      0.060700
     28 HD12        1.7330    3.2360   -2.8420 hc        1 TCO      0.060700
     29 HG11        0.6060    1.0600   -2.5560 hc        1 TCO      0.047950
     30 HG12        2.1860    0.1790   -2.6440 hc        1 TCO      0.047950
     31 HB          1.3770    2.2520   -0.4760 hc        1 TCO      0.074700
     32 H41        -4.1320   -1.5890    1.5010 hc        1 TCO      0.073367
     33 H42        -4.5550   -1.3150   -0.2450 hc        1 TCO      0.073367
     34 H43        -4.8750   -2.9330    0.5240 hc        1 TCO      0.073367
     35 H61        -2.1350   -3.0260    2.0980 hc        1 TCO      0.073367
     36 H62        -2.8890   -4.4090    1.1970 hc        1 TCO      0.073367
     37 H63        -1.2060   -3.8770    0.7830 hc        1 TCO      0.073367
     38 H51        -3.1510   -2.3790   -2.0590 hc        1 TCO      0.073367
     39 H52        -3.5030   -4.0150   -1.3570 hc        1 TCO      0.073367
     40 H53        -1.7840   -3.4970   -1.6110 hc        1 TCO      0.073367
     41 H2         -0.5310    0.4900    0.7620 hn        1 TCO      0.478800
@<TRIPOS>BOND
     1    1    2 1   
     2    1   11 1   
     3    1   18 1   
     4    1   41 1   
     5    2    3 1   
     6    2   10 1   
     7    2   19 1   
     8    3    4 2   
     9    3   20 1   
    10    5    6 1   
    11    5   10 1   
    12    5   21 1   
    13    5   22 1   
    14    6    7 1   
    15    6   23 1   
    16    6   24 1   
    17    7    8 1   
    18    7   25 1   
    19    7   26 1   
    20    8    9 1   
    21    8   27 1   
    22    8   28 1   
    23    9   10 1   
    24    9   29 1   
    25    9   30 1   
    26   10   31 1   
    27   11   12 2   
    28   11   13 1   
    29   13   15 1   
    30   14   15 1   
    31   14   32 1   
    32   14   33 1   
    33   14   34 1   
    34   15   16 1   
    35   15   17 1   
    36   16   35 1   
    37   16   36 1   
    38   16   37 1   
    39   17   38 1   
    40   17   39 1   
    41   17   40 1   
@<TRIPOS>SUBSTRUCTURE
     1 TCO         1 TEMP              0 ****  ****    0 ROOT
