@<TRIPOS>MOLECULE
TCO
   41    41     1     0     0
SMALL
bcc


@<TRIPOS>ATOM
      1 N          -0.1490    0.0620   -0.1020 ny        1 TCO     -0.645800
      2 CA          1.3570    0.0910   -0.0490 c3        1 TCO     -0.010500
      3 C           1.8570    0.0880    1.3990 c         1 TCO      0.565900
      4 O           1.1190    0.3740    2.3360 o         1 TCO     -0.487100
      5 CG2         3.4060    1.4700   -0.5120 c3        1 TCO     -0.080900
      6 CD2         4.0020    2.6180   -1.3020 c3        1 TCO     -0.079400
      7 CE          3.7700    2.4570   -2.7880 c3        1 TCO     -0.085400
      8 CD1         2.2960    2.2940   -3.0900 c3        1 TCO     -0.079400
      9 CG1         1.7030    1.1350   -2.3130 c3        1 TCO     -0.080900
     10 CB          1.9190    1.3100   -0.8140 c3        1 TCO     -0.077700
     11 C1         -0.7210   -1.3270   -0.2240 c         1 TCO      0.634100
     12 O1         -0.0410   -2.2810   -0.5740 o         1 TCO     -0.437000
     13 O2         -2.0170   -1.2880    0.0900 os        1 TCO     -0.422900
     14 C4         -4.1800   -2.0420    0.5100 c3        1 TCO     -0.130433
     15 C3         -2.8150   -2.5560    0.0810 c3        1 TCO      0.202800
     16 C6         -2.2250   -3.5170    1.0890 c3        1 TCO     -0.130433
     17 C5         -2.8320   -3.1160   -1.3250 c3        1 TCO     -0.130433
     18 HN         -0.4790    0.6110   -0.9050 hn        1 TCO      0.478800
     19 HA          1.7360   -0.8550   -0.5510 hx        1 TCO      0.148700
     20 HC          2.9240   -0.2010    1.5050 h4        1 TCO      0.075200
     21 HG21        3.9440    0.5190   -0.7630 hc        1 TCO      0.047950
     22 HG22        3.5540    1.6800    0.5810 hc        1 TCO      0.047950
     23 HD21        3.5530    3.5860   -0.9530 hc        1 TCO      0.060700
     24 HD22        5.1040    2.6660   -1.0950 hc        1 TCO      0.060700
     25 HE1         4.3350    1.5630   -3.1650 hc        1 TCO      0.061700
     26 HE2         4.1660    3.3560   -3.3290 hc        1 TCO      0.061700
     27 HD11        1.7510    3.2400   -2.8310 hc        1 TCO      0.060700
     28 HD12        2.1520    2.1110   -4.1870 hc        1 TCO      0.060700
     29 HG11        0.6100    1.0690   -2.5550 hc        1 TCO      0.047950
     30 HG12        2.1840    0.1780   -2.6500 hc        1 TCO      0.047950
     31 HB          1.3920    2.2450   -0.4700 hc        1 TCO      0.074700
     32 H41        -4.1250   -1.5770    1.5230 hc        1 TCO      0.073367
     33 H42        -4.8860   -2.9080    0.5430 hc        1 TCO      0.073367
     34 H43        -4.5630   -1.2860   -0.2160 hc        1 TCO      0.073367
     35 H61        -2.1310   -3.0300    2.0900 hc        1 TCO      0.073367
     36 H62        -2.9030   -4.4020    1.1860 hc        1 TCO      0.073367
     37 H63        -1.2200   -3.8770    0.7590 hc        1 TCO      0.073367
     38 H51        -3.5370   -3.9830   -1.3600 hc        1 TCO      0.073367
     39 H52        -1.8170   -3.4730   -1.6260 hc        1 TCO      0.073367
     40 H53        -3.1820   -2.3440   -2.0520 hc        1 TCO      0.073367
     41 H2         -0.5250    0.4900    0.7620 hn        1 TCO      0.478800
@<TRIPOS>BOND
     1    1    2 1   
     2    1   11 1   
     3    1   18 1   
     4    1   41 1   
     5    2    3 1   
     6    2   10 1   
     7    2   19 1   
     8    3    4 2   
     9    3   20 1   
    10    5    6 1   
    11    5   10 1   
    12    5   21 1   
    13    5   22 1   
    14    6    7 1   
    15    6   23 1   
    16    6   24 1   
    17    7    8 1   
    18    7   25 1   
    19    7   26 1   
    20    8    9 1   
    21    8   27 1   
    22    8   28 1   
    23    9   10 1   
    24    9   29 1   
    25    9   30 1   
    26   10   31 1   
    27   11   12 2   
    28   11   13 1   
    29   13   15 1   
    30   14   15 1   
    31   14   32 1   
    32   14   33 1   
    33   14   34 1   
    34   15   16 1   
    35   15   17 1   
    36   16   35 1   
    37   16   36 1   
    38   16   37 1   
    39   17   38 1   
    40   17   39 1   
    41   17   40 1   
@<TRIPOS>SUBSTRUCTURE
     1 TCO         1 TEMP              0 ****  ****    0 ROOT
