@<TRIPOS>MOLECULE
TCP
   34    35     1     0     0
SMALL
bcc


@<TRIPOS>ATOM
      1 CP          2.8560   -0.1810   -3.3280 c3        1 TCP      0.116700
      2 O5'         1.5630   -0.7420   -3.1780 os        1 TCP     -0.415600
      3 C5'         0.6130    0.2040   -2.6930 c3        1 TCP      0.114400
      4 C4'        -0.6890   -0.5590   -2.4650 c3        1 TCP      0.140100
      5 O4'        -0.5990   -1.3400   -1.2650 os        1 TCP     -0.410600
      6 C3'        -1.8810    0.4090   -2.3080 c3        1 TCP      0.119100
      7 O3'        -2.7930    0.1230   -3.3540 oh        1 TCP     -0.590800
      8 C2'        -2.4840    0.1030   -0.9310 c3        1 TCP     -0.137400
      9 C1'        -1.4790   -0.8440   -0.2500 c3        1 TCP      0.311500
     10 N1         -0.7240   -0.2750    0.8700 n         1 TCP     -0.381000
     11 C2         -0.1870    1.0390    0.8210 c         1 TCP      0.810500
     12 O2         -0.4430    1.8320   -0.1130 o         1 TCP     -0.663500
     13 N3          0.6270    1.4710    1.8790 n         1 TCP     -0.586500
     14 C4          1.0170    0.6400    2.9430 c         1 TCP      0.715700
     15 O4          1.7420    1.1120    3.8330 o         1 TCP     -0.606500
     16 C5          0.5170   -0.7460    2.8960 cc        1 TCP     -0.249400
     17 C5M         0.9410   -1.6530    3.9790 c3        1 TCP     -0.031900
     18 C6         -0.2910   -1.1380    1.8730 cd        1 TCP      0.040600
     19 HP1         3.2480    0.1780   -2.3440 h1        1 TCP      0.033367
     20 HP2         3.4810   -1.0240   -3.7150 h1        1 TCP      0.033367
     21 HP3         2.8380    0.6630   -4.0610 h1        1 TCP      0.033367
     22 H5'         0.9730    0.6690   -1.7370 h1        1 TCP      0.044200
     23 H5''        0.4580    1.0030   -3.4670 h1        1 TCP      0.044200
     24 H4'        -0.8610   -1.3010   -3.2930 h1        1 TCP      0.108700
     25 H3'        -1.5450    1.4800   -2.3590 h1        1 TCP      0.075700
     26 HO3'       -3.4760    0.8030   -3.3200 ho        1 TCP      0.406000
     27 H2'        -3.4610   -0.4310   -1.0450 hc        1 TCP      0.080200
     28 H2''       -2.6550    1.0420   -0.3510 hc        1 TCP      0.080200
     29 H1'        -2.0020   -1.7640    0.1560 h2        1 TCP      0.086700
     30 HN3         0.9570    2.4120    1.8400 hn        1 TCP      0.351500
     31 H71         0.7460   -1.1770    4.9740 hc        1 TCP      0.052700
     32 H72         0.3970   -2.6280    3.9300 hc        1 TCP      0.052700
     33 H73         2.0410   -1.8500    3.9040 hc        1 TCP      0.052700
     34 H6         -0.6620   -2.1790    1.8000 h4        1 TCP      0.167000
@<TRIPOS>BOND
     1    1    2 1   
     2    1   19 1   
     3    1   20 1   
     4    1   21 1   
     5    2    3 1   
     6    3    4 1   
     7    3   22 1   
     8    3   23 1   
     9    4    5 1   
    10    4    6 1   
    11    4   24 1   
    12    5    9 1   
    13    6    7 1   
    14    6    8 1   
    15    6   25 1   
    16    7   26 1   
    17    8    9 1   
    18    8   27 1   
    19    8   28 1   
    20    9   10 1   
    21    9   29 1   
    22   10   11 1   
    23   10   18 1   
    24   11   12 2   
    25   11   13 1   
    26   13   14 1   
    27   13   30 1   
    28   14   15 2   
    29   14   16 1   
    30   16   17 1   
    31   16   18 2   
    32   17   31 1   
    33   17   32 1   
    34   17   33 1   
    35   18   34 1   
@<TRIPOS>SUBSTRUCTURE
     1 TCP         1 TEMP              0 ****  ****    0 ROOT
