@<TRIPOS>MOLECULE
TCQ
   42    44     1     0     0
SMALL
bcc


@<TRIPOS>ATOM
      1 N          -2.9970   -1.6500    1.2480 n3        1 TCQ     -0.902800
      2 CA         -2.5600   -1.5840   -0.1300 c3        1 TCQ      0.061500
      3 C          -1.0210   -1.4990   -0.3220 c         1 TCQ      0.866600
      4 O          -0.2980   -1.1140    0.6520 o         1 TCQ     -0.843300
      5 CB         -3.1960   -0.3700   -0.8710 c3        1 TCQ     -0.052100
      6 C1         -2.5410    0.8890   -0.4450 ca        1 TCQ      0.015700
      7 C2         -3.2700    1.8280    0.4490 ca        1 TCQ      0.548700
      8 O2         -4.4700    1.7200    0.7100 o         1 TCQ     -0.482700
      9 C3         -2.4820    2.9660    0.9700 ca        1 TCQ     -0.233000
     10 C4         -1.1680    3.1080    0.7010 ca        1 TCQ      0.089100
     11 O4         -0.3830    4.1490    1.1330 oh        1 TCQ     -0.508100
     12 C5         -0.4350    2.0870   -0.0950 ca        1 TCQ      0.331600
     13 N5          0.8870    1.9960   -0.0520 nh        1 TCQ     -0.528600
     14 C7          1.6280    0.9050   -0.6250 cx        1 TCQ      0.068500
     15 C9          2.5960    1.1090   -1.7710 cx        1 TCQ     -0.112400
     16 C8          3.1300    0.8170   -0.3910 cx        1 TCQ     -0.042400
     17 C10         3.7500   -0.4750   -0.0620 ca        1 TCQ     -0.091300
     18 C11         3.0010   -1.5780    0.3640 ca        1 TCQ     -0.112000
     19 C12         3.6480   -2.7750    0.6760 ca        1 TCQ     -0.132500
     20 C13         5.0330   -2.8810    0.5680 ca        1 TCQ     -0.123000
     21 C14         5.7820   -1.7810    0.1460 ca        1 TCQ     -0.132500
     22 C15         5.1450   -0.5830   -0.1650 ca        1 TCQ     -0.112000
     23 C6         -1.2600    1.1420   -0.8180 ca        1 TCQ     -0.211000
     24 OXT        -0.5340   -1.7190   -1.4660 o         1 TCQ     -0.843300
     25 H          -2.9980   -2.6040    1.5540 hn        1 TCQ      0.353300
     26 H2         -2.3540   -1.1400    1.8280 hn        1 TCQ      0.353300
     27 HA         -2.9250   -2.5010   -0.6780 h1        1 TCQ      0.071700
     28 HB2        -3.0200   -0.5410   -1.9680 hc        1 TCQ      0.085200
     29 HB3        -4.2980   -0.3310   -0.6720 hc        1 TCQ      0.085200
     30 H3         -3.0330    3.6940    1.5890 ha        1 TCQ      0.173000
     31 HO4        -0.9220    4.7350    1.6880 ho        1 TCQ      0.453000
     32 HN5         1.4040    2.6680    0.4890 hn        1 TCQ      0.466800
     33 H7          1.0270   -0.0590   -0.5930 h1        1 TCQ      0.222700
     34 H92         2.6170    0.3180   -2.5450 hc        1 TCQ      0.094700
     35 H91         2.7590    2.1160   -2.1940 hc        1 TCQ      0.094700
     36 H8          3.6290    1.6610    0.1350 hc        1 TCQ      0.079700
     37 H11         1.8960   -1.5230    0.4570 ha        1 TCQ      0.160000
     38 H12         3.0510   -3.6390    1.0060 ha        1 TCQ      0.135500
     39 H13         5.5360   -3.8270    0.8120 ha        1 TCQ      0.130000
     40 H14         6.8750   -1.8600    0.0590 ha        1 TCQ      0.135500
     41 H15         5.7370    0.2820   -0.4960 ha        1 TCQ      0.160000
     42 H6         -0.7730    0.5000   -1.5860 ha        1 TCQ      0.227000
@<TRIPOS>BOND
     1    1    2 1   
     2    1   25 1   
     3    1   26 1   
     4    2    3 1   
     5    2    5 1   
     6    2   27 1   
     7    3    4 1   
     8    3   24 1   
     9    5    6 1   
    10    5   28 1   
    11    5   29 1   
    12    6    7 ar  
    13    6   23 ar  
    14    7    8 1   
    15    7    9 ar  
    16    9   10 ar  
    17    9   30 1   
    18   10   11 1   
    19   10   12 ar  
    20   11   31 1   
    21   12   13 1   
    22   12   23 ar  
    23   13   14 1   
    24   13   32 1   
    25   14   15 1   
    26   14   16 1   
    27   14   33 1   
    28   15   16 1   
    29   15   34 1   
    30   15   35 1   
    31   16   17 1   
    32   16   36 1   
    33   17   18 ar  
    34   17   22 ar  
    35   18   19 ar  
    36   18   37 1   
    37   19   20 ar  
    38   19   38 1   
    39   20   21 ar  
    40   20   39 1   
    41   21   22 ar  
    42   21   40 1   
    43   22   41 1   
    44   23   42 1   
@<TRIPOS>SUBSTRUCTURE
     1 TCQ         1 TEMP              0 ****  ****    0 ROOT
