@<TRIPOS>MOLECULE
TCR
   27    23     1     0     0
SMALL
bcc


@<TRIPOS>ATOM
      1 N          -1.0950    0.9700   -2.5470 n3        1 TCR     -0.264000
      2 CA          0.3430    1.0540   -2.5010 c3        1 TCR     -0.125000
      3 CB          0.8690    1.1280   -1.1120 c3        1 TCR     -0.081000
      4 CG          0.1080    0.3120   -0.0240 c2        1 TCR     -0.107000
      5 CD2         0.3480    0.0300    1.3070 c1        1 TCR     -0.055000
      6 CE2        -0.7030   -0.7620    1.7750 c1        1 TCR     -0.014000
      7 CE3         1.4040    0.3630    2.1590 c1        1 TCR     -0.085000
      8 CD1        -1.1200   -0.3180   -0.3930 c1        1 TCR     -0.032000
      9 NE1        -1.6070   -0.9680    0.7060 n1        1 TCR     -0.207000
     10 CZ2        -0.6980   -1.2200    3.0970 c1        1 TCR     -0.153000
     11 CZ3         1.4090   -0.0930    3.4750 c1        1 TCR     -0.153500
     12 CH2         0.3540   -0.8870    3.9450 c1        1 TCR     -0.153500
     13 C9         -1.7120   -0.0080   -1.8150 c2        1 TCR     -0.028000
     14 C           1.0250   -0.1400   -3.3200 c2        1 TCR      0.313000
     15 OXT         1.3690   -1.1950   -2.7240 o         1 TCR     -0.575000
     16 O1          1.3040    0.0130   -4.5390 o         1 TCR     -0.575000
     17 HN         -1.3690    0.9180   -3.4190 hn        1 TCR      0.159000
     18 HA          0.6500    1.8290   -3.0160 h1        1 TCR      0.084000
     19 HB1         1.7990    0.8170   -1.1260 hc        1 TCR      0.094500
     20 HB2         0.8670    2.0680   -0.8390 hc        1 TCR      0.094500
     21 HE3         2.1410    0.9100    1.8310 ha        1 TCR      0.134000
     22 HNE        -2.4010   -1.4210    0.7540 DU        1 TCR      0.225000
     23 HZ2        -1.4340   -1.7740    3.4250 ha        1 TCR      0.117000
     24 HZ3         2.1450    0.1400    4.0680 ha        1 TCR      0.111500
     25 HH2         0.3460   -1.1850    4.8730 ha        1 TCR      0.111500
     26 H91        -2.6540    0.2520   -1.7000 h4        1 TCR      0.081500
     27 H92        -1.6880   -0.8350   -2.3380 h4        1 TCR      0.081500
@<TRIPOS>BOND
     1    1    2 1   
     2    1   13 1   
     3    1   17 1   
     4    2    3 1   
     5    2   14 1   
     6    2   18 1   
     7    3    4 1   
     8    3   19 1   
     9    3   20 1   
    10    4    5 1   
    11    4    8 1   
    12    5    7 1   
    13    6   10 1   
    14    7   21 1   
    15    8    9 1   
    16   10   23 1   
    17   11   12 1   
    18   11   24 1   
    19   12   25 1   
    20   13   26 1   
    21   13   27 1   
    22   14   15 1   
    23   14   16 1   
@<TRIPOS>SUBSTRUCTURE
     1 TCR         1 TEMP              0 ****  ****    0 ROOT
