@<TRIPOS>MOLECULE
TCR
   27    29     1     0     0
SMALL
bcc


@<TRIPOS>ATOM
      1 N          -2.1110    1.3900    0.3600 n3        1 TCR     -0.803200
      2 CA         -2.1890    0.0800   -0.2810 c3        1 TCR      0.040500
      3 CB         -1.0120   -0.8260    0.1170 c3        1 TCR      0.000800
      4 CG          0.2510   -0.0750    0.0220 cc        1 TCR     -0.091400
      5 CD2         1.6280   -0.5190    0.0050 ca        1 TCR     -0.074800
      6 CE2         2.4420    0.6800   -0.0810 ca        1 TCR     -0.058200
      7 CE3         2.2510   -1.7640    0.0510 ca        1 TCR     -0.081000
      8 CD1         0.2720    1.3200   -0.0570 cd        1 TCR     -0.088300
      9 NE1         1.5930    1.7930   -0.1910 na        1 TCR     -0.184400
     10 CZ2         3.8400    0.5990   -0.1070 ca        1 TCR     -0.155000
     11 CZ3         3.6390   -1.8260    0.0250 ca        1 TCR     -0.173000
     12 CH2         4.4190   -0.6620   -0.0500 ca        1 TCR     -0.131000
     13 C9         -0.9600    2.1680   -0.0620 c3        1 TCR      0.233000
     14 C          -3.5630   -0.6140    0.0080 c         1 TCR      0.927600
     15 OXT        -3.5520   -1.8250    0.3510 o         1 TCR     -0.836300
     16 O1         -4.5980    0.0850   -0.1760 o         1 TCR     -0.836300
     17 HN         -2.9650    1.8900    0.1870 hn        1 TCR      0.386800
     18 HA         -2.1470    0.1960   -1.4090 h1        1 TCR      0.001700
     19 HB1        -1.1700   -1.2010    1.1630 hc        1 TCR      0.065700
     20 HB2        -1.0100   -1.7200   -0.5580 hc        1 TCR      0.065700
     21 HE3         1.6430   -2.6780    0.1060 ha        1 TCR      0.138000
     22 HNE         1.8660    2.7030    0.0730 hn        1 TCR      0.273700
     23 HZ2         4.4580    1.5030   -0.1720 ha        1 TCR      0.117000
     24 HZ3         4.1410   -2.8030    0.0650 ha        1 TCR      0.115000
     25 HH2         5.5150   -0.7510   -0.0640 ha        1 TCR      0.112000
     26 H91        -1.0710    2.6150   -1.0980 h1        1 TCR      0.016700
     27 H92        -0.8440    3.0260    0.6600 h1        1 TCR      0.016700
@<TRIPOS>BOND
     1    1    2 1   
     2    1   13 1   
     3    1   17 1   
     4    2    3 1   
     5    2   14 1   
     6    2   18 1   
     7    3    4 1   
     8    3   19 1   
     9    3   20 1   
    10    4    5 1   
    11    4    8 2   
    12    5    6 ar  
    13    5    7 ar  
    14    6    9 1   
    15    6   10 ar  
    16    7   11 ar  
    17    7   21 1   
    18    8    9 1   
    19    8   13 1   
    20    9   22 1   
    21   10   12 ar  
    22   10   23 1   
    23   11   12 ar  
    24   11   24 1   
    25   12   25 1   
    26   13   26 1   
    27   13   27 1   
    28   14   15 1   
    29   14   16 1   
@<TRIPOS>SUBSTRUCTURE
     1 TCR         1 TEMP              0 ****  ****    0 ROOT
