@<TRIPOS>MOLECULE
TCT
   31    33     1     0     0
SMALL
bcc


@<TRIPOS>ATOM
      1 C16         0.0170    0.4330    0.2850 ca        1 TCT     -0.104000
      2 C15         1.3410    0.7130    0.5060 ca        1 TCT     -0.148000
      3 C14         1.8520    0.6630    1.8310 ca        1 TCT      0.088100
      4 C13         1.0460    0.3430    2.9050 ca        1 TCT     -0.123000
      5 C12        -0.3240    0.0440    2.6820 ca        1 TCT     -0.050000
      6 C11        -0.8480    0.0930    1.3630 ca        1 TCT     -0.018000
      7 C10        -2.2170   -0.1990    1.1400 ca        1 TCT     -0.154000
      8 C9         -3.0260   -0.5290    2.2120 ca        1 TCT      0.118100
      9 O3         -4.3490   -0.8010    1.9410 oh        1 TCT     -0.497100
     10 C8         -2.5100   -0.5820    3.5370 ca        1 TCT     -0.188000
     11 C7         -1.1860   -0.3000    3.7590 ca        1 TCT     -0.082000
     12 O2          3.2100    0.8330    2.1040 os        1 TCT     -0.225200
     13 C3          3.8570    1.8220    1.3740 ca        1 TCT      0.078100
     14 C4          3.2790    3.0590    1.0800 ca        1 TCT     -0.133000
     15 C5          4.0250    4.0450    0.4370 ca        1 TCT     -0.137000
     16 C6          5.3550    3.7930    0.0930 ca        1 TCT      0.036400
     17 CL1         6.2670    4.9960   -0.6870 cl        1 TCT     -0.087400
     18 C1          5.9520    2.5620    0.3780 ca        1 TCT     -0.197000
     19 C2          5.2010    1.5670    1.0150 ca        1 TCT      0.125100
     20 O1          5.7110    0.3300    1.3210 oh        1 TCT     -0.470100
     21 H16C       -0.3990    0.4630   -0.7340 ha        1 TCT      0.140000
     22 H15C        2.0210    0.9720   -0.3190 ha        1 TCT      0.149000
     23 H13C        1.4590    0.3000    3.9240 ha        1 TCT      0.152000
     24 H10C       -2.6290   -0.1630    0.1220 ha        1 TCT      0.152000
     25 HO3        -4.7850   -1.0220    2.7770 ho        1 TCT      0.419000
     26 HC8        -3.1800   -0.8490    4.3670 ha        1 TCT      0.135000
     27 HC7        -0.7690   -0.3380    4.7770 ha        1 TCT      0.138000
     28 HC4         2.2290    3.2450    1.3570 ha        1 TCT      0.157000
     29 HC5         3.5640    5.0180    0.2080 ha        1 TCT      0.153000
     30 HC1         7.0000    2.3690    0.1040 ha        1 TCT      0.152000
     31 HO1         6.6480    0.3260    1.0710 ho        1 TCT      0.420000
@<TRIPOS>BOND
     1    1    2 ar  
     2    1    6 ar  
     3    1   21 1   
     4    2    3 ar  
     5    2   22 1   
     6    3    4 ar  
     7    3   12 1   
     8    4    5 ar  
     9    4   23 1   
    10    5    6 ar  
    11    5   11 ar  
    12    6    7 ar  
    13    7    8 ar  
    14    7   24 1   
    15    8    9 1   
    16    8   10 ar  
    17    9   25 1   
    18   10   11 ar  
    19   10   26 1   
    20   11   27 1   
    21   12   13 1   
    22   13   14 ar  
    23   13   19 ar  
    24   14   15 ar  
    25   14   28 1   
    26   15   16 ar  
    27   15   29 1   
    28   16   17 1   
    29   16   18 ar  
    30   18   19 ar  
    31   18   30 1   
    32   19   20 1   
    33   20   31 1   
@<TRIPOS>SUBSTRUCTURE
     1 TCT         1 TEMP              0 ****  ****    0 ROOT
