@<TRIPOS>MOLECULE
TCT
   31    33     1     0     0
SMALL
bcc


@<TRIPOS>ATOM
      1 C16        -0.0030    0.4690    0.2900 ca        1 TCT     -0.104000
      2 C15         1.3250    0.7400    0.4980 ca        1 TCT     -0.148000
      3 C14         1.8560    0.6540    1.8140 ca        1 TCT      0.088100
      4 C13         1.0660    0.3070    2.8920 ca        1 TCT     -0.123000
      5 C12        -0.3080    0.0180    2.6810 ca        1 TCT     -0.050000
      6 C11        -0.8520    0.1020    1.3730 ca        1 TCT     -0.018000
      7 C10        -2.2260   -0.1800    1.1630 ca        1 TCT     -0.154000
      8 C9         -3.0190   -0.5360    2.2390 ca        1 TCT      0.118100
      9 O3         -4.3470   -0.7990    1.9810 oh        1 TCT     -0.497100
     10 C8         -2.4830   -0.6250    3.5540 ca        1 TCT     -0.188000
     11 C7         -1.1550   -0.3530    3.7620 ca        1 TCT     -0.082000
     12 O2          3.2180    0.8140    2.0700 os        1 TCT     -0.225200
     13 C3          3.8560    1.8200    1.3560 ca        1 TCT      0.078100
     14 C4          3.2770    3.0660    1.1030 ca        1 TCT     -0.133000
     15 C5          4.0160    4.0660    0.4750 ca        1 TCT     -0.137000
     16 C6          5.3400    3.8200    0.1040 ca        1 TCT      0.036400
     17 Cl1         6.2430    5.0410   -0.6580 cl        1 TCT     -0.087400
     18 C1          5.9380    2.5810    0.3480 ca        1 TCT     -0.197000
     19 C2          5.1940    1.5710    0.9700 ca        1 TCT      0.125100
     20 O1          5.7050    0.3250    1.2350 oh        1 TCT     -0.470100
     21 H16C       -0.4350    0.5260   -0.7210 ha        1 TCT      0.140000
     22 H15C        1.9920    1.0190   -0.3300 ha        1 TCT      0.149000
     23 H13C        1.4940    0.2380    3.9020 ha        1 TCT      0.152000
     24 H10C       -2.6530   -0.1170    0.1530 ha        1 TCT      0.152000
     25 HO3        -4.7700   -1.0410    2.8170 ho        1 TCT      0.419000
     26 HC8        -3.1410   -0.9120    4.3860 ha        1 TCT      0.135000
     27 HC7        -0.7230   -0.4180    4.7730 ha        1 TCT      0.138000
     28 HC4         2.2330    3.2470    1.4010 ha        1 TCT      0.157000
     29 HC5         3.5540    5.0460    0.2790 ha        1 TCT      0.153000
     30 HC1         6.9810    2.3930    0.0530 ha        1 TCT      0.152000
     31 HO1         6.6380    0.3260    0.9720 ho        1 TCT      0.420000
@<TRIPOS>BOND
     1    1    2 ar  
     2    1    6 ar  
     3    1   21 1   
     4    2    3 ar  
     5    2   22 1   
     6    3    4 ar  
     7    3   12 1   
     8    4    5 ar  
     9    4   23 1   
    10    5    6 ar  
    11    5   11 ar  
    12    6    7 ar  
    13    7    8 ar  
    14    7   24 1   
    15    8    9 1   
    16    8   10 ar  
    17    9   25 1   
    18   10   11 ar  
    19   10   26 1   
    20   11   27 1   
    21   12   13 1   
    22   13   14 ar  
    23   13   19 ar  
    24   14   15 ar  
    25   14   28 1   
    26   15   16 ar  
    27   15   29 1   
    28   16   17 1   
    29   16   18 ar  
    30   18   19 ar  
    31   18   30 1   
    32   19   20 1   
    33   20   31 1   
@<TRIPOS>SUBSTRUCTURE
     1 TCT         1 TEMP              0 ****  ****    0 ROOT
