@<TRIPOS>MOLECULE
TCT
   31    33     1     0     0
SMALL
bcc


@<TRIPOS>ATOM
      1 C16        -0.1090    1.4520    1.8200 ca        1 TCT     -0.101000
      2 C15        -0.4010    0.9570    0.5750 ca        1 TCT     -0.150000
      3 C14        -0.5910   -0.4410    0.4100 ca        1 TCT      0.088100
      4 C13        -0.4810   -1.3180    1.4700 ca        1 TCT     -0.124000
      5 C12        -0.1880   -0.8110    2.7630 ca        1 TCT     -0.050000
      6 C11         0.0030    0.5850    2.9430 ca        1 TCT     -0.018000
      7 C10         0.3020    1.0920    4.2330 ca        1 TCT     -0.154000
      8 C9          0.4030    0.2190    5.3010 ca        1 TCT      0.120100
      9 O3          0.6950    0.7630    6.5320 oh        1 TCT     -0.496100
     10 C8          0.2130   -1.1810    5.1300 ca        1 TCT     -0.187000
     11 C7         -0.0760   -1.6770    3.8850 ca        1 TCT     -0.083000
     12 O2         -0.9830   -0.9930   -0.8110 os        1 TCT     -0.262200
     13 C3         -0.4480   -0.3930   -1.9490 ca        1 TCT      0.011100
     14 C4          0.9150   -0.1290   -2.1030 ca        1 TCT     -0.112000
     15 C5          1.3860    0.3710   -3.3140 ca        1 TCT     -0.145000
     16 C6          0.4910    0.5990   -4.3670 ca        1 TCT      0.038400
     17 CL1         1.0750    1.2070   -5.8420 cl        1 TCT     -0.085400
     18 C1         -0.8730    0.3370   -4.2310 ca        1 TCT     -0.146000
     19 C2         -1.3490   -0.1600   -3.0090 ca        1 TCT      0.134100
     20 O1         -2.6930   -0.4160   -2.9160 oh        1 TCT     -0.488100
     21 H16C        0.0400    2.5320    1.9720 ha        1 TCT      0.142000
     22 H15C       -0.4900    1.6170   -0.3010 ha        1 TCT      0.150000
     23 H13C       -0.6310   -2.3980    1.3250 ha        1 TCT      0.151000
     24 H10C        0.4500    2.1710    4.3800 ha        1 TCT      0.153000
     25 HO3         0.7300    0.0410    7.1760 ho        1 TCT      0.420000
     26 HC8         0.3010   -1.8470    6.0000 ha        1 TCT      0.136000
     27 HC7        -0.2260   -2.7580    3.7340 ha        1 TCT      0.139000
     28 HC4         1.6040   -0.3130   -1.2650 ha        1 TCT      0.155000
     29 HC5         2.4580    0.5810   -3.4410 ha        1 TCT      0.153000
     30 HC1        -1.5810    0.5130   -5.0550 ha        1 TCT      0.169000
     31 HO1        -2.8760   -0.7320   -2.0160 ho        1 TCT      0.440000
@<TRIPOS>BOND
     1    1    2 ar  
     2    1    6 ar  
     3    1   21 1   
     4    2    3 ar  
     5    2   22 1   
     6    3    4 ar  
     7    3   12 1   
     8    4    5 ar  
     9    4   23 1   
    10    5    6 ar  
    11    5   11 ar  
    12    6    7 ar  
    13    7    8 ar  
    14    7   24 1   
    15    8    9 1   
    16    8   10 ar  
    17    9   25 1   
    18   10   11 ar  
    19   10   26 1   
    20   11   27 1   
    21   12   13 1   
    22   13   14 ar  
    23   13   19 ar  
    24   14   15 ar  
    25   14   28 1   
    26   15   16 ar  
    27   15   29 1   
    28   16   17 1   
    29   16   18 ar  
    30   18   19 ar  
    31   18   30 1   
    32   19   20 1   
    33   20   31 1   
@<TRIPOS>SUBSTRUCTURE
     1 TCT         1 TEMP              0 ****  ****    0 ROOT
