@<TRIPOS>MOLECULE
TCU
   45    46     1     0     0
SMALL
bcc


@<TRIPOS>ATOM
      1 O17         0.0600   -0.3500    0.0000 oh        1 TCU     -0.476100
      2 C6          1.4140   -0.1300    0.0500 ca        1 TCU      0.129100
      3 C1          2.1500   -0.2050    1.2410 ca        1 TCU     -0.211000
      4 C2          3.5280    0.0310    1.2300 ca        1 TCU     -0.035300
      5 C16         4.3010   -0.0430    2.5010 c3        1 TCU     -0.041100
      6 C17         4.4870   -1.4770    2.9620 c3        1 TCU     -0.076400
      7 C18         5.2460   -1.5320    4.2700 c3        1 TCU     -0.080400
      8 C19         5.4360   -2.9610    4.7330 c3        1 TCU     -0.079400
      9 C20         6.1940   -3.0190    6.0420 c3        1 TCU     -0.080400
     10 C21         6.3850   -4.4400    6.5060 c3        1 TCU     -0.093100
     11 C3          4.1690    0.3430    0.0260 ca        1 TCU     -0.158000
     12 C4          3.4480    0.4200   -1.1630 ca        1 TCU     -0.100000
     13 C5          2.0700    0.1820   -1.1600 ca        1 TCU      0.051100
     14 O7          1.3760    0.1060   -2.3640 os        1 TCU     -0.235200
     15 C8          0.8730    1.3060   -2.8610 ca        1 TCU      0.121100
     16 C9          1.1320    2.5560   -2.2920 ca        1 TCU     -0.186000
     17 C10         0.5950    3.6990   -2.8830 ca        1 TCU     -0.105000
     18 C11        -0.1900    3.5930   -4.0290 ca        1 TCU     -0.158000
     19 C12        -0.4450    2.3420   -4.5900 ca        1 TCU     -0.107000
     20 C13         0.0770    1.1780   -4.0210 ca        1 TCU     -0.092300
     21 C14        -0.1850   -0.1550   -4.6050 c3        1 TCU     -0.044800
     22 H17        -0.2380   -0.5660    0.8970 ho        1 TCU      0.419000
     23 H1          1.6420   -0.4530    2.1840 ha        1 TCU      0.138000
     24 H161        5.3070    0.4370    2.3660 hc        1 TCU      0.050700
     25 H162        3.7610    0.5370    3.2970 hc        1 TCU      0.050700
     26 H3          5.2540    0.5290    0.0150 ha        1 TCU      0.139000
     27 H171        5.0420   -2.0550    2.1780 hc        1 TCU      0.045700
     28 H172        3.4830   -1.9630    3.0850 hc        1 TCU      0.045700
     29 H181        6.2470   -1.0410    4.1450 hc        1 TCU      0.039700
     30 H182        4.6890   -0.9530    5.0540 hc        1 TCU      0.039700
     31 H191        4.4350   -3.4520    4.8570 hc        1 TCU      0.040700
     32 H192        5.9930   -3.5390    3.9500 hc        1 TCU      0.040700
     33 H201        5.6360   -2.4390    6.8230 hc        1 TCU      0.038700
     34 H202        7.1940   -2.5260    5.9160 hc        1 TCU      0.038700
     35 H211        6.9610   -5.0280    5.7510 hc        1 TCU      0.033367
     36 H212        5.3990   -4.9400    6.6610 hc        1 TCU      0.033367
     37 H213        6.9460   -4.4600    7.4720 hc        1 TCU      0.033367
     38 H4          3.9500    0.6600   -2.1120 ha        1 TCU      0.151000
     39 H9          1.7500    2.6340   -1.3850 ha        1 TCU      0.143000
     40 H10         0.7950    4.6850   -2.4380 ha        1 TCU      0.131000
     41 H11        -0.6110    4.4960   -4.4920 ha        1 TCU      0.131000
     42 H12        -1.0680    2.2650   -5.4940 ha        1 TCU      0.133000
     43 H141       -0.9160   -0.0940   -5.4470 hc        1 TCU      0.047367
     44 H142        0.7690   -0.5990   -4.9870 hc        1 TCU      0.047367
     45 H143       -0.5910   -0.8430   -3.8200 hc        1 TCU      0.047367
@<TRIPOS>BOND
     1    1    2 1   
     2    1   22 1   
     3    2    3 ar  
     4    2   13 ar  
     5    3    4 ar  
     6    3   23 1   
     7    4    5 1   
     8    4   11 ar  
     9    5    6 1   
    10    5   24 1   
    11    5   25 1   
    12    6    7 1   
    13    6   27 1   
    14    6   28 1   
    15    7    8 1   
    16    7   29 1   
    17    7   30 1   
    18    8    9 1   
    19    8   31 1   
    20    8   32 1   
    21    9   10 1   
    22    9   33 1   
    23    9   34 1   
    24   10   35 1   
    25   10   36 1   
    26   10   37 1   
    27   11   12 ar  
    28   11   26 1   
    29   12   13 ar  
    30   12   38 1   
    31   13   14 1   
    32   14   15 1   
    33   15   16 ar  
    34   15   20 ar  
    35   16   17 ar  
    36   16   39 1   
    37   17   18 ar  
    38   17   40 1   
    39   18   19 ar  
    40   18   41 1   
    41   19   20 ar  
    42   19   42 1   
    43   20   21 1   
    44   21   43 1   
    45   21   44 1   
    46   21   45 1   
@<TRIPOS>SUBSTRUCTURE
     1 TCU         1 TEMP              0 ****  ****    0 ROOT
