@<TRIPOS>MOLECULE
TCU
   45    46     1     0     0
SMALL
bcc


@<TRIPOS>ATOM
      1 O17        -0.8450   -0.7270    2.5640 oh        1 TCU     -0.492100
      2 C6         -0.4290   -0.2600    1.3430 ca        1 TCU      0.132100
      3 C1          0.8860    0.2200    1.2490 ca        1 TCU     -0.152000
      4 C2          1.3620    0.6950    0.0250 ca        1 TCU     -0.047300
      5 C16         2.7560    1.2140   -0.0720 c3        1 TCU     -0.039100
      6 C17         3.7750    0.0900   -0.0370 c3        1 TCU     -0.076400
      7 C18         5.1860    0.6350   -0.1030 c3        1 TCU     -0.079400
      8 C19         6.2060   -0.4820   -0.0710 c3        1 TCU     -0.079400
      9 C20         7.6180    0.0600   -0.1360 c3        1 TCU     -0.080400
     10 C21         8.6380   -1.0490   -0.1050 c3        1 TCU     -0.093100
     11 C3          0.5300    0.6910   -1.1030 ca        1 TCU     -0.153000
     12 C4         -0.7750    0.2140   -1.0210 ca        1 TCU     -0.107000
     13 C5         -1.2560   -0.2610    0.2020 ca        1 TCU     -0.000900
     14 O7         -2.5040   -0.8680    0.3320 os        1 TCU     -0.260200
     15 C8         -3.6090   -0.0810    0.0090 ca        1 TCU      0.102100
     16 C9         -3.5760    1.3170   -0.0010 ca        1 TCU     -0.176000
     17 C10        -4.7440    2.0230   -0.2800 ca        1 TCU     -0.107000
     18 C11        -5.9290    1.3390   -0.5470 ca        1 TCU     -0.149000
     19 C12        -5.9520   -0.0550   -0.5360 ca        1 TCU     -0.110000
     20 C13        -4.7970   -0.7910   -0.2610 ca        1 TCU     -0.089300
     21 C14        -4.8160   -2.2700   -0.2370 c3        1 TCU     -0.046800
     22 H17        -1.7690   -1.0140    2.4730 ho        1 TCU      0.437000
     23 H1          1.5260    0.2140    2.1430 ha        1 TCU      0.154000
     24 H161        2.8820    1.8020   -1.0200 hc        1 TCU      0.050200
     25 H162        2.9490    1.9170    0.7830 hc        1 TCU      0.050200
     26 H3          0.9110    1.0650   -2.0640 ha        1 TCU      0.138000
     27 H171        3.6420   -0.5060    0.9040 hc        1 TCU      0.046700
     28 H172        3.5980   -0.6050   -0.8990 hc        1 TCU      0.046700
     29 H181        5.3140    1.2360   -1.0420 hc        1 TCU      0.039700
     30 H182        5.3620    1.3300    0.7610 hc        1 TCU      0.039700
     31 H191        6.0770   -1.0830    0.8670 hc        1 TCU      0.040700
     32 H192        6.0300   -1.1760   -0.9350 hc        1 TCU      0.040700
     33 H201        7.7450    0.6620   -1.0740 hc        1 TCU      0.038200
     34 H202        7.7910    0.7550    0.7280 hc        1 TCU      0.038200
     35 H211        9.6710   -0.6290   -0.1540 hc        1 TCU      0.032700
     36 H212        8.5430   -1.6460    0.8340 hc        1 TCU      0.032700
     37 H213        8.4970   -1.7390   -0.9730 hc        1 TCU      0.032700
     38 H4         -1.4330    0.2090   -1.9030 ha        1 TCU      0.149000
     39 H9         -2.6350    1.8480    0.2070 ha        1 TCU      0.149000
     40 H10        -4.7270    3.1230   -0.2880 ha        1 TCU      0.135000
     41 H11        -6.8500    1.8990   -0.7670 ha        1 TCU      0.134000
     42 H12        -6.8910   -0.5890   -0.7490 ha        1 TCU      0.135000
     43 H141       -4.8350   -2.6340    0.8210 hc        1 TCU      0.048700
     44 H142       -5.7150   -2.6710   -0.7670 hc        1 TCU      0.048700
     45 H143       -3.8960   -2.6790   -0.7250 hc        1 TCU      0.048700
@<TRIPOS>BOND
     1    1    2 1   
     2    1   22 1   
     3    2    3 ar  
     4    2   13 ar  
     5    3    4 ar  
     6    3   23 1   
     7    4    5 1   
     8    4   11 ar  
     9    5    6 1   
    10    5   24 1   
    11    5   25 1   
    12    6    7 1   
    13    6   27 1   
    14    6   28 1   
    15    7    8 1   
    16    7   29 1   
    17    7   30 1   
    18    8    9 1   
    19    8   31 1   
    20    8   32 1   
    21    9   10 1   
    22    9   33 1   
    23    9   34 1   
    24   10   35 1   
    25   10   36 1   
    26   10   37 1   
    27   11   12 ar  
    28   11   26 1   
    29   12   13 ar  
    30   12   38 1   
    31   13   14 1   
    32   14   15 1   
    33   15   16 ar  
    34   15   20 ar  
    35   16   17 ar  
    36   16   39 1   
    37   17   18 ar  
    38   17   40 1   
    39   18   19 ar  
    40   18   41 1   
    41   19   20 ar  
    42   19   42 1   
    43   20   21 1   
    44   21   43 1   
    45   21   44 1   
    46   21   45 1   
@<TRIPOS>SUBSTRUCTURE
     1 TCU         1 TEMP              0 ****  ****    0 ROOT
