@<TRIPOS>MOLECULE
TCU
   45    42     1     0     0
SMALL
bcc


@<TRIPOS>ATOM
      1 O17        -3.3280    0.3980   -0.5780 oh        1 TCU     -0.246000
      2 C6         -1.9230    0.3630   -0.5990 c2        1 TCU      0.087000
      3 C1         -1.2120    0.3150    0.5930 c1        1 TCU     -0.151000
      4 C2          0.1730    0.2550    0.5720 c1        1 TCU     -0.040000
      5 C16         0.9520    0.2040    1.8770 c3        1 TCU     -0.126000
      6 C17         1.4290   -1.2170    2.1280 c3        1 TCU     -0.155000
      7 C18         1.5870   -1.4410    3.6230 c3        1 TCU     -0.159000
      8 C19         2.8420   -2.2550    3.8820 c3        1 TCU     -0.158000
      9 C20         2.8800   -2.6730    5.3400 c3        1 TCU     -0.159000
     10 C21         4.2230   -3.3020    5.6500 c3        1 TCU     -0.211000
     11 C3          0.8480    0.2420   -0.6390 c1        1 TCU     -0.154000
     12 C4          0.1380    0.2900   -1.8310 c1        1 TCU     -0.107000
     13 C5         -1.2480    0.3500   -1.8110 c2        1 TCU     -0.047000
     14 O7         -1.9740    0.2310   -3.0180 os        1 TCU     -0.170000
     15 C8         -2.1980    1.5140   -3.5630 c2        1 TCU      0.057000
     16 C9         -2.3980    2.5960   -2.7210 c2        1 TCU     -0.176000
     17 C10        -2.7370    3.8320   -3.2490 c1        1 TCU     -0.107000
     18 C11        -2.8770    3.9860   -4.6200 c1        1 TCU     -0.129500
     19 C12        -2.6780    2.9040   -5.4620 c1        1 TCU     -0.129500
     20 C13        -2.3390    1.6680   -4.9350 c1        1 TCU     -0.082000
     21 C14        -2.2090    0.4670   -5.8470 c3        1 TCU     -0.172000
     22 H17        -3.6430   -0.4220   -0.4240 ho        1 TCU      0.236000
     23 H1         -1.6860    0.3350    1.4450 ha        1 TCU      0.154000
     24 H161        1.7230    0.8000    1.8180 hc        1 TCU      0.090000
     25 H162        0.3760    0.4890    2.6130 hc        1 TCU      0.090000
     26 H3          1.8250    0.2000   -0.6540 ha        1 TCU      0.138000
     27 H171        0.7720   -1.8500    1.7710 hc        1 TCU      0.085000
     28 H172        2.2900   -1.3550    1.6850 hc        1 TCU      0.085000
     29 H181        1.6600   -0.5770    4.0760 hc        1 TCU      0.079000
     30 H182        0.8080   -1.9240    3.9640 hc        1 TCU      0.079000
     31 H191        2.8370   -3.0510    3.3140 hc        1 TCU      0.080000
     32 H192        3.6300   -1.7130    3.6780 hc        1 TCU      0.080000
     33 H201        2.7490   -1.8880    5.9080 hc        1 TCU      0.077500
     34 H202        2.1690   -3.3220    5.5110 hc        1 TCU      0.077500
     35 H211        4.4010   -4.0240    5.0100 hc        1 TCU      0.072000
     36 H212        4.9270   -2.6220    5.5790 hc        1 TCU      0.072000
     37 H213        4.2110   -3.6660    6.5580 hc        1 TCU      0.072000
     38 H4          0.6140    0.2810   -2.6850 ha        1 TCU      0.149000
     39 H9         -2.2990    2.4890   -1.7560 ha        1 TCU      0.149000
     40 H10        -2.8780    4.5970   -2.6540 ha        1 TCU      0.135000
     41 H11        -3.1170    4.8580   -4.9920 ha        1 TCU      0.134500
     42 H12        -2.7770    3.0130   -6.4250 ha        1 TCU      0.134500
     43 H141       -2.2480    0.7610   -6.7800 hc        1 TCU      0.088000
     44 H142       -2.9430   -0.1590   -5.6700 hc        1 TCU      0.088000
     45 H143       -1.3500    0.0210   -5.6800 hc        1 TCU      0.088000
@<TRIPOS>BOND
     1    1    2 1   
     2    1   22 1   
     3    2    3 1   
     4    2   13 1   
     5    3   23 1   
     6    4    5 1   
     7    4   11 1   
     8    5    6 1   
     9    5   24 1   
    10    5   25 1   
    11    6    7 1   
    12    6   27 1   
    13    6   28 1   
    14    7    8 1   
    15    7   29 1   
    16    7   30 1   
    17    8    9 1   
    18    8   31 1   
    19    8   32 1   
    20    9   10 1   
    21    9   33 1   
    22    9   34 1   
    23   10   35 1   
    24   10   36 1   
    25   10   37 1   
    26   11   26 1   
    27   12   13 1   
    28   12   38 1   
    29   13   14 1   
    30   14   15 1   
    31   15   16 1   
    32   15   20 1   
    33   16   17 1   
    34   16   39 1   
    35   17   40 1   
    36   18   19 1   
    37   18   41 1   
    38   19   42 1   
    39   20   21 1   
    40   21   43 1   
    41   21   44 1   
    42   21   45 1   
@<TRIPOS>SUBSTRUCTURE
     1 TCU         1 TEMP              0 ****  ****    0 ROOT
