@<TRIPOS>MOLECULE
TCU
   45    46     1     0     0
SMALL
bcc


@<TRIPOS>ATOM
      1 O17         0.0530   -0.3230    0.0190 oh        1 TCU     -0.476100
      2 C6          1.4100   -0.1180    0.0590 ca        1 TCU      0.129100
      3 C1          2.1520   -0.1920    1.2460 ca        1 TCU     -0.211000
      4 C2          3.5320    0.0290    1.2250 ca        1 TCU     -0.035300
      5 C16         4.3120   -0.0430    2.4910 c3        1 TCU     -0.041100
      6 C17         4.4860   -1.4740    2.9630 c3        1 TCU     -0.076400
      7 C18         5.2530   -1.5260    4.2670 c3        1 TCU     -0.080400
      8 C19         5.4320   -2.9530    4.7400 c3        1 TCU     -0.079400
      9 C20         6.1990   -3.0090    6.0450 c3        1 TCU     -0.080400
     10 C21         6.3790   -4.4270    6.5190 c3        1 TCU     -0.093100
     11 C3          4.1700    0.3230    0.0140 ca        1 TCU     -0.158000
     12 C4          3.4420    0.3970   -1.1710 ca        1 TCU     -0.100000
     13 C5          2.0620    0.1750   -1.1570 ca        1 TCU      0.051100
     14 O7          1.3590    0.0960   -2.3560 os        1 TCU     -0.235200
     15 C8          0.8690    1.2980   -2.8630 ca        1 TCU      0.121100
     16 C9          1.1470    2.5490   -2.3070 ca        1 TCU     -0.186000
     17 C10         0.6220    3.6930   -2.9060 ca        1 TCU     -0.105000
     18 C11        -0.1700    3.5870   -4.0480 ca        1 TCU     -0.158000
     19 C12        -0.4430    2.3330   -4.5960 ca        1 TCU     -0.107000
     20 C13         0.0670    1.1690   -4.0180 ca        1 TCU     -0.092300
     21 C14        -0.2140   -0.1670   -4.5880 c3        1 TCU     -0.044800
     22 H17        -0.2420   -0.5270    0.9200 ho        1 TCU      0.419000
     23 H1          1.6470   -0.4240    2.1950 ha        1 TCU      0.138000
     24 H161        5.3220    0.4260    2.3470 hc        1 TCU      0.050700
     25 H162        3.7830    0.5490    3.2860 hc        1 TCU      0.050700
     26 H3          5.2560    0.4950   -0.0040 ha        1 TCU      0.139000
     27 H171        5.0300   -2.0650    2.1810 hc        1 TCU      0.045700
     28 H172        3.4780   -1.9490    3.0970 hc        1 TCU      0.045700
     29 H181        6.2580   -1.0460    4.1320 hc        1 TCU      0.039700
     30 H182        4.7080   -0.9360    5.0500 hc        1 TCU      0.039700
     31 H191        4.4270   -3.4340    4.8750 hc        1 TCU      0.040700
     32 H192        5.9780   -3.5430    3.9580 hc        1 TCU      0.040700
     33 H201        5.6520   -2.4160    6.8250 hc        1 TCU      0.038700
     34 H202        7.2030   -2.5260    5.9080 hc        1 TCU      0.038700
     35 H211        6.9440   -5.0270    5.7650 hc        1 TCU      0.033367
     36 H212        5.3890   -4.9170    6.6850 hc        1 TCU      0.033367
     37 H213        6.9470   -4.4450    7.4810 hc        1 TCU      0.033367
     38 H4          3.9410    0.6220   -2.1260 ha        1 TCU      0.151000
     39 H9          1.7700    2.6280   -1.4040 ha        1 TCU      0.143000
     40 H10         0.8360    4.6810   -2.4720 ha        1 TCU      0.131000
     41 H11        -0.5820    4.4900   -4.5180 ha        1 TCU      0.131000
     42 H12        -1.0710    2.2560   -5.4970 ha        1 TCU      0.133000
     43 H141       -0.9470   -0.1040   -5.4280 hc        1 TCU      0.047367
     44 H142        0.7320   -0.6270   -4.9680 hc        1 TCU      0.047367
     45 H143       -0.6270   -0.8410   -3.7960 hc        1 TCU      0.047367
@<TRIPOS>BOND
     1    1    2 1   
     2    1   22 1   
     3    2    3 ar  
     4    2   13 ar  
     5    3    4 ar  
     6    3   23 1   
     7    4    5 1   
     8    4   11 ar  
     9    5    6 1   
    10    5   24 1   
    11    5   25 1   
    12    6    7 1   
    13    6   27 1   
    14    6   28 1   
    15    7    8 1   
    16    7   29 1   
    17    7   30 1   
    18    8    9 1   
    19    8   31 1   
    20    8   32 1   
    21    9   10 1   
    22    9   33 1   
    23    9   34 1   
    24   10   35 1   
    25   10   36 1   
    26   10   37 1   
    27   11   12 ar  
    28   11   26 1   
    29   12   13 ar  
    30   12   38 1   
    31   13   14 1   
    32   14   15 1   
    33   15   16 ar  
    34   15   20 ar  
    35   16   17 ar  
    36   16   39 1   
    37   17   18 ar  
    38   17   40 1   
    39   18   19 ar  
    40   18   41 1   
    41   19   20 ar  
    42   19   42 1   
    43   20   21 1   
    44   21   43 1   
    45   21   44 1   
    46   21   45 1   
@<TRIPOS>SUBSTRUCTURE
     1 TCU         1 TEMP              0 ****  ****    0 ROOT
