@<TRIPOS>MOLECULE
TCV
    6     5     1     0     0
SMALL
bcc


@<TRIPOS>ATOM
      1 CL1         0.0330    0.0000   -0.1090 cl        1 TCV     -0.065400
      2 C2          1.7100    0.0000    0.0110 c2        1 TCV     -0.068600
      3 C3          2.3810   -0.0000    1.1740 c2        1 TCV      0.062800
      4 CL4         1.6350   -0.0000    2.6900 cl        1 TCV     -0.051400
      5 CL5         4.0780    0.0000    1.1810 cl        1 TCV     -0.051400
      6 H2          2.2190    0.0000   -0.9650 h4        1 TCV      0.175000
@<TRIPOS>BOND
     1    1    2 1   
     2    2    3 2   
     3    2    6 1   
     4    3    4 1   
     5    3    5 1   
@<TRIPOS>SUBSTRUCTURE
     1 TCV         1 TEMP              0 ****  ****    0 ROOT
