@<TRIPOS>MOLECULE
TCW
   31    32     1     0     0
SMALL
bcc


@<TRIPOS>ATOM
      1 O13         0.0430    0.4260    0.0460 o         1 TCW     -0.528100
      2 C12         1.2680    0.2410    0.0160 c         1 TCW      0.596300
      3 C4          2.0340    0.1070    1.2800 ca        1 TCW     -0.180600
      4 C3          1.5320    0.7390    2.4310 ca        1 TCW     -0.085000
      5 C2          2.2120    0.6170    3.6350 ca        1 TCW      0.013100
      6 O7          1.8090    1.2190    4.8110 oh        1 TCW     -0.512100
      7 C5          3.1960   -0.6530    1.3500 ca        1 TCW     -0.028000
      8 C6          3.8870   -0.7880    2.5710 ca        1 TCW     -0.213200
      9 N9          5.1210   -1.6110    2.6110 no        1 TCW      0.326200
     10 O11         5.5370   -2.0630    1.5760 o         1 TCW     -0.198000
     11 O10         5.6690   -1.8050    3.6590 o         1 TCW     -0.198000
     12 C1          3.4040   -0.1490    3.7330 ca        1 TCW      0.206100
     13 O8          4.0930   -0.2790    4.8980 oh        1 TCW     -0.442100
     14 C14         2.0070    0.1450   -1.2580 ca        1 TCW     -0.181600
     15 C19         1.3690   -0.4240   -2.3690 ca        1 TCW     -0.079000
     16 C18         2.0340   -0.5160   -3.5880 ca        1 TCW     -0.142000
     17 C17         3.3400   -0.0280   -3.7220 ca        1 TCW     -0.042300
     18 C20         4.0540   -0.1390   -5.0140 c3        1 TCW     -0.062800
     19 C16         3.9680    0.5570   -2.6150 ca        1 TCW     -0.142000
     20 C15         3.3090    0.6420   -1.3920 ca        1 TCW     -0.079000
     21 H3          0.5950    1.3170    2.3640 ha        1 TCW      0.168000
     22 HO7         0.9320    1.6040    4.6620 ho        1 TCW      0.441000
     23 H5          3.5850   -1.1640    0.4490 ha        1 TCW      0.187000
     24 HO8         3.6160    0.2010    5.5980 ho        1 TCW      0.452000
     25 H19         0.3350   -0.7920   -2.2680 ha        1 TCW      0.145000
     26 H18         1.5290   -0.9710   -4.4540 ha        1 TCW      0.140500
     27 H20         3.3360   -0.1670   -5.8700 hc        1 TCW      0.051033
     28 H20A        4.7490    0.7240   -5.1620 hc        1 TCW      0.051033
     29 H20B        4.6590   -1.0810   -5.0330 hc        1 TCW      0.051033
     30 H16         4.9900    0.9520   -2.7140 ha        1 TCW      0.140500
     31 H15         3.8110    1.1090   -0.5310 ha        1 TCW      0.145000
@<TRIPOS>BOND
     1    1    2 2   
     2    2    3 1   
     3    2   14 1   
     4    3    4 ar  
     5    3    7 ar  
     6    4    5 ar  
     7    4   21 1   
     8    5    6 1   
     9    5   12 ar  
    10    6   22 1   
    11    7    8 ar  
    12    7   23 1   
    13    8    9 1   
    14    8   12 ar  
    15    9   10 1   
    16    9   11 1   
    17   12   13 1   
    18   13   24 1   
    19   14   15 ar  
    20   14   20 ar  
    21   15   16 ar  
    22   15   25 1   
    23   16   17 ar  
    24   16   26 1   
    25   17   18 1   
    26   17   19 ar  
    27   18   27 1   
    28   18   28 1   
    29   18   29 1   
    30   19   20 ar  
    31   19   30 1   
    32   20   31 1   
@<TRIPOS>SUBSTRUCTURE
     1 TCW         1 TEMP              0 ****  ****    0 ROOT
