@<TRIPOS>MOLECULE
TCW
   31    32     1     0     0
SMALL
bcc


@<TRIPOS>ATOM
      1 O13        -1.1860   -2.9210   -0.6060 o         1 TCW     -0.519100
      2 C12        -1.0140   -1.7360   -0.2950 c         1 TCW      0.594300
      3 C4          0.3590   -1.1830   -0.1710 ca        1 TCW     -0.172600
      4 C3          1.3880   -2.0400    0.2520 ca        1 TCW     -0.049000
      5 C2          2.6900   -1.5550    0.3600 ca        1 TCW      0.083100
      6 O7          3.6510   -2.4330    0.8010 oh        1 TCW     -0.483100
      7 C5          0.6360    0.1370   -0.5040 ca        1 TCW     -0.040000
      8 C6          1.9530    0.6340   -0.4100 ca        1 TCW     -0.242200
      9 N9          2.1930    2.0460   -0.7810 no        1 TCW      0.324200
     10 O11         1.2660    2.7320   -1.1100 o         1 TCW     -0.213000
     11 O10         3.3190    2.4790   -0.7440 o         1 TCW     -0.213000
     12 C1          2.9970   -0.2070    0.0280 ca        1 TCW      0.155100
     13 O8          4.3110    0.1180    0.1910 oh        1 TCW     -0.511100
     14 C14        -2.1480   -0.8260   -0.0420 ca        1 TCW     -0.182600
     15 C19        -3.3510   -1.0350   -0.7320 ca        1 TCW     -0.078500
     16 C18        -4.4430   -0.2030   -0.5050 ca        1 TCW     -0.142500
     17 C17        -4.3590    0.8400    0.4250 ca        1 TCW     -0.042300
     18 C20        -5.5260    1.7150    0.6800 c3        1 TCW     -0.062800
     19 C16        -3.1610    1.0380    1.1240 ca        1 TCW     -0.142500
     20 C15        -2.0640    0.2130    0.8920 ca        1 TCW     -0.078500
     21 H3          1.1720   -3.0950    0.4910 ha        1 TCW      0.184000
     22 HO7         4.5130   -1.9870    0.7770 ho        1 TCW      0.445000
     23 H5         -0.1760    0.8050   -0.8490 ha        1 TCW      0.184000
     24 HO8         4.5050    1.0150   -0.1310 ho        1 TCW      0.480000
     25 H19        -3.4220   -1.8680   -1.4500 ha        1 TCW      0.145000
     26 H18        -5.3810   -0.3690   -1.0570 ha        1 TCW      0.140000
     27 H20        -6.1230    1.3090    1.5360 hc        1 TCW      0.050700
     28 H20A       -5.1980    2.7510    0.9430 hc        1 TCW      0.050700
     29 H20B       -6.1910    1.7700   -0.2160 hc        1 TCW      0.050700
     30 H16        -3.0870    1.8520    1.8610 ha        1 TCW      0.140000
     31 H15        -1.1300    0.3750    1.4530 ha        1 TCW      0.145000
@<TRIPOS>BOND
     1    1    2 2   
     2    2    3 1   
     3    2   14 1   
     4    3    4 ar  
     5    3    7 ar  
     6    4    5 ar  
     7    4   21 1   
     8    5    6 1   
     9    5   12 ar  
    10    6   22 1   
    11    7    8 ar  
    12    7   23 1   
    13    8    9 1   
    14    8   12 ar  
    15    9   10 1   
    16    9   11 1   
    17   12   13 1   
    18   13   24 1   
    19   14   15 ar  
    20   14   20 ar  
    21   15   16 ar  
    22   15   25 1   
    23   16   17 ar  
    24   16   26 1   
    25   17   18 1   
    26   17   19 ar  
    27   18   27 1   
    28   18   28 1   
    29   18   29 1   
    30   19   20 ar  
    31   19   30 1   
    32   20   31 1   
@<TRIPOS>SUBSTRUCTURE
     1 TCW         1 TEMP              0 ****  ****    0 ROOT
