@<TRIPOS>MOLECULE
TCW
   31    32     1     0     0
SMALL
bcc


@<TRIPOS>ATOM
      1 O13         0.0500    0.4640    0.0520 o         1 TCW     -0.529100
      2 C12         1.2720    0.2630    0.0200 c         1 TCW      0.596300
      3 C4          2.0380    0.1130    1.2820 ca        1 TCW     -0.180600
      4 C3          1.5450    0.7460    2.4370 ca        1 TCW     -0.085000
      5 C2          2.2240    0.6090    3.6390 ca        1 TCW      0.013100
      6 O7          1.8310    1.2100    4.8180 oh        1 TCW     -0.512100
      7 C5          3.1910   -0.6630    1.3470 ca        1 TCW     -0.028000
      8 C6          3.8810   -0.8120    2.5660 ca        1 TCW     -0.213200
      9 N9          5.1040   -1.6510    2.6010 no        1 TCW      0.326200
     10 O11         5.5130   -2.1030    1.5630 o         1 TCW     -0.198000
     11 O10         5.6510   -1.8570    3.6470 o         1 TCW     -0.198000
     12 C1          3.4070   -0.1720    3.7320 ca        1 TCW      0.206100
     13 O8          4.0960   -0.3180    4.8960 oh        1 TCW     -0.442100
     14 C14         2.0080    0.1630   -1.2560 ca        1 TCW     -0.181600
     15 C19         1.3620   -0.3920   -2.3690 ca        1 TCW     -0.079000
     16 C18         2.0240   -0.4870   -3.5890 ca        1 TCW     -0.141500
     17 C17         3.3360   -0.0150   -3.7220 ca        1 TCW     -0.042300
     18 C20         4.0470   -0.1290   -5.0160 c3        1 TCW     -0.062800
     19 C16         3.9730    0.5570   -2.6130 ca        1 TCW     -0.141500
     20 C15         3.3160    0.6440   -1.3890 ca        1 TCW     -0.079000
     21 H3          0.6160    1.3370    2.3740 ha        1 TCW      0.168000
     22 HO7         0.9590    1.6080    4.6730 ho        1 TCW      0.441000
     23 H5          3.5720   -1.1740    0.4430 ha        1 TCW      0.187000
     24 HO8         3.6250    0.1650    5.5990 ho        1 TCW      0.452000
     25 H19         0.3230   -0.7460   -2.2680 ha        1 TCW      0.145000
     26 H18         1.5120   -0.9310   -4.4560 ha        1 TCW      0.140500
     27 H20         3.3280   -0.1270   -5.8720 hc        1 TCW      0.051033
     28 H20A        4.6260   -1.0870   -5.0460 hc        1 TCW      0.051033
     29 H20B        4.7650    0.7170   -5.1540 hc        1 TCW      0.051033
     30 H16         5.0000    0.9390   -2.7110 ha        1 TCW      0.140500
     31 H15         3.8260    1.1010   -0.5260 ha        1 TCW      0.145000
@<TRIPOS>BOND
     1    1    2 2   
     2    2    3 1   
     3    2   14 1   
     4    3    4 ar  
     5    3    7 ar  
     6    4    5 ar  
     7    4   21 1   
     8    5    6 1   
     9    5   12 ar  
    10    6   22 1   
    11    7    8 ar  
    12    7   23 1   
    13    8    9 1   
    14    8   12 ar  
    15    9   10 1   
    16    9   11 1   
    17   12   13 1   
    18   13   24 1   
    19   14   15 ar  
    20   14   20 ar  
    21   15   16 ar  
    22   15   25 1   
    23   16   17 ar  
    24   16   26 1   
    25   17   18 1   
    26   17   19 ar  
    27   18   27 1   
    28   18   28 1   
    29   18   29 1   
    30   19   20 ar  
    31   19   30 1   
    32   20   31 1   
@<TRIPOS>SUBSTRUCTURE
     1 TCW         1 TEMP              0 ****  ****    0 ROOT
