@<TRIPOS>MOLECULE
TCW
   31    32     1     0     0
SMALL
bcc


@<TRIPOS>ATOM
      1 O13         0.0450    0.4340    0.0470 o         1 TCW     -0.528100
      2 C12         1.2690    0.2460    0.0170 c         1 TCW      0.596300
      3 C4          2.0350    0.1100    1.2800 ca        1 TCW     -0.180600
      4 C3          1.5350    0.7440    2.4310 ca        1 TCW     -0.085000
      5 C2          2.2150    0.6200    3.6350 ca        1 TCW      0.013100
      6 O7          1.8140    1.2230    4.8110 oh        1 TCW     -0.512100
      7 C5          3.1960   -0.6530    1.3500 ca        1 TCW     -0.028000
      8 C6          3.8860   -0.7900    2.5710 ca        1 TCW     -0.213200
      9 N9          5.1180   -1.6160    2.6110 no        1 TCW      0.326200
     10 O11         5.5320   -2.0700    1.5750 o         1 TCW     -0.198000
     11 O10         5.6660   -1.8110    3.6590 o         1 TCW     -0.198000
     12 C1          3.4050   -0.1490    3.7330 ca        1 TCW      0.206100
     13 O8          4.0940   -0.2810    4.8980 oh        1 TCW     -0.442100
     14 C14         2.0070    0.1470   -1.2580 ca        1 TCW     -0.181600
     15 C19         1.3670   -0.4210   -2.3680 ca        1 TCW     -0.079000
     16 C18         2.0320   -0.5150   -3.5880 ca        1 TCW     -0.141500
     17 C17         3.3380   -0.0300   -3.7220 ca        1 TCW     -0.042300
     18 C20         4.0520   -0.1430   -5.0140 c3        1 TCW     -0.062800
     19 C16         3.9680    0.5540   -2.6160 ca        1 TCW     -0.141500
     20 C15         3.3100    0.6400   -1.3930 ca        1 TCW     -0.079000
     21 H3          0.6000    1.3240    2.3650 ha        1 TCW      0.168000
     22 HO7         0.9390    1.6110    4.6630 ho        1 TCW      0.441000
     23 H5          3.5830   -1.1650    0.4490 ha        1 TCW      0.187000
     24 HO8         3.6190    0.2000    5.5980 ho        1 TCW      0.452000
     25 H19         0.3320   -0.7860   -2.2660 ha        1 TCW      0.145000
     26 H18         1.5250   -0.9690   -4.4530 ha        1 TCW      0.140500
     27 H20         3.3330   -0.1620   -5.8700 hc        1 TCW      0.051033
     28 H20A        4.7540    0.7140   -5.1600 hc        1 TCW      0.051033
     29 H20B        4.6480   -1.0910   -5.0360 hc        1 TCW      0.051033
     30 H16         4.9920    0.9460   -2.7150 ha        1 TCW      0.140500
     31 H15         3.8140    1.1070   -0.5320 ha        1 TCW      0.145000
@<TRIPOS>BOND
     1    1    2 2   
     2    2    3 1   
     3    2   14 1   
     4    3    4 ar  
     5    3    7 ar  
     6    4    5 ar  
     7    4   21 1   
     8    5    6 1   
     9    5   12 ar  
    10    6   22 1   
    11    7    8 ar  
    12    7   23 1   
    13    8    9 1   
    14    8   12 ar  
    15    9   10 1   
    16    9   11 1   
    17   12   13 1   
    18   13   24 1   
    19   14   15 ar  
    20   14   20 ar  
    21   15   16 ar  
    22   15   25 1   
    23   16   17 ar  
    24   16   26 1   
    25   17   18 1   
    26   17   19 ar  
    27   18   27 1   
    28   18   28 1   
    29   18   29 1   
    30   19   20 ar  
    31   19   30 1   
    32   20   31 1   
@<TRIPOS>SUBSTRUCTURE
     1 TCW         1 TEMP              0 ****  ****    0 ROOT
