@<TRIPOS>MOLECULE
TCX
   13    12     1     0     0
SMALL
bcc


@<TRIPOS>ATOM
      1 C4          2.8900   -0.3890   -0.3360 c3        1 TCX     -0.121100
      2 C3          1.8310    0.4840    0.3540 c3        1 TCX      0.242800
      3 N           0.6700    0.7810   -0.3680 n3        1 TCX     -0.879300
      4 P          -0.7950    0.0230    0.0600 p5        1 TCX      1.283800
      5 O3         -1.8700    1.0730   -0.1680 o         1 TCX     -0.952167
      6 O2         -0.9090   -1.1570   -0.8950 o         1 TCX     -0.952167
      7 OXT        -0.6220   -0.3950    1.5160 o         1 TCX     -0.952167
      8 H41C        3.7480   -0.5680    0.3560 hc        1 TCX     -0.004300
      9 H42C        2.4520   -1.3720   -0.6270 hc        1 TCX     -0.004300
     10 H43C        3.2850    0.1070   -1.2560 hc        1 TCX     -0.004300
     11 H31C        1.4960   -0.0330    1.3060 h1        1 TCX      0.003200
     12 H32C        2.3960    1.4300    0.6570 h1        1 TCX      0.003200
     13 HN1         0.8200    1.0960   -1.2880 hn        1 TCX      0.336800
@<TRIPOS>BOND
     1    1    2 1   
     2    1    8 1   
     3    1    9 1   
     4    1   10 1   
     5    2    3 1   
     6    2   11 1   
     7    2   12 1   
     8    3    4 1   
     9    3   13 1   
    10    4    5 1   
    11    4    6 1   
    12    4    7 1   
@<TRIPOS>SUBSTRUCTURE
     1 TCX         1 TEMP              0 ****  ****    0 ROOT
