@<TRIPOS>MOLECULE
TCX
   13    12     1     0     0
SMALL
bcc


@<TRIPOS>ATOM
      1 C4          0.0230    0.0730    0.3290 c3        1 TCX     -0.121100
      2 C3          1.4870   -0.0780   -0.1120 c3        1 TCX      0.242800
      3 N           2.4770    0.1500    0.8500 n3        1 TCX     -0.879300
      4 P           3.3410   -1.1730    1.4870 p5        1 TCX      1.283800
      5 O3          4.7560   -0.6600    1.7020 o         1 TCX     -0.952167
      6 O2          2.6290   -1.5040    2.7910 o         1 TCX     -0.952167
      7 OXT         3.2240   -2.2730    0.4390 o         1 TCX     -0.952167
      8 H41C       -0.6590   -0.1600   -0.5240 hc        1 TCX     -0.004300
      9 H42C       -0.1900    1.1160    0.6690 hc        1 TCX     -0.004300
     10 H43C       -0.2020   -0.6240    1.1700 hc        1 TCX     -0.004300
     11 H31C        1.5900    0.6290   -1.0030 h1        1 TCX      0.003200
     12 H32C        1.6450   -1.1350   -0.4940 h1        1 TCX      0.003200
     13 HN1         2.3660    0.9740    1.3750 hn        1 TCX      0.336800
@<TRIPOS>BOND
     1    1    2 1   
     2    1    8 1   
     3    1    9 1   
     4    1   10 1   
     5    2    3 1   
     6    2   11 1   
     7    2   12 1   
     8    3    4 1   
     9    3   13 1   
    10    4    5 1   
    11    4    6 1   
    12    4    7 1   
@<TRIPOS>SUBSTRUCTURE
     1 TCX         1 TEMP              0 ****  ****    0 ROOT
