@<TRIPOS>MOLECULE
TCY
   39    43     1     0     0
SMALL
bcc


@<TRIPOS>ATOM
      1 O3P         3.7720   -1.0290   -0.8060 o         1 TCY     -0.909167
      2 O1P         2.5780   -3.0790    0.1830 o         1 TCY     -0.909167
      3 P           3.3200   -1.8000    0.4000 p5        1 TCY      1.311900
      4 O2P         4.1930   -1.6970    1.6120 o         1 TCY     -0.909167
      5 C8'         2.9370    1.5000    1.3970 cx        1 TCY     -0.154400
      6 O5'         1.9260   -0.7420    0.8910 os        1 TCY     -0.496200
      7 C5'         1.9910    0.5620    0.6640 cx        1 TCY      0.291800
      8 C6'         1.4650    1.6160    1.6780 cx        1 TCY     -0.263700
      9 C4'         1.5940    1.0720   -0.7300 c3        1 TCY      0.094100
     10 C3'         0.8520    2.4320   -0.5450 c3        1 TCY      0.109800
     11 C7'         0.7500    2.7230    0.9670 c3        1 TCY     -0.050400
     12 O3'         1.5140    3.5010   -1.2150 oh        1 TCY     -0.621800
     13 C2'        -0.5120    2.2440   -1.2170 c3        1 TCY     -0.103400
     14 C1'        -0.6190    0.7210   -1.4640 c3        1 TCY      0.256800
     15 O4'         0.6950    0.1890   -1.4260 os        1 TCY     -0.346600
     16 N9         -1.4880    0.0230   -0.5250 na        1 TCY     -0.274000
     17 C4         -2.8840    0.1110   -0.5090 ca        1 TCY      0.413800
     18 N3         -3.7610    0.8310   -1.2730 nb        1 TCY     -0.720000
     19 C2         -5.0510    0.5990   -0.9500 ca        1 TCY      0.628900
     20 N1         -5.5900   -0.2190   -0.0020 nb        1 TCY     -0.802000
     21 C6         -4.7160   -0.9240    0.7850 ca        1 TCY      0.680200
     22 N6         -5.1810   -1.7050    1.8480 nh        1 TCY     -0.925500
     23 C5         -3.3130   -0.8040    0.5530 ca        1 TCY     -0.187200
     24 N7         -2.1940   -1.4150    1.1330 nc        1 TCY     -0.606100
     25 C8         -1.1300   -0.9150    0.4760 cd        1 TCY      0.498700
     26 H6'         1.0690    1.3250    2.6590 hc        1 TCY      0.075700
     27 H4'         2.5060    1.1090   -1.3870 h1        1 TCY      0.129700
     28 H7'        -0.3200    2.7720    1.2880 hc        1 TCY      0.023200
     29 H7'A        1.2160    3.7190    1.1850 hc        1 TCY      0.023200
     30 HO3'        2.4460    3.4250   -0.9750 ho        1 TCY      0.409000
     31 H2'        -1.3470    2.6420   -0.5950 hc        1 TCY      0.060200
     32 H2'A       -0.5280    2.7700   -2.2040 hc        1 TCY      0.060200
     33 H1'        -1.0160    0.4960   -2.4990 h2        1 TCY      0.070700
     34 H2         -5.7970    1.1560   -1.5520 h5        1 TCY      0.022100
     35 HN6        -6.1060   -2.0570    1.7550 hn        1 TCY      0.403300
     36 HN6A       -4.5150   -2.3730    2.1720 hn        1 TCY      0.403300
     37 H8         -0.0460   -1.1720    0.6510 h5        1 TCY      0.190800
     38 H8'         3.5920    1.0560    2.1680 hc        1 TCY      0.061200
     39 H8'A        3.4330    2.3120    0.8350 hc        1 TCY      0.061200
@<TRIPOS>BOND
     1    1    3 1   
     2    2    3 1   
     3    3    4 1   
     4    3    6 1   
     5    5    7 1   
     6    5    8 1   
     7    5   38 1   
     8    5   39 1   
     9    6    7 1   
    10    7    8 1   
    11    7    9 1   
    12    8   11 1   
    13    8   26 1   
    14    9   10 1   
    15    9   15 1   
    16    9   27 1   
    17   10   11 1   
    18   10   12 1   
    19   10   13 1   
    20   11   28 1   
    21   11   29 1   
    22   12   30 1   
    23   13   14 1   
    24   13   31 1   
    25   13   32 1   
    26   14   15 1   
    27   14   16 1   
    28   14   33 1   
    29   16   17 1   
    30   16   25 1   
    31   17   18 ar  
    32   17   23 ar  
    33   18   19 ar  
    34   19   20 ar  
    35   19   34 1   
    36   20   21 ar  
    37   21   22 1   
    38   21   23 ar  
    39   22   35 1   
    40   22   36 1   
    41   23   24 1   
    42   24   25 2   
    43   25   37 1   
@<TRIPOS>SUBSTRUCTURE
     1 TCY         1 TEMP              0 ****  ****    0 ROOT
