@<TRIPOS>MOLECULE
TCY
   39    38     1     0     0
SMALL
bcc


@<TRIPOS>ATOM
      1 O3P        -3.9040    0.2130    2.8110 o         1 TCY     -0.918500
      2 O1P        -3.5310    2.1880    4.2450 o         1 TCY     -0.918500
      3 P          -3.0080    0.8200    3.8650 p5        1 TCY      1.337900
      4 O2P        -2.9920   -0.0720    5.0880 o         1 TCY     -0.918500
      5 C8'        -0.2870   -0.9210    2.2370 cx        1 TCY     -0.184400
      6 O5'        -1.5290    0.9580    3.2890 os        1 TCY     -0.501200
      7 C5'        -1.1840    0.2230    2.1190 cx        1 TCY      0.285800
      8 C6'        -1.7290   -1.1310    2.0800 cx        1 TCY     -0.210700
      9 C4'        -1.3120    0.8100    0.7660 c3        1 TCY      0.077100
     10 C3'        -1.8590   -0.3520   -0.1730 c3        1 TCY      0.156800
     11 C7'        -2.3960   -1.3120    0.6110 c3        1 TCY     -0.051400
     12 O3'        -2.9330    0.2010   -0.9330 oh        1 TCY     -0.659800
     13 C2'        -1.4410   -0.5090   -0.5620 c3        1 TCY     -0.110400
     14 C1'        -0.1180    0.6640   -0.4410 c3        1 TCY      0.437300
     15 O4'        -0.1900    1.0310    0.4250 os        1 TCY     -0.419600
     16 N9          1.2800   -0.0690   -0.6110 n3        1 TCY     -0.434800
     17 C4          1.8750    0.3210   -1.7760 c1        1 TCY      0.094800
     18 N3          1.3810    0.9190   -2.9000 n1        1 TCY     -0.503800
     19 C2          2.2180    1.2200   -3.9390 c1        1 TCY      0.364300
     20 N1          3.5510    0.9210   -3.8550 n1        1 TCY     -0.603800
     21 C6          4.0400    0.3310   -2.7490 cg        1 TCY      0.504800
     22 N6          5.4460    0.1520   -2.9370 n2        1 TCY     -0.740600
     23 C5          3.1920    0.0250   -1.6920 cg        1 TCY     -0.215000
     24 N7          3.4180   -0.5480   -0.4750 n1        1 TCY     -0.499800
     25 C8          2.2360   -0.6040    0.1880 c1        1 TCY      0.381600
     26 H8'         0.2580   -1.1150    1.4500 hc        1 TCY      0.035700
     27 H8'A        0.0740   -1.0900    3.1380 hc        1 TCY      0.035700
     28 H6'        -2.2630   -1.3300    2.8810 hc        1 TCY      0.104700
     29 H4'        -1.8810    1.6140    0.7510 h1        1 TCY      0.160700
     30 H7'        -3.3720   -1.1960    0.6670 hc        1 TCY      0.025700
     31 H7'A       -2.1810   -2.2050    0.2500 hc        1 TCY      0.025700
     32 HO3'       -3.4640   -0.4580   -1.2220 ho        1 TCY      0.505000
     33 H2'        -1.1070   -1.4140   -0.3470 hc        1 TCY      0.060700
     34 H2'A       -1.8150   -0.4990   -1.4780 hc        1 TCY      0.060700
     35 H1'        -0.2220    1.3690   -1.1210 h2        1 TCY      0.058700
     36 H2          1.8620    1.6500   -4.7470 ha        1 TCY      0.110500
     37 HN6         5.7530   -0.4260   -3.5800 hn        1 TCY      0.409300
     38 HN6A        6.0410    0.6030   -2.4040 hn        1 TCY      0.409300
     39 H8          2.0940   -0.9830    1.0810 DU        1 TCY      0.247000
@<TRIPOS>BOND
     1    1    3 1   
     2    2    3 1   
     3    3    4 1   
     4    3    6 1   
     5    5    7 1   
     6    5    8 1   
     7    5   26 1   
     8    5   27 1   
     9    6    7 1   
    10    7    8 1   
    11    7    9 1   
    12    8   11 1   
    13    8   28 1   
    14    9   10 1   
    15    9   15 1   
    16    9   29 1   
    17   10   11 1   
    18   10   12 1   
    19   10   13 1   
    20   11   30 1   
    21   11   31 1   
    22   12   32 1   
    23   13   14 1   
    24   13   33 1   
    25   13   34 1   
    26   14   15 1   
    27   14   16 1   
    28   14   35 1   
    29   16   17 1   
    30   16   25 1   
    31   17   23 3   
    32   18   19 3   
    33   19   36 1   
    34   20   21 3   
    35   21   23 1   
    36   22   37 1   
    37   22   38 1   
    38   24   25 3   
@<TRIPOS>SUBSTRUCTURE
     1 TCY         1 TEMP              0 ****  ****    0 ROOT
