@<TRIPOS>MOLECULE
TCZ
   12    12     1     0     0
SMALL
bcc


@<TRIPOS>ATOM
      1 C1          0.0190    0.0010   -1.3900 ca        1 TCZ      0.031400
      2 C2          1.2270    0.0000   -0.6860 ca        1 TCZ     -0.122000
      3 C3          1.1940   -0.0000    0.7110 ca        1 TCZ      0.031400
      4 C4         -0.0190    0.0000    1.4050 ca        1 TCZ     -0.122000
      5 C5         -1.2130    0.0010    0.6790 ca        1 TCZ      0.031400
      6 C6         -1.2080    0.0010   -0.7190 ca        1 TCZ     -0.122000
      7 CL1         0.0420    0.0020   -3.0880 cl        1 TCZ     -0.075400
      8 CL3         2.6530   -0.0010    1.5800 cl        1 TCZ     -0.075400
      9 CL5        -2.6950    0.0020    1.5080 cl        1 TCZ     -0.075400
     10 H2          2.1880   -0.0000   -1.2240 ha        1 TCZ      0.166000
     11 H4         -0.0340   -0.0000    2.5070 ha        1 TCZ      0.166000
     12 H6         -2.1540    0.0020   -1.2830 ha        1 TCZ      0.166000
@<TRIPOS>BOND
     1    1    2 ar  
     2    1    6 ar  
     3    1    7 1   
     4    2    3 ar  
     5    2   10 1   
     6    3    4 ar  
     7    3    8 1   
     8    4    5 ar  
     9    4   11 1   
    10    5    6 ar  
    11    5    9 1   
    12    6   12 1   
@<TRIPOS>SUBSTRUCTURE
     1 TCZ         1 TEMP              0 ****  ****    0 ROOT
