@<TRIPOS>MOLECULE
TD1
   38    38     1     0     0
SMALL
bcc


@<TRIPOS>ATOM
      1 C1         -2.3810    0.5200   -0.0930 ca        1 TD1     -0.167600
      2 C2         -3.6740    0.4630   -0.6360 ca        1 TD1      0.110100
      3 C3         -4.6000    1.5010   -0.3640 ca        1 TD1      0.080100
      4 C4         -4.2290    2.5900    0.4280 ca        1 TD1     -0.127000
      5 C5         -2.9340    2.6440    0.9450 ca        1 TD1     -0.148000
      6 C6         -2.0220    1.6260    0.6890 ca        1 TD1     -0.101000
      7 C7         -1.4000   -0.5750   -0.3790 c         1 TD1      0.659700
      8 O8         -1.4530   -1.1860   -1.4820 o         1 TD1     -0.690100
      9 N9         -0.4930   -0.8900    0.5810 n         1 TD1     -0.496900
     10 O10        -4.1630   -0.5490   -1.4240 oh        1 TD1     -0.542100
     11 O11        -5.8860    1.4850   -0.8600 oh        1 TD1     -0.509100
     12 C12         0.5120   -1.9150    0.4470 c3        1 TD1     -0.050300
     13 C13         1.2370   -2.2090    1.8200 c         1 TD1      0.925600
     14 C14         1.5720   -1.6370   -0.6260 c3        1 TD1      0.135400
     15 O15         2.2570   -0.4190   -0.2650 os        1 TD1     -0.412900
     16 O16         2.0210   -3.1920    1.8100 o         1 TD1     -0.817800
     17 O17         0.9830   -1.4670    2.8060 o         1 TD1     -0.817800
     18 C24         3.4690   -0.2020   -0.8240 c         1 TD1      0.597100
     19 O25         3.8840   -0.9370   -1.7280 o         1 TD1     -0.573000
     20 C26         4.2060    0.9870   -0.2110 c3        1 TD1      0.076500
     21 N27         5.5100    1.2310   -0.7850 n3        1 TD1     -0.892800
     22 C28         3.2670    2.2090   -0.2680 c3        1 TD1      0.134400
     23 O45         3.8620    3.3850    0.2390 oh        1 TD1     -0.600800
     24 H4         -4.9580    3.3860    0.6280 ha        1 TD1      0.142000
     25 H5         -2.6350    3.5030    1.5640 ha        1 TD1      0.132000
     26 H6         -1.0040    1.7020    1.1030 ha        1 TD1      0.150000
     27 HN9        -0.4800   -0.4100    1.4590 hn        1 TD1      0.346500
     28 HO10       -3.4260   -1.1230   -1.7040 ho        1 TD1      0.476000
     29 HO11       -5.9790    0.6940   -1.4110 ho        1 TD1      0.435000
     30 H12         0.0050   -2.8720    0.1220 h1        1 TD1      0.066700
     31 H14         2.3040   -2.4880   -0.6360 h1        1 TD1      0.066700
     32 H14A        1.1210   -1.4820   -1.6400 h1        1 TD1      0.066700
     33 H26         4.3710    0.7170    0.8780 h1        1 TD1      0.101700
     34 HN27        5.9860    0.3610   -0.9350 hn        1 TD1      0.357800
     35 HN2A        5.4250    1.7090   -1.6610 hn        1 TD1      0.357800
     36 H28         2.9920    2.4600   -1.3270 h1        1 TD1      0.062200
     37 H28A        2.3390    1.9610    0.3160 h1        1 TD1      0.062200
     38 HO45        4.2950    3.1540    1.0700 ho        1 TD1      0.406000
@<TRIPOS>BOND
     1    1    2 ar  
     2    1    6 ar  
     3    1    7 1   
     4    2    3 ar  
     5    2   10 1   
     6    3    4 ar  
     7    3   11 1   
     8    4    5 ar  
     9    4   24 1   
    10    5    6 ar  
    11    5   25 1   
    12    6   26 1   
    13    7    8 2   
    14    7    9 1   
    15    9   12 1   
    16    9   27 1   
    17   10   28 1   
    18   11   29 1   
    19   12   13 1   
    20   12   14 1   
    21   12   30 1   
    22   13   16 1   
    23   13   17 1   
    24   14   15 1   
    25   14   31 1   
    26   14   32 1   
    27   15   18 1   
    28   18   19 2   
    29   18   20 1   
    30   20   21 1   
    31   20   22 1   
    32   20   33 1   
    33   21   34 1   
    34   21   35 1   
    35   22   23 1   
    36   22   36 1   
    37   22   37 1   
    38   23   38 1   
@<TRIPOS>SUBSTRUCTURE
     1 TD1         1 TEMP              0 ****  ****    0 ROOT
