@<TRIPOS>MOLECULE
TD1
   38    35     1     0     0
SMALL
bcc


@<TRIPOS>ATOM
      1 C1          2.4580    0.6780    1.4860 c1        1 TD1     -0.110000
      2 C2          3.8230    0.4440    1.4320 c2        1 TD1      0.099000
      3 C3          4.4250   -0.3670    2.3820 c1        1 TD1     -0.029000
      4 C4          3.6620   -0.9430    3.3850 c2        1 TD1     -0.160000
      5 C5          2.2970   -0.7090    3.4390 c1        1 TD1     -0.152000
      6 C6          1.6950    0.1020    2.4890 c1        1 TD1     -0.080000
      7 C7          1.7940    1.5250    0.4230 c1        1 TD1      0.346000
      8 O8          2.4510    1.9700   -0.4970 o         1 TD1     -0.439000
      9 N9          0.3960    1.7650    0.4770 n3        1 TD1     -0.303000
     10 O10         4.6000    1.0380    0.4210 oh        1 TD1     -0.222000
     11 O11         5.8130   -0.5900    2.3380 o         1 TD1     -0.270000
     12 C12        -0.3360    1.9740   -0.7220 c3        1 TD1     -0.100000
     13 C13        -0.3950    3.4540   -1.0250 c2        1 TD1      0.339000
     14 C14        -1.7410    1.4380   -0.5550 c3        1 TD1     -0.016000
     15 O15        -2.1000    0.6970   -1.6980 os        1 TD1     -0.275000
     16 O16        -0.4740    3.8490   -2.2180 o         1 TD1     -0.552000
     17 O17        -0.3740    4.2910   -0.0850 o         1 TD1     -0.552000
     18 C24        -3.0650   -0.2950   -1.4530 c2        1 TD1      0.273000
     19 O25        -3.9960   -0.0650   -0.7070 o         1 TD1     -0.380000
     20 C26        -2.9540   -1.6410   -2.1310 c3        1 TD1     -0.064000
     21 N27        -2.3150   -2.5620   -1.2560 n3        1 TD1     -0.333000
     22 C28        -4.3360   -2.1480   -2.4740 c3        1 TD1     -0.011000
     23 O45        -4.2530   -3.4920   -2.8950 oh        1 TD1     -0.339000
     24 H4          4.0890   -1.4990    4.0650 ha        1 TD1      0.125000
     25 H5          1.7600   -1.1090    4.1490 ha        1 TD1      0.129000
     26 H6          0.7320    0.2600    2.5220 ha        1 TD1      0.152000
     27 HN9        -0.0370    1.7570    1.2800 hn        1 TD1      0.257000
     28 HO10        5.1930    1.5900    0.7880 ho        1 TD1      0.238000
     29 HO11        5.9710   -1.4380    2.1210 ho        1 TD1      0.217000
     30 H12         0.1050    1.5070   -1.4580 h1        1 TD1      0.112000
     31 H14        -1.7780    0.8590    0.2350 h1        1 TD1      0.119500
     32 H14A       -2.3650    2.1850   -0.4410 h1        1 TD1      0.119500
     33 H26        -2.4280   -1.5510   -2.9500 h1        1 TD1      0.124000
     34 HN27       -2.1710   -3.3520   -1.6960 hn        1 TD1      0.170500
     35 HN2A       -1.5130   -2.2150   -0.9810 hn        1 TD1      0.170500
     36 H28        -4.9110   -2.0890   -1.6820 h1        1 TD1      0.095000
     37 H28A       -4.7150   -1.6030   -3.1940 h1        1 TD1      0.095000
     38 HO45       -5.0050   -3.7180   -3.3130 ho        1 TD1      0.210000
@<TRIPOS>BOND
     1    1    2 1   
     2    1    6 1   
     3    2    3 1   
     4    2   10 1   
     5    3    4 1   
     6    4    5 1   
     7    4   24 1   
     8    5   25 1   
     9    6   26 1   
    10    7    8 1   
    11    7    9 1   
    12    9   12 1   
    13    9   27 1   
    14   10   28 1   
    15   11   29 1   
    16   12   13 1   
    17   12   14 1   
    18   12   30 1   
    19   13   16 1   
    20   13   17 1   
    21   14   15 1   
    22   14   31 1   
    23   14   32 1   
    24   15   18 1   
    25   18   19 1   
    26   18   20 1   
    27   20   21 1   
    28   20   22 1   
    29   20   33 1   
    30   21   34 1   
    31   21   35 1   
    32   22   23 1   
    33   22   36 1   
    34   22   37 1   
    35   23   38 1   
@<TRIPOS>SUBSTRUCTURE
     1 TD1         1 TEMP              0 ****  ****    0 ROOT
