@<TRIPOS>MOLECULE
TD1
   40    40     1     0     0
SMALL
bcc


@<TRIPOS>ATOM
      1 C1          0.3500   -0.8720    0.0760 ca        1 TD1     -0.203600
      2 C2          0.5620    0.2940    0.8330 ca        1 TD1      0.156100
      3 C3          1.8740    0.8080    0.9670 ca        1 TD1      0.054100
      4 C4          2.9540    0.1730    0.3530 ca        1 TD1     -0.107000
      5 C5          2.7340   -0.9870   -0.3930 ca        1 TD1     -0.119000
      6 C6          1.4540   -1.5080   -0.5270 ca        1 TD1     -0.055000
      7 C7         -0.9570   -1.5110   -0.1110 c         1 TD1      0.581700
      8 O8         -1.1560   -2.7030   -0.3200 o         1 TD1     -0.439100
      9 N9         -2.1600   -0.6090   -0.0650 n4        1 TD1     -0.652800
     10 O10        -0.5110    0.9000    1.4380 oh        1 TD1     -0.541100
     11 O11         1.9760    1.9500    1.7280 oh        1 TD1     -0.510100
     12 C12        -3.3970   -1.1540   -0.7020 c3        1 TD1     -0.034500
     13 C13        -3.9420   -0.1470   -1.7700 c         1 TD1      0.915600
     14 C14        -4.5430   -1.3890    0.2980 c3        1 TD1      0.137400
     15 O15        -5.2680   -0.1510    0.4150 os        1 TD1     -0.456900
     16 O16        -3.4840    1.0330   -1.7620 o         1 TD1     -0.800800
     17 O17        -4.9040   -0.5360   -2.4750 o         1 TD1     -0.800800
     18 C24        -6.5530   -0.1260   -0.0620 c         1 TD1      0.634100
     19 O25        -7.2310   -1.1430   -0.0650 o         1 TD1     -0.441000
     20 C26        -6.9890    1.2730   -0.4780 c3        1 TD1      0.043500
     21 N27        -6.2150    1.7550   -1.6580 n4        1 TD1     -0.850600
     22 C28        -8.5100    1.2570   -0.7770 c3        1 TD1      0.115400
     23 O45        -8.8840    2.5420   -1.2130 oh        1 TD1     -0.604800
     24 H4          3.9710    0.5830    0.4600 ha        1 TD1      0.166000
     25 H5          3.5860   -1.4940   -0.8750 ha        1 TD1      0.171000
     26 H6          1.2870   -2.4330   -1.1070 ha        1 TD1      0.173000
     27 HN9        -1.9250    0.2840   -0.5510 hn        1 TD1      0.478800
     28 HO10       -0.1930    1.6550    1.9640 ho        1 TD1      0.481000
     29 HO11        2.9120    2.2000    1.7830 ho        1 TD1      0.455000
     30 H12        -3.1530   -2.1320   -1.2120 hx        1 TD1      0.147700
     31 H14        -5.2040   -2.2090   -0.0960 h1        1 TD1      0.103200
     32 H14A       -4.1990   -1.6340    1.3370 h1        1 TD1      0.103200
     33 H26        -6.7800    1.9820    0.3800 hx        1 TD1      0.122700
     34 HN27       -5.2320    1.9620   -1.3960 hn        1 TD1      0.488133
     35 HN2A       -6.6740    2.5900   -2.0340 hn        1 TD1      0.488133
     36 H28        -8.7360    0.5450   -1.6190 h1        1 TD1      0.100200
     37 H28A       -9.0490    0.9240    0.1470 h1        1 TD1      0.100200
     38 HO45       -9.3770    2.9780   -0.5060 ho        1 TD1      0.437000
     39 H92        -2.3380   -0.3700    0.9190 hn        1 TD1      0.478800
     40 H273       -6.1710    1.0180   -2.3930 hn        1 TD1      0.488133
@<TRIPOS>BOND
     1    1    2 ar  
     2    1    6 ar  
     3    1    7 1   
     4    2    3 ar  
     5    2   10 1   
     6    3    4 ar  
     7    3   11 1   
     8    4    5 ar  
     9    4   24 1   
    10    5    6 ar  
    11    5   25 1   
    12    6   26 1   
    13    7    8 2   
    14    7    9 1   
    15    9   12 1   
    16    9   27 1   
    17    9   39 1   
    18   10   28 1   
    19   11   29 1   
    20   12   13 1   
    21   12   14 1   
    22   12   30 1   
    23   13   16 1   
    24   13   17 1   
    25   14   15 1   
    26   14   31 1   
    27   14   32 1   
    28   15   18 1   
    29   18   19 2   
    30   18   20 1   
    31   20   21 1   
    32   20   22 1   
    33   20   33 1   
    34   21   34 1   
    35   21   35 1   
    36   21   40 1   
    37   22   23 1   
    38   22   36 1   
    39   22   37 1   
    40   23   38 1   
@<TRIPOS>SUBSTRUCTURE
     1 TD1         1 TEMP              0 ****  ****    0 ROOT
