@<TRIPOS>MOLECULE
TD1
   40    40     1     0     0
SMALL
bcc


@<TRIPOS>ATOM
      1 C1          0.4040   -0.6490    0.0140 ca        1 TD1     -0.203600
      2 C2          0.5520    0.4910    0.8250 ca        1 TD1      0.156100
      3 C3          1.8330    1.0750    0.9780 ca        1 TD1      0.054100
      4 C4          2.9440    0.5340    0.3310 ca        1 TD1     -0.107000
      5 C5          2.7880   -0.6020   -0.4680 ca        1 TD1     -0.119000
      6 C6          1.5400   -1.1900   -0.6220 ca        1 TD1     -0.055000
      7 C7         -0.8640   -1.3550   -0.1980 c         1 TD1      0.581700
      8 O8         -0.9940   -2.5460   -0.4610 o         1 TD1     -0.439100
      9 N9         -2.1170   -0.5290   -0.1060 n4        1 TD1     -0.652800
     10 O10        -0.5510    1.0030    1.4610 oh        1 TD1     -0.541100
     11 O11         1.8720    2.1850    1.7910 oh        1 TD1     -0.510100
     12 C12        -3.3240   -1.1140   -0.7640 c3        1 TD1     -0.034500
     13 C13        -3.9310   -0.0930   -1.7840 c         1 TD1      0.915600
     14 C14        -4.4490   -1.4610    0.2260 c3        1 TD1      0.137400
     15 O15        -5.2440   -0.2740    0.4010 os        1 TD1     -0.456900
     16 O16        -3.5420    1.1110   -1.7220 o         1 TD1     -0.800800
     17 O17        -4.8720   -0.5050   -2.5050 o         1 TD1     -0.800800
     18 C24        -6.5300   -0.3020   -0.0720 c         1 TD1      0.634100
     19 O25        -7.1480   -1.3560   -0.1210 o         1 TD1     -0.441000
     20 C26        -7.0490    1.0860   -0.4220 c3        1 TD1      0.043500
     21 N27        -6.3100    1.6670   -1.5800 n4        1 TD1     -0.850600
     22 C28        -8.5680    0.9960   -0.7180 c3        1 TD1      0.115400
     23 O45        -9.0190    2.2760   -1.0950 oh        1 TD1     -0.604800
     24 H4          3.9370    0.9980    0.4530 ha        1 TD1      0.166000
     25 H5          3.6650   -1.0340   -0.9760 ha        1 TD1      0.171000
     26 H6          1.4240   -2.0950   -1.2430 ha        1 TD1      0.173000
     27 HN9        -1.9380    0.3990   -0.5490 hn        1 TD1      0.478800
     28 HO10       -0.2740    1.7510    2.0200 ho        1 TD1      0.481000
     29 HO11        2.7920    2.4860    1.8540 ho        1 TD1      0.455000
     30 H12        -3.0260   -2.0520   -1.3190 hx        1 TD1      0.147700
     31 H14        -5.0630   -2.3000   -0.2030 h1        1 TD1      0.103200
     32 H14A       -4.0870   -1.7330    1.2520 h1        1 TD1      0.103200
     33 H26        -6.8780    1.7660    0.4670 hx        1 TD1      0.122700
     34 HN27       -5.3400    1.9180   -1.3110 hn        1 TD1      0.488133
     35 HN2A       -6.8190    2.4900   -1.9160 hn        1 TD1      0.488133
     36 H28        -9.0830    0.5900    0.1900 h1        1 TD1      0.100200
     37 H28A       -8.7560    0.3110   -1.5910 h1        1 TD1      0.100200
     38 HO45       -9.5320    2.6500   -0.3660 ho        1 TD1      0.437000
     39 H92        -2.3040   -0.3470    0.8890 hn        1 TD1      0.478800
     40 H273       -6.2260    0.9670   -2.3490 hn        1 TD1      0.488133
@<TRIPOS>BOND
     1    1    2 ar  
     2    1    6 ar  
     3    1    7 1   
     4    2    3 ar  
     5    2   10 1   
     6    3    4 ar  
     7    3   11 1   
     8    4    5 ar  
     9    4   24 1   
    10    5    6 ar  
    11    5   25 1   
    12    6   26 1   
    13    7    8 2   
    14    7    9 1   
    15    9   12 1   
    16    9   27 1   
    17    9   39 1   
    18   10   28 1   
    19   11   29 1   
    20   12   13 1   
    21   12   14 1   
    22   12   30 1   
    23   13   16 1   
    24   13   17 1   
    25   14   15 1   
    26   14   31 1   
    27   14   32 1   
    28   15   18 1   
    29   18   19 2   
    30   18   20 1   
    31   20   21 1   
    32   20   22 1   
    33   20   33 1   
    34   21   34 1   
    35   21   35 1   
    36   21   40 1   
    37   22   23 1   
    38   22   36 1   
    39   22   37 1   
    40   23   38 1   
@<TRIPOS>SUBSTRUCTURE
     1 TD1         1 TEMP              0 ****  ****    0 ROOT
