@<TRIPOS>MOLECULE
TD1
   40    40     1     0     0
SMALL
bcc


@<TRIPOS>ATOM
      1 C1          0.3810   -0.7420    0.0110 ca        1 TD1     -0.203600
      2 C2          0.5520    0.3740    0.8500 ca        1 TD1      0.156100
      3 C3          1.8460    0.9210    1.0240 ca        1 TD1      0.054100
      4 C4          2.9480    0.3670    0.3720 ca        1 TD1     -0.107000
      5 C5          2.7680   -0.7440   -0.4550 ca        1 TD1     -0.119000
      6 C6          1.5070   -1.2970   -0.6310 ca        1 TD1     -0.055000
      7 C7         -0.9030   -1.4100   -0.2260 c         1 TD1      0.581700
      8 O8         -1.0620   -2.5900   -0.5190 o         1 TD1     -0.439100
      9 N9         -2.1360   -0.5540   -0.1200 ny        1 TD1     -0.652800
     10 O10        -0.5410    0.8990    1.4920 oh        1 TD1     -0.541100
     11 O11         1.9090    2.0100    1.8650 oh        1 TD1     -0.510100
     12 C12        -3.3530   -1.0930   -0.8000 c3        1 TD1     -0.034500
     13 C13        -3.9290   -0.0310   -1.7960 c         1 TD1      0.915600
     14 C14        -4.4920   -1.4360    0.1760 c3        1 TD1      0.137400
     15 O15        -5.2580   -0.2340    0.3780 os        1 TD1     -0.456900
     16 O16        -3.5110    1.1610   -1.7020 o         1 TD1     -0.800800
     17 O17        -4.8770   -0.4010   -2.5310 o         1 TD1     -0.800800
     18 C24        -6.5420   -0.2190   -0.1030 c         1 TD1      0.634100
     19 O25        -7.1860   -1.2550   -0.1810 o         1 TD1     -0.441000
     20 C26        -7.0240    1.1910   -0.4190 c3        1 TD1      0.043500
     21 N27        -6.2650    1.7820   -1.5590 nz        1 TD1     -0.850600
     22 C28        -8.5430    1.1460   -0.7250 c3        1 TD1      0.115400
     23 O45        -8.9600    2.4460   -1.0710 oh        1 TD1     -0.604800
     24 H4          3.9510    0.8020    0.5110 ha        1 TD1      0.166000
     25 H5          3.6370   -1.1870   -0.9690 ha        1 TD1      0.171000
     26 H6          1.3720   -2.1830   -1.2750 ha        1 TD1      0.173000
     27 HN9        -1.9300    0.3800   -0.5400 hn        1 TD1      0.478800
     28 HO10       -0.2490    1.6260    2.0700 ho        1 TD1      0.481000
     29 HO11        2.8360    2.2850    1.9410 ho        1 TD1      0.455000
     30 H12        -3.0750   -2.0230   -1.3770 hx        1 TD1      0.147700
     31 H14        -4.1420   -1.7430    1.1960 h1        1 TD1      0.103200
     32 H14A       -5.1240   -2.2480   -0.2780 h1        1 TD1      0.103200
     33 H26        -6.8410    1.8440    0.4870 hx        1 TD1      0.122700
     34 HN27       -5.2900    2.0020   -1.2780 hn        1 TD1      0.488133
     35 HN2A       -6.7510    2.6260   -1.8760 hn        1 TD1      0.488133
     36 H28        -9.0730    0.7300    0.1700 h1        1 TD1      0.100200
     37 H28A       -8.7440    0.4890   -1.6160 h1        1 TD1      0.100200
     38 HO45       -9.4680    2.8140   -0.3360 ho        1 TD1      0.437000
     39 H92        -2.3240   -0.3920    0.8770 hn        1 TD1      0.478800
     40 H273       -6.1940    1.1000   -2.3440 hn        1 TD1      0.488133
@<TRIPOS>BOND
     1    1    2 ar  
     2    1    6 ar  
     3    1    7 1   
     4    2    3 ar  
     5    2   10 1   
     6    3    4 ar  
     7    3   11 1   
     8    4    5 ar  
     9    4   24 1   
    10    5    6 ar  
    11    5   25 1   
    12    6   26 1   
    13    7    8 2   
    14    7    9 1   
    15    9   12 1   
    16    9   27 1   
    17    9   39 1   
    18   10   28 1   
    19   11   29 1   
    20   12   13 1   
    21   12   14 1   
    22   12   30 1   
    23   13   16 1   
    24   13   17 1   
    25   14   15 1   
    26   14   31 1   
    27   14   32 1   
    28   15   18 1   
    29   18   19 2   
    30   18   20 1   
    31   20   21 1   
    32   20   22 1   
    33   20   33 1   
    34   21   34 1   
    35   21   35 1   
    36   21   40 1   
    37   22   23 1   
    38   22   36 1   
    39   22   37 1   
    40   23   38 1   
@<TRIPOS>SUBSTRUCTURE
     1 TD1         1 TEMP              0 ****  ****    0 ROOT
