@<TRIPOS>MOLECULE
TD3
   27    26     1     0     0
SMALL
bcc


@<TRIPOS>ATOM
      1 O01         0.8960   -2.0720    0.6510 oh        1 TD3     -0.477100
      2 N02         1.0490   -1.4750   -0.5440 n         1 TD3     -0.312300
      3 C03         2.4670   -1.1960   -0.7600 c3        1 TD3      0.066000
      4 C04         3.0950   -0.1450    0.1540 c3        1 TD3     -0.117400
      5 C05         4.5680    0.0150   -0.1460 c3        1 TD3     -0.072400
      6 C06         5.1510    1.1330    0.7000 c3        1 TD3      0.126400
      7 O07         6.5480    1.1950    0.4350 oh        1 TD3     -0.616800
      8 C12         0.1350   -0.3460   -0.7740 c         1 TD3      0.593100
      9 O13         0.5300    0.5240   -1.5620 o         1 TD3     -0.599100
     10 C14        -1.2250   -0.4450   -0.0900 c3        1 TD3      0.141400
     11 O15        -2.0650    0.5660   -0.4470 os        1 TD3     -0.532200
     12 P16        -3.5670    0.3310    0.4670 p5        1 TD3      1.307900
     13 O17        -4.4490    1.4390   -0.0220 o         1 TD3     -0.925167
     14 O18        -3.9060   -1.0710    0.0330 o         1 TD3     -0.925167
     15 O19        -3.0280    0.4360    1.8680 o         1 TD3     -0.925167
     16 HO01       -0.0000   -2.4620    0.6330 ho        1 TD3      0.436000
     17 H103        3.0260   -2.1650   -0.6390 h1        1 TD3      0.044200
     18 H203        2.5510   -0.8530   -1.8290 h1        1 TD3      0.044200
     19 H104        2.5610    0.8310    0.0020 hc        1 TD3      0.062700
     20 H204        2.9520   -0.4460    1.2250 hc        1 TD3      0.062700
     21 H105        5.1180   -0.9380    0.0670 hc        1 TD3      0.041700
     22 H205        4.7200    0.2540   -1.2300 hc        1 TD3      0.041700
     23 H106        4.6690    2.1140    0.4400 h1        1 TD3      0.024700
     24 H206        4.9880    0.9280    1.7920 h1        1 TD3      0.024700
     25 HO07        6.8780    1.9600    0.9170 ho        1 TD3      0.384000
     26 H114       -1.6840   -1.4440   -0.3650 h1        1 TD3      0.050700
     27 H214       -1.0410   -0.4200    1.0290 h1        1 TD3      0.050700
@<TRIPOS>BOND
     1    1    2 1   
     2    1   16 1   
     3    2    3 1   
     4    2    8 1   
     5    3    4 1   
     6    3   17 1   
     7    3   18 1   
     8    4    5 1   
     9    4   19 1   
    10    4   20 1   
    11    5    6 1   
    12    5   21 1   
    13    5   22 1   
    14    6    7 1   
    15    6   23 1   
    16    6   24 1   
    17    7   25 1   
    18    8    9 2   
    19    8   10 1   
    20   10   11 1   
    21   10   26 1   
    22   10   27 1   
    23   11   12 1   
    24   12   13 1   
    25   12   14 1   
    26   12   15 1   
@<TRIPOS>SUBSTRUCTURE
     1 TD3         1 TEMP              0 ****  ****    0 ROOT
