@<TRIPOS>MOLECULE
TD3
   28    27     1     0     0
SMALL
bcc


@<TRIPOS>ATOM
      1 O01         0.0000    0.0000    0.0000 oh        1 TD3     -0.512300
      2 N02         1.4160    0.0000    0.0000 nx        1 TD3      0.174300
      3 C03         2.1480    0.0000    1.2690 c3        1 TD3     -0.017200
      4 C04         2.7270    1.3930    1.5240 c3        1 TD3     -0.036400
      5 C05         3.4910    1.3930    2.8490 c3        1 TD3     -0.032400
      6 C06         4.0690    2.7870    3.1050 c3        1 TD3      0.227400
      7 O07         4.7840    2.7870    4.3420 oh        1 TD3     -0.597800
      8 C12         2.0900   -0.0000   -1.1670 c         1 TD3      0.302100
      9 O13         3.3030    0.0000   -1.1670 o         1 TD3     -0.522100
     10 C14         1.3360    0.0000   -2.4720 c3        1 TD3      0.246400
     11 O15         2.2650    0.0010   -3.5580 os        1 TD3     -0.446200
     12 P16         1.8090    0.0000   -5.1030 p5        1 TD3      0.743900
     13 O17         3.1070    0.1340   -6.0450 o         1 TD3     -0.601500
     14 O18         1.0420   -1.3750   -5.4360 o         1 TD3     -0.601500
     15 O19         0.9010    1.1430   -5.3490 o         1 TD3     -0.601500
     16 HO01       -0.3140    0.8490    0.2640 ho        1 TD3      0.410000
     17 H103        1.4750   -0.2640    2.0750 hx        1 TD3      0.053200
     18 H203        2.9540   -0.7220    1.2210 hx        1 TD3      0.053200
     19 H104        1.9210    2.1160    1.5710 hc        1 TD3      0.032700
     20 H204        3.4010    1.6570    0.7180 hc        1 TD3      0.032700
     21 H105        4.2970    0.6710    2.8020 hc        1 TD3      0.023200
     22 H205        2.8160    1.1290    3.6550 hc        1 TD3      0.023200
     23 H106        4.7430    3.0510    2.2990 h1        1 TD3     -0.011800
     24 H206        3.2640    3.5090    3.1530 h1        1 TD3     -0.011800
     25 HO07        5.1400    3.6450    4.5000 ho        1 TD3      0.390000
     26 H114        0.7140   -0.8840   -2.5300 h1        1 TD3      0.007200
     27 H214        0.7130    0.8850   -2.5290 h1        1 TD3      0.007200
     28 H021        1.4150   -1.0010    0.0020 hn        1 TD3      0.265800
@<TRIPOS>BOND
     1    1    2 1   
     2    1   16 1   
     3    2    3 1   
     4    2    8 1   
     5    2   28 1   
     6    3    4 1   
     7    3   17 1   
     8    3   18 1   
     9    4    5 1   
    10    4   19 1   
    11    4   20 1   
    12    5    6 1   
    13    5   21 1   
    14    5   22 1   
    15    6    7 1   
    16    6   23 1   
    17    6   24 1   
    18    7   25 1   
    19    8    9 2   
    20    8   10 1   
    21   10   11 1   
    22   10   26 1   
    23   10   27 1   
    24   11   12 1   
    25   12   13 1   
    26   12   14 1   
    27   12   15 1   
@<TRIPOS>SUBSTRUCTURE
     1 TD3         1 TEMP              0 ****  ****    0 ROOT
