@<TRIPOS>MOLECULE
TD3
   27    26     1     0     0
SMALL
bcc


@<TRIPOS>ATOM
      1 O01        -1.5060    0.9050   -0.4460 oh        1 TD3     -0.894100
      2 N02        -0.2240    0.4440   -0.3940 n         1 TD3     -0.063300
      3 C03         0.4300    0.2570    0.8920 c3        1 TD3      0.011000
      4 C04        -0.4460   -0.6090    1.7860 c3        1 TD3     -0.102400
      5 C05         0.2580   -0.8460    3.1080 c3        1 TD3     -0.073400
      6 C06        -0.6400   -1.6270    4.0200 c3        1 TD3      0.125400
      7 O07        -0.0210   -1.7740    5.2700 oh        1 TD3     -0.617800
      8 C12         0.5190    0.2300   -1.6210 c         1 TD3      0.529100
      9 O13         1.5120   -0.4820   -1.6170 o         1 TD3     -0.731100
     10 C14         0.0190    0.8540   -2.9470 c3        1 TD3      0.136400
     11 O15         1.0050    0.6290   -3.9920 os        1 TD3     -0.575200
     12 P16         0.7680    1.3210   -5.4400 p5        1 TD3      1.354900
     13 O17        -0.6100    0.9720   -5.9470 o         1 TD3     -0.751500
     14 O18         0.8900    2.8230   -5.3080 o         1 TD3     -0.751500
     15 O19         1.8090    0.8130   -6.4180 o         1 TD3     -0.751500
     16 HO01       -1.5100    1.7890   -0.3160 ho        1 TD3      0.480000
     17 H103        1.3040   -0.1870    0.7570 h1        1 TD3      0.021700
     18 H203        0.5670    1.1210    1.3130 h1        1 TD3      0.021700
     19 H104       -0.6120   -1.4740    1.3430 hc        1 TD3      0.048200
     20 H204       -1.2900   -0.1600    1.9460 hc        1 TD3      0.048200
     21 H105        0.4730    0.0160    3.5230 hc        1 TD3      0.038200
     22 H205        1.0800   -1.3460    2.9550 hc        1 TD3      0.038200
     23 H106       -0.8110   -2.5140    3.6320 h1        1 TD3      0.015700
     24 H206       -1.4900   -1.1480    4.1290 h1        1 TD3      0.015700
     25 HO07       -0.5330   -2.2640    5.7970 ho        1 TD3      0.374000
     26 H114       -0.1140    1.8210   -2.8250 h1        1 TD3      0.025700
     27 H214       -0.8260    0.4380   -3.2030 h1        1 TD3      0.025700
@<TRIPOS>BOND
     1    1    2 1   
     2    1   16 1   
     3    2    3 1   
     4    2    8 1   
     5    3    4 1   
     6    3   17 1   
     7    3   18 1   
     8    4    5 1   
     9    4   19 1   
    10    4   20 1   
    11    5    6 1   
    12    5   21 1   
    13    5   22 1   
    14    6    7 1   
    15    6   23 1   
    16    6   24 1   
    17    7   25 1   
    18    8    9 2   
    19    8   10 1   
    20   10   11 1   
    21   10   26 1   
    22   10   27 1   
    23   11   12 1   
    24   12   13 1   
    25   12   14 1   
    26   12   15 1   
@<TRIPOS>SUBSTRUCTURE
     1 TD3         1 TEMP              0 ****  ****    0 ROOT
