@<TRIPOS>MOLECULE
TD3
   27    26     1     0     0
SMALL
bcc


@<TRIPOS>ATOM
      1 O01         0.4170    0.1890   -0.0180 oh        1 TD3     -0.477100
      2 N02         1.5880   -0.4710    0.0310 n         1 TD3     -0.312300
      3 C03         2.2490   -0.1770    1.3000 c3        1 TD3      0.066000
      4 C04         2.7350    1.2590    1.4910 c3        1 TD3     -0.117400
      5 C05         3.3600    1.4370    2.8560 c3        1 TD3     -0.072400
      6 C06         3.9270    2.8390    2.9880 c3        1 TD3      0.126400
      7 O07         4.4360    2.9790    4.3100 oh        1 TD3     -0.616800
      8 C12         2.4180   -0.3130   -1.1730 c         1 TD3      0.593100
      9 O13         3.6400   -0.4400   -1.0130 o         1 TD3     -0.599100
     10 C14         1.6590   -0.1130   -2.4810 c3        1 TD3      0.141400
     11 O15         2.4810   -0.1020   -3.5670 os        1 TD3     -0.532200
     12 P16         1.4540    0.1860   -4.9830 p5        1 TD3      1.307900
     13 O17         2.4160    0.1270   -6.1300 o         1 TD3     -0.925167
     14 O18         0.4860   -0.9570   -4.8270 o         1 TD3     -0.925167
     15 O19         0.8910    1.5330   -4.6160 o         1 TD3     -0.925167
     16 HO01       -0.0880   -0.2340   -0.7410 ho        1 TD3      0.436000
     17 H103        3.1300   -0.8750    1.3540 h1        1 TD3      0.044200
     18 H203        1.5280   -0.4290    2.1250 h1        1 TD3      0.044200
     19 H104        3.4850    1.4960    0.6890 hc        1 TD3      0.062700
     20 H204        1.8740    1.9660    1.3670 hc        1 TD3      0.062700
     21 H105        4.1810    0.6900    3.0090 hc        1 TD3      0.041700
     22 H205        2.5990    1.2660    3.6600 hc        1 TD3      0.041700
     23 H106        3.1260    3.6070    2.8140 h1        1 TD3      0.024700
     24 H206        4.7510    3.0000    2.2430 h1        1 TD3      0.024700
     25 HO07        4.8620    3.8420    4.3430 ho        1 TD3      0.384000
     26 H114        1.1070    0.8740   -2.4010 h1        1 TD3      0.050700
     27 H214        0.9020   -0.9510   -2.5780 h1        1 TD3      0.050700
@<TRIPOS>BOND
     1    1    2 1   
     2    1   16 1   
     3    2    3 1   
     4    2    8 1   
     5    3    4 1   
     6    3   17 1   
     7    3   18 1   
     8    4    5 1   
     9    4   19 1   
    10    4   20 1   
    11    5    6 1   
    12    5   21 1   
    13    5   22 1   
    14    6    7 1   
    15    6   23 1   
    16    6   24 1   
    17    7   25 1   
    18    8    9 2   
    19    8   10 1   
    20   10   11 1   
    21   10   26 1   
    22   10   27 1   
    23   11   12 1   
    24   12   13 1   
    25   12   14 1   
    26   12   15 1   
@<TRIPOS>SUBSTRUCTURE
     1 TD3         1 TEMP              0 ****  ****    0 ROOT
