@<TRIPOS>MOLECULE
TD4
   31    30     1     0     0
SMALL
bcc


@<TRIPOS>ATOM
      1 O01         0.4590    0.6150   -0.0560 o         1 TD4     -0.669000
      2 N02         1.7040    0.8070   -0.2880 n4        1 TD4     -0.130000
      3 C03         2.5940    0.5710    0.9180 c3        1 TD4      0.087800
      4 C04         2.8060    1.8220    1.7600 c3        1 TD4     -0.089400
      5 C05         3.7440    1.5280    2.9130 c3        1 TD4     -0.096400
      6 C06         4.0190    2.7850    3.7500 c3        1 TD4      0.203400
      7 O07         4.8900    2.4850    4.7710 os        1 TD4     -0.568200
      8 P08         5.2490    3.9150    5.6940 p5        1 TD4      1.314900
      9 O09         5.8400    4.8230    4.6460 o         1 TD4     -0.939167
     10 O10         6.2040    3.3890    6.7320 o         1 TD4     -0.939167
     11 O11         3.8840    4.3180    6.1910 o         1 TD4     -0.939167
     12 C12         2.1410   -0.0590   -1.4770 c         1 TD4      0.486100
     13 O13         2.7660   -1.0930   -1.2680 o         1 TD4     -0.494100
     14 C14         1.6740    0.4650   -2.8280 c3        1 TD4      0.133400
     15 O15         2.2450   -0.2680   -3.8530 os        1 TD4     -0.557200
     16 P16         1.2300   -0.8560   -5.0340 p5        1 TD4      1.432800
     17 O17         0.6440   -2.1620   -4.2550 oh        1 TD4     -0.778400
     18 O18         2.0500   -1.2580   -6.1890 o         1 TD4     -0.836500
     19 O19         0.0740    0.0660   -5.0470 o         1 TD4     -0.836500
     20 HO01       -0.1010   -1.9500   -3.7050 ho        1 TD4      0.428000
     21 H03         2.1000   -0.2280    1.5340 hx        1 TD4      0.072200
     22 H03A        3.5860    0.1890    0.5520 hx        1 TD4      0.072200
     23 H04         3.2400    2.6440    1.1320 hc        1 TD4      0.043700
     24 H04A        1.8220    2.1840    2.1580 hc        1 TD4      0.043700
     25 H05         3.3010    0.7400    3.5740 hc        1 TD4      0.025200
     26 H05A        4.7170    1.1330    2.5250 hc        1 TD4      0.025200
     27 H06         3.0500    3.1750    4.1740 h1        1 TD4      0.005700
     28 H06A        4.4600    3.5880    3.0920 h1        1 TD4      0.005700
     29 H14         0.5460    0.4210   -2.8630 h1        1 TD4      0.067200
     30 H14A        2.0100    1.5400   -2.9100 h1        1 TD4      0.067200
     31 H021        1.8870    1.7870   -0.5890 hn        1 TD4      0.358800
@<TRIPOS>BOND
     1    1    2 1   
     2    2    3 1   
     3    2   12 1   
     4    2   31 1   
     5    3    4 1   
     6    3   21 1   
     7    3   22 1   
     8    4    5 1   
     9    4   23 1   
    10    4   24 1   
    11    5    6 1   
    12    5   25 1   
    13    5   26 1   
    14    6    7 1   
    15    6   27 1   
    16    6   28 1   
    17    7    8 1   
    18    8    9 1   
    19    8   10 1   
    20    8   11 1   
    21   12   13 2   
    22   12   14 1   
    23   14   15 1   
    24   14   29 1   
    25   14   30 1   
    26   15   16 1   
    27   16   17 1   
    28   16   18 1   
    29   16   19 1   
    30   17   20 1   
@<TRIPOS>SUBSTRUCTURE
     1 TD4         1 TEMP              0 ****  ****    0 ROOT
