@<TRIPOS>MOLECULE
TD4
   30    29     1     0     0
SMALL
bcc


@<TRIPOS>ATOM
      1 O01        -1.2860    0.3880    0.9470 oh        1 TD4     -0.459100
      2 N02        -1.1710   -0.6760    0.1360 n         1 TD4     -0.316300
      3 C03         0.1110   -0.6260   -0.5830 c3        1 TD4      0.057000
      4 C04         1.3490   -0.6610    0.3150 c3        1 TD4     -0.072400
      5 C05         2.6220   -0.6370   -0.5080 c3        1 TD4     -0.106400
      6 C06         3.8860   -0.7450    0.3640 c3        1 TD4      0.228400
      7 O07         4.9840   -1.0290   -0.4120 os        1 TD4     -0.576200
      8 P08         6.4680   -0.2800    0.0790 p5        1 TD4      1.321900
      9 O09         6.8290   -1.0340    1.3350 o         1 TD4     -0.943833
     10 O10         7.3610   -0.5410   -1.1070 o         1 TD4     -0.943833
     11 O11         6.0750    1.1590    0.2980 o         1 TD4     -0.943833
     12 C12        -2.3640   -0.8980   -0.6760 c         1 TD4      0.588100
     13 O13        -2.2240   -1.5460   -1.7240 o         1 TD4     -0.603100
     14 C14        -3.6910   -0.3710   -0.1020 c3        1 TD4      0.169400
     15 O15        -4.7660   -0.7500   -0.8460 os        1 TD4     -0.543200
     16 P16        -6.2590   -0.8910    0.0660 p5        1 TD4      1.316900
     17 O17        -6.6750    0.5500    0.1940 o         1 TD4     -0.933167
     18 O18        -7.1250   -1.7460   -0.8180 o         1 TD4     -0.933167
     19 O19        -5.7800   -1.5240    1.3470 o         1 TD4     -0.933167
     20 HO01       -1.7680    0.0550    1.7270 ho        1 TD4      0.409000
     21 H03         0.1140   -1.5250   -1.2600 h1        1 TD4      0.038700
     22 H03A        0.1660    0.2980   -1.2270 h1        1 TD4      0.038700
     23 H04         1.3330    0.2170    1.0110 hc        1 TD4      0.031700
     24 H04A        1.3280   -1.5870    0.9460 hc        1 TD4      0.031700
     25 H05         2.6180   -1.4870   -1.2370 hc        1 TD4      0.024200
     26 H05A        2.6740    0.3100   -1.1030 hc        1 TD4      0.024200
     27 H06         4.0390    0.2160    0.9330 h1        1 TD4     -0.014300
     28 H06A        3.6980   -1.5780    1.1110 h1        1 TD4     -0.014300
     29 H14        -3.7930   -0.7380    0.9640 h1        1 TD4      0.027700
     30 H14A       -3.5570    0.7550   -0.1040 h1        1 TD4      0.027700
@<TRIPOS>BOND
     1    1    2 1   
     2    1   20 1   
     3    2    3 1   
     4    2   12 1   
     5    3    4 1   
     6    3   21 1   
     7    3   22 1   
     8    4    5 1   
     9    4   23 1   
    10    4   24 1   
    11    5    6 1   
    12    5   25 1   
    13    5   26 1   
    14    6    7 1   
    15    6   27 1   
    16    6   28 1   
    17    7    8 1   
    18    8    9 1   
    19    8   10 1   
    20    8   11 1   
    21   12   13 2   
    22   12   14 1   
    23   14   15 1   
    24   14   29 1   
    25   14   30 1   
    26   15   16 1   
    27   16   17 1   
    28   16   18 1   
    29   16   19 1   
@<TRIPOS>SUBSTRUCTURE
     1 TD4         1 TEMP              0 ****  ****    0 ROOT
