@<TRIPOS>MOLECULE
TD4
   31    30     1     0     0
SMALL
bcc


@<TRIPOS>ATOM
      1 O01         0.2770   -0.0830    0.1430 o         1 TD4     -0.677000
      2 N02         1.4090    0.5030   -0.0050 nx        1 TD4     -0.134000
      3 C03         2.2750    0.4480    1.2390 c3        1 TD4      0.078800
      4 C04         3.0620    1.7260    1.4950 c3        1 TD4     -0.092400
      5 C05         3.7950    1.6390    2.8180 c3        1 TD4     -0.124400
      6 C06         4.5870    2.9290    3.1050 c3        1 TD4      0.247400
      7 O07         5.3880    2.7800    4.2030 os        1 TD4     -0.563200
      8 P08         4.9980    3.8530    5.5210 p5        1 TD4      1.314900
      9 O09         5.0060    5.1940    4.8320 o         1 TD4     -0.936833
     10 O10         6.1210    3.5940    6.4880 o         1 TD4     -0.936833
     11 O11         3.6350    3.3540    5.9240 o         1 TD4     -0.936833
     12 C12         2.1190   -0.0750   -1.2360 c         1 TD4      0.490100
     13 O13         2.9490   -0.9650   -1.0910 o         1 TD4     -0.488100
     14 C14         1.6400    0.5220   -2.5530 c3        1 TD4      0.130400
     15 O15         2.2510   -0.1040   -3.6240 os        1 TD4     -0.555200
     16 P16         1.2690   -0.6460   -4.8540 p5        1 TD4      1.432800
     17 O17         0.7430   -2.0300   -4.1740 oh        1 TD4     -0.779400
     18 O18         2.1070   -0.9310   -6.0320 o         1 TD4     -0.837000
     19 O19         0.0770    0.2290   -4.8120 o         1 TD4     -0.837000
     20 HO01        0.0180   -1.8880   -3.5760 ho        1 TD4      0.429000
     21 H03         1.5750    0.2530    2.0990 hx        1 TD4      0.084700
     22 H03A        2.9710   -0.4280    1.1450 hx        1 TD4      0.084700
     23 H04         3.7980    1.8950    0.6660 hc        1 TD4      0.032200
     24 H04A        2.3720    2.6100    1.5210 hc        1 TD4      0.032200
     25 H05         3.0710    1.4820    3.6590 hc        1 TD4      0.044200
     26 H05A        4.5000    0.7710    2.8070 hc        1 TD4      0.044200
     27 H06         3.8670    3.7860    3.2350 h1        1 TD4     -0.019800
     28 H06A        5.2210    3.1360    2.1870 h1        1 TD4     -0.019800
     29 H14         0.5160    0.4340   -2.6130 h1        1 TD4      0.066200
     30 H14A        1.9360    1.6130   -2.5410 h1        1 TD4      0.066200
     31 H021        1.2840    1.5140   -0.2210 hn        1 TD4      0.358800
@<TRIPOS>BOND
     1    1    2 1   
     2    2    3 1   
     3    2   12 1   
     4    2   31 1   
     5    3    4 1   
     6    3   21 1   
     7    3   22 1   
     8    4    5 1   
     9    4   23 1   
    10    4   24 1   
    11    5    6 1   
    12    5   25 1   
    13    5   26 1   
    14    6    7 1   
    15    6   27 1   
    16    6   28 1   
    17    7    8 1   
    18    8    9 1   
    19    8   10 1   
    20    8   11 1   
    21   12   13 2   
    22   12   14 1   
    23   14   15 1   
    24   14   29 1   
    25   14   30 1   
    26   15   16 1   
    27   16   17 1   
    28   16   18 1   
    29   16   19 1   
    30   17   20 1   
@<TRIPOS>SUBSTRUCTURE
     1 TD4         1 TEMP              0 ****  ****    0 ROOT
