@<TRIPOS>MOLECULE
TD4
   31    30     1     0     0
SMALL
bcc


@<TRIPOS>ATOM
      1 O01         0.4210    0.8270   -0.0830 o         1 TD4     -0.669000
      2 N02         1.6850    0.8680   -0.2900 n4        1 TD4     -0.130000
      3 C03         2.5170    0.6190    0.9540 c3        1 TD4      0.087800
      4 C04         2.8470    1.8950    1.7180 c3        1 TD4     -0.089400
      5 C05         3.7200    1.5800    2.9150 c3        1 TD4     -0.096400
      6 C06         4.1140    2.8540    3.6750 c3        1 TD4      0.203400
      7 O07         4.9220    2.5320    4.7400 os        1 TD4     -0.568200
      8 P08         5.4180    3.9740    5.5770 p5        1 TD4      1.314900
      9 O09         6.1330    4.7350    4.4890 o         1 TD4     -0.939167
     10 O10         6.2830    3.4200    6.6770 o         1 TD4     -0.939167
     11 O11         4.0960    4.5600    6.0030 o         1 TD4     -0.939167
     12 C12         2.0500   -0.1190   -1.4070 c         1 TD4      0.486100
     13 O13         2.5550   -1.1980   -1.1130 o         1 TD4     -0.494100
     14 C14         1.6730    0.3590   -2.8020 c3        1 TD4      0.133400
     15 O15         2.1820   -0.4980   -3.7610 os        1 TD4     -0.557200
     16 P16         1.1360   -1.0540   -4.9290 p5        1 TD4      1.432800
     17 O17         0.3950   -2.2340   -4.0850 oh        1 TD4     -0.778400
     18 O18         1.9320   -1.6180   -6.0320 o         1 TD4     -0.836500
     19 O19         0.0860   -0.0160   -5.0360 o         1 TD4     -0.836500
     20 HO01       -0.3350   -1.9070   -3.5710 ho        1 TD4      0.428000
     21 H03         3.4690    0.1070    0.6430 hx        1 TD4      0.072200
     22 H03A        1.9240   -0.0770    1.6060 hx        1 TD4      0.072200
     23 H04         1.9000    2.3880    2.0610 hc        1 TD4      0.043700
     24 H04A        3.3840    2.6200    1.0500 hc        1 TD4      0.043700
     25 H05         4.6510    1.0540    2.5840 hc        1 TD4      0.025200
     26 H05A        3.1780    0.8930    3.6130 hc        1 TD4      0.025200
     27 H06         3.1850    3.3770    4.0420 h1        1 TD4      0.005700
     28 H06A        4.6580    3.5560    2.9790 h1        1 TD4      0.005700
     29 H14         2.1260    1.3850   -2.9450 h1        1 TD4      0.067200
     30 H14A        0.5480    0.4340   -2.8670 h1        1 TD4      0.067200
     31 H021        1.9810    1.8000   -0.6490 hn        1 TD4      0.358800
@<TRIPOS>BOND
     1    1    2 1   
     2    2    3 1   
     3    2   12 1   
     4    2   31 1   
     5    3    4 1   
     6    3   21 1   
     7    3   22 1   
     8    4    5 1   
     9    4   23 1   
    10    4   24 1   
    11    5    6 1   
    12    5   25 1   
    13    5   26 1   
    14    6    7 1   
    15    6   27 1   
    16    6   28 1   
    17    7    8 1   
    18    8    9 1   
    19    8   10 1   
    20    8   11 1   
    21   12   13 2   
    22   12   14 1   
    23   14   15 1   
    24   14   29 1   
    25   14   30 1   
    26   15   16 1   
    27   16   17 1   
    28   16   18 1   
    29   16   19 1   
    30   17   20 1   
@<TRIPOS>SUBSTRUCTURE
     1 TD4         1 TEMP              0 ****  ****    0 ROOT
