@<TRIPOS>MOLECULE
TD6
   54    70     1     0     0
SMALL
bcc


@<TRIPOS>ATOM
      1 S1          0.0000    0.0000    0.0000 ss        1 TD6      0.042000
      2 C2          1.7100    0.0000    0.0000 c2        1 TD6     -0.495000
      3 N3          2.1560    0.0000    1.2110 n3        1 TD6      0.370000
      4 C4          1.2620    0.0000    2.1790 DU        1 TD6     -0.184000
      5 C5         -0.0080    0.0010    1.7620 DU        1 TD6      0.168000
      6 C6         -1.2300    0.0010    2.6430 DU        1 TD6     -0.176000
      7 C7         -1.6450    1.4440    2.9400 c3        1 TD6     -0.040000
      8 O7         -2.8040    1.4440    3.7750 os        1 TD6     -0.473000
      9 PA         -3.5150    2.7950    4.2870 p5        1 TD6      1.430000
     10 PB         -6.1890    3.2380    5.4880 p5        1 TD6      1.129500
     11 N1'         3.7040   -3.7200    1.4530 n2        1 TD6     -0.230000
     12 C11         2.5730   -0.0000   -1.2360 DU        1 TD6     -0.886000
     13 O1A        -3.8570    3.6440    3.1230 o         1 TD6     -0.648500
     14 O1B        -6.9250    2.5020    6.7160 o         1 TD6     -0.385167
     15 C2'         4.9960   -3.9430    1.5860 DU        1 TD6      0.538000
     16 O2A        -2.5120    3.5940    5.2590 o         1 TD6     -0.648500
     17 O2B        -5.8220    4.6150    5.8880 o         1 TD6     -0.385167
     18 N3'         5.8640   -2.9570    1.6920 n2        1 TD6     -0.273000
     19 O3A        -4.8590    2.4220    5.0920 os        1 TD6     -0.949000
     20 O3B        -7.1820    3.2940    4.2230 o         1 TD6     -0.385167
     21 C4'         5.4600   -1.6910    1.6690 c3        1 TD6      0.042000
     22 N4'         6.3760   -0.6580    1.7800 n8        1 TD6     -0.102000
     23 C5'         4.0970   -1.4200    1.5290 c2        1 TD6     -0.471000
     24 C6'         3.2250   -2.4840    1.4220 c2        1 TD6     -0.056000
     25 C7'         3.5920   -0.0000    1.4970 c3        1 TD6     -0.566000
     26 OL1         2.0630   -0.9540   -2.1710 oh        1 TD6     -0.445000
     27 ClB         2.5590    1.3930   -1.8680 cl        1 TD6      4.975000
     28 ClC         3.5160    2.7980   -3.6720 cl        1 TD6      3.949000
     29 CM4         1.6410    0.0010    3.6390 c3        1 TD6     -0.047000
     30 H6         -0.6030    0.1960    1.7820 DU        1 TD6     -0.274000
     31 H6A        -0.7320    0.4070    1.7710 DU        1 TD6     -0.274000
     32 H7         -0.8910    1.6790    2.1990 DU        1 TD6      0.109000
     33 H7A        -0.8360    1.0600    2.3310 DU        1 TD6      0.346000
     34 H11         1.9110   -0.1780   -0.3960 ha        1 TD6      0.002000
     35 H13         2.7620    1.1590   -2.3350 DU        1 TD6     -0.824500
     36 H13A        2.7340    1.5130   -2.3210 DU        1 TD6     -0.824500
     37 HN4'        5.4570   -0.3250    1.9930 hn        1 TD6      0.123000
     38 HN4A        5.6670   -0.5580    1.0810 DU        1 TD6      0.118000
     39 H6'         3.3510   -1.8900    0.5250 h4        1 TD6      0.271000
     40 H7'         3.3290    0.1890    0.4640 h1        1 TD6      0.271500
     41 H7'A        4.6560   -0.1210    1.3320 h1        1 TD6      0.271500
     42 HOL1        2.6990   -0.8510   -1.4830 DU        1 TD6      0.364000
     43 HLB         2.4710    0.5910   -1.1450 DU        1 TD6     -0.610000
     44 HLBA        3.0970    1.1030   -0.9730 ha        1 TD6     -0.584000
     45 HM2         5.1940   -4.3360    1.7750 DU        1 TD6     -0.218000
     46 HM2A        4.8510   -4.7030    1.0500 DU        1 TD6      0.020000
     47 HM2B        5.1950   -4.3960    1.2370 DU        1 TD6     -0.370000
     48 HM4         1.6220    0.3340    2.6080 DU        1 TD6      0.081000
     49 HM4A        2.1070   -0.3520    2.7270 DU        1 TD6      0.081000
     50 HM4B        2.2940   -0.2310    2.8060 DU        1 TD6      0.081000
     51 C13         3.5310    1.4260   -3.0500 c3        1 TD6     -3.139000
     52 OL2         4.2980    3.0630   -4.7320 o         1 TD6     -1.592000
     53 OL3         2.8030    3.6610   -3.2180 o         1 TD6     -1.592000
     54 CM2         5.4950   -5.3650    1.6170 c3        1 TD6      0.362000
@<TRIPOS>BOND
     1    1    2 1   
     2    1    5 1   
     3    2    3 1   
     4    2   12 1   
     5    3    4 1   
     6    3   25 1   
     7    4    5 1   
     8    4   29 1   
     9    4   48 1   
    10    4   49 1   
    11    4   50 1   
    12    5    6 1   
    13    5   30 1   
    14    5   31 1   
    15    6    7 1   
    16    6   30 1   
    17    6   31 1   
    18    6   33 1   
    19    7    8 1   
    20    7   32 1   
    21    7   33 1   
    22    8    9 1   
    23    9   13 1   
    24    9   16 1   
    25    9   19 1   
    26   10   14 1   
    27   10   17 1   
    28   10   19 1   
    29   10   20 1   
    30   11   15 1   
    31   11   24 1   
    32   12   26 1   
    33   12   27 1   
    34   12   34 1   
    35   12   42 1   
    36   12   43 1   
    37   15   18 1   
    38   15   46 1   
    39   15   47 1   
    40   15   54 1   
    41   18   21 1   
    42   21   22 1   
    43   21   23 1   
    44   21   38 1   
    45   22   37 1   
    46   22   38 1   
    47   23   24 1   
    48   23   25 1   
    49   24   39 1   
    50   25   40 1   
    51   25   41 1   
    52   26   42 1   
    53   27   43 1   
    54   27   44 1   
    55   27   51 1   
    56   28   51 1   
    57   28   52 1   
    58   28   53 1   
    59   29   48 1   
    60   29   49 1   
    61   29   50 1   
    62   32   33 1   
    63   35   36 1   
    64   35   51 1   
    65   36   51 1   
    66   45   47 1   
    67   45   54 1   
    68   46   47 1   
    69   46   54 1   
    70   47   54 1   
@<TRIPOS>SUBSTRUCTURE
     1 TD6         1 TEMP              0 ****  ****    0 ROOT
