@<TRIPOS>MOLECULE
TD7
   53    54     1     0     0
SMALL
bcc


@<TRIPOS>ATOM
      1 O1B         7.4870    3.5200    0.7520 o         1 TD7     -0.958167
      2 PB          7.0110    2.6920   -0.4100 p5        1 TD7      1.693500
      3 O3B         6.4900    3.4890   -1.5740 o         1 TD7     -0.958167
      4 O2B         7.9290    1.5650   -0.7930 o         1 TD7     -0.958167
      5 O3A         5.5580    1.8760    0.2570 os        1 TD7     -1.268000
      6 PA          4.3460    1.2190    0.9640 p5        1 TD7      2.053000
      7 O1A         4.6540    0.2210    2.0260 o         1 TD7     -0.933000
      8 O2A         3.1720    2.1090    1.2450 o         1 TD7     -0.933000
      9 O7          3.6260    0.2250   -0.2500 os        1 TD7     -0.725000
     10 C7          2.4420   -0.3510    0.1320 c3        1 TD7      0.104000
     11 C6          1.2600    0.2310   -0.6840 c3        1 TD7     -0.162000
     12 C5         -0.0580   -0.0250   -0.0860 c2        1 TD7     -0.224000
     13 S1         -1.1670   -1.1600   -0.7870 ss        1 TD7      0.240000
     14 C4         -0.5870    0.5520    1.0310 c2        1 TD7     -0.075000
     15 CM4         0.1350    1.5060    1.9060 c3        1 TD7     -0.205000
     16 N3         -1.9080    0.0900    1.3940 na        1 TD7     -0.177000
     17 C2         -2.3430   -0.9120    0.4700 c2        1 TD7     -0.211000
     18 OL1        -4.2730   -1.6240    1.7140 oh        1 TD7     -0.284000
     19 CLB        -3.9690   -2.9430   -0.5580 cl        1 TD7      0.780000
     20 CLC        -6.0720   -4.9130   -1.3890 cl        1 TD7      0.734000
     21 OL2        -7.1430   -4.9120   -2.9210 oh        1 TD7     -0.747000
     22 OL3        -7.0280   -5.8690   -0.3490 o         1 TD7     -0.709000
     23 C7'        -2.8660    1.1140    1.7670 c3        1 TD7      0.006000
     24 C5'        -3.4530    1.9740    0.6870 c2        1 TD7     -0.240000
     25 C6'        -2.6710    2.9980    0.1200 c2        1 TD7      0.002000
     26 N1'        -3.1300    3.8650   -0.8020 n2        1 TD7     -0.207000
     27 C2'        -4.4270    3.6860   -1.2030 c2        1 TD7      0.031000
     28 CM2        -4.9510    4.6340   -2.2570 c3        1 TD7     -0.149000
     29 N3'        -5.2760    2.7200   -0.7590 n2        1 TD7     -0.263000
     30 C4'        -4.7950    1.8510    0.1970 c2        1 TD7      0.144000
     31 C13        -4.6410   -4.5520   -0.3650 c3        1 TD7     -0.794000
     32 N4'        -5.6800    0.9090    0.7310 nh        1 TD7     -0.327000
     33 C11        -3.4240   -1.7190    0.6240 c2        1 TD7     -0.391000
     34 H71C        2.4740   -1.4620   -0.0760 h1        1 TD7      0.031500
     35 H72C        2.2440   -0.1930    1.2300 h1        1 TD7      0.031500
     36 H61C        1.4240    1.3440   -0.7570 hc        1 TD7      0.103000
     37 H62C        1.2980   -0.1880   -1.7220 hc        1 TD7      0.103000
     38 HM41        1.1710    1.7360    1.4890 hc        1 TD7      0.118333
     39 HM42       -0.4210    2.4710    2.0110 hc        1 TD7      0.118333
     40 HM43        0.2740    1.0640    2.9230 hc        1 TD7      0.118333
     41 H7'1       -3.6860    0.6020    2.3440 h1        1 TD7      0.093500
     42 H7'2       -2.3370    1.8010    2.4940 h1        1 TD7      0.093500
     43 HL1        -3.7190   -1.4970    2.4980 ho        1 TD7      0.198000
     44 HLB1       -3.8920   -2.7110   -1.8590 ha        1 TD7     -0.129000
     45 HLB2       -7.9010   -5.4050   -2.6400 ho        1 TD7      0.138000
     46 H131       -3.8550   -5.3010   -0.5790 h2        1 TD7      0.106000
     47 H132       -4.9740   -4.6550    0.6870 h2        1 TD7      0.106000
     48 H6'        -1.6060    3.1180    0.4160 h4        1 TD7      0.203000
     49 HM21       -4.4410    4.4140   -3.2270 hc        1 TD7      0.084000
     50 HM22       -6.0530    4.5220   -2.3960 hc        1 TD7      0.084000
     51 HM23       -4.7280    5.6890   -1.9640 hc        1 TD7      0.084000
     52 H4'1       -5.2320    0.0800    1.0720 hn        1 TD7      0.213000
     53 H4'2       -6.4840    0.7170    0.1730 hn        1 TD7      0.213000
@<TRIPOS>BOND
     1    1    2 1   
     2    2    3 1   
     3    2    4 1   
     4    2    5 1   
     5    5    6 1   
     6    6    7 1   
     7    6    8 1   
     8    6    9 1   
     9    9   10 1   
    10   10   11 1   
    11   10   34 1   
    12   10   35 1   
    13   11   12 1   
    14   11   36 1   
    15   11   37 1   
    16   12   13 1   
    17   12   14 1   
    18   13   17 1   
    19   14   15 1   
    20   14   16 1   
    21   15   38 1   
    22   15   39 1   
    23   15   40 1   
    24   16   17 1   
    25   16   23 1   
    26   17   33 1   
    27   18   33 1   
    28   18   43 1   
    29   19   31 1   
    30   19   33 1   
    31   19   44 1   
    32   20   21 1   
    33   20   22 1   
    34   20   31 1   
    35   21   45 1   
    36   23   24 1   
    37   23   41 1   
    38   23   42 1   
    39   24   25 1   
    40   24   30 1   
    41   25   26 1   
    42   25   48 1   
    43   26   27 1   
    44   27   28 1   
    45   27   29 1   
    46   28   49 1   
    47   28   50 1   
    48   28   51 1   
    49   29   30 1   
    50   30   32 1   
    51   31   46 1   
    52   31   47 1   
    53   32   52 1   
    54   32   53 1   
@<TRIPOS>SUBSTRUCTURE
     1 TD7         1 TEMP              0 ****  ****    0 ROOT
