@<TRIPOS>MOLECULE
TD7
   53    54     1     0     0
SMALL
bcc


@<TRIPOS>ATOM
      1 O1B         0.0000    0.0000    0.0000 o         1 TD7     -0.723833
      2 PB          1.6110    0.0000    0.0000 p5        1 TD7      1.020500
      3 O3B         2.1470    0.0000    1.5180 o         1 TD7     -0.723833
      4 O2B         2.1030   -1.2100   -0.6960 o         1 TD7     -0.723833
      5 O3A         2.1480    1.3130   -0.7600 os        1 TD7     -0.936000
      6 PA          2.2380    1.7520   -2.3060 p5        1 TD7      1.379000
      7 O1A         2.6450    0.5890   -3.1260 o         1 TD7     -0.704500
      8 O2A         0.7990    2.2800   -2.7990 o         1 TD7     -0.704500
      9 O7          3.3250    2.9290   -2.4680 os        1 TD7     -0.669000
     10 C7          3.7110    3.4630   -3.7360 c3        1 TD7      0.147000
     11 C6          4.7570    4.5610   -3.5290 c3        1 TD7     -0.028000
     12 C5          5.1650    5.1250   -4.8650 c2        1 TD7     -0.264000
     13 S1          6.4010    4.4950   -5.9750 ss        1 TD7      0.069000
     14 C4          4.6760    6.1930   -5.4730 c2        1 TD7     -0.195000
     15 CM4         3.5810    7.0030   -4.8280 c3        1 TD7     -0.071000
     16 N3          5.1770    6.5550   -6.6960 na        1 TD7      0.362000
     17 C2          6.1860    5.7470   -7.2210 c2        1 TD7     -0.464000
     18 OL1         6.4370    6.8280   -9.2790 oh        1 TD7     -0.119000
     19 ClB         8.0000    4.9800   -8.7000 cl        1 TD7      4.248000
     20 ClC         8.6800    2.8890   -9.8450 cl        1 TD7      3.897000
     21 OL2         9.7880    3.1730   -9.4530 o         1 TD7     -1.523000
     22 OL3         8.4900    1.7720  -10.5660 o         1 TD7     -1.523000
     23 C7'         4.6760    7.7260   -7.4180 c3        1 TD7     -0.060000
     24 C5'         5.0820    8.9790   -6.6860 c2        1 TD7     -0.266000
     25 C6'         4.1320    9.8470   -6.1860 c2        1 TD7     -0.054000
     26 N1'         4.5260   10.9400   -5.5480 n2        1 TD7     -0.139000
     27 C2'         5.8070   11.2060   -5.3840 c2        1 TD7     -0.156000
     28 CM2         6.2060   12.4610   -4.6510 c3        1 TD7     -0.026000
     29 N3'         6.7460   10.4060   -5.8440 n2        1 TD7     -0.136000
     30 C4'         6.4290    9.2880   -6.4900 c2        1 TD7      0.018000
     31 C13         7.5140    3.7870   -9.5270 c3        1 TD7     -2.622000
     32 N4'         7.4210    8.4450   -6.9670 nv        1 TD7     -0.041000
     33 C11         6.8330    5.8780   -8.3810 c2        1 TD7     -1.595000
     34 H71C        2.8430    3.8800   -4.2320 h1        1 TD7      0.016500
     35 H72C        4.1320    2.6740   -4.3470 h1        1 TD7      0.016500
     36 H61C        5.6250    4.1440   -3.0330 hc        1 TD7      0.047000
     37 H62C        4.3360    5.3500   -2.9170 hc        1 TD7      0.047000
     38 HM41        2.9850    6.3620   -4.1900 hc        1 TD7      0.051000
     39 HM42        4.0200    7.7960   -4.2340 hc        1 TD7      0.051000
     40 HM43        2.9500    7.4340   -5.5960 hc        1 TD7      0.051000
     41 H7'1        5.0930    7.7400   -8.4170 h1        1 TD7      0.082000
     42 H7'2        3.5950    7.6780   -7.4780 h1        1 TD7      0.082000
     43 HL1         6.4270    6.4570  -10.1450 ho        1 TD7      0.091000
     44 HLB1        8.7380    5.5350   -9.2660 ha        1 TD7     -0.865000
     45 HLB2        8.4440    4.6240   -7.7780 ha        1 TD7     -0.865000
     46 H131        7.0700    4.1430  -10.4480 h2        1 TD7      0.091000
     47 H132        6.7750    3.2320   -8.9610 h2        1 TD7      0.091000
     48 H6'         3.0760    9.6380   -6.3150 h4        1 TD7      0.108000
     49 HM21        6.8800   12.2080   -3.8420 hc        1 TD7      0.026333
     50 HM22        6.7020   13.1370   -5.3370 hc        1 TD7      0.026333
     51 HM23        5.3220   12.9400   -4.2480 hc        1 TD7      0.026333
     52 H4'1        7.7530    8.5460   -7.9060 hn        1 TD7      0.075000
     53 H4'2        7.8630    7.7940   -6.3490 hn        1 TD7      0.075000
@<TRIPOS>BOND
     1    1    2 1   
     2    2    3 1   
     3    2    4 1   
     4    2    5 1   
     5    5    6 1   
     6    6    7 1   
     7    6    8 1   
     8    6    9 1   
     9    9   10 1   
    10   10   11 1   
    11   10   34 1   
    12   10   35 1   
    13   11   12 1   
    14   11   36 1   
    15   11   37 1   
    16   12   13 1   
    17   12   14 1   
    18   13   17 1   
    19   14   15 1   
    20   14   16 1   
    21   15   38 1   
    22   15   39 1   
    23   15   40 1   
    24   16   17 1   
    25   16   23 1   
    26   17   33 1   
    27   18   33 1   
    28   18   43 1   
    29   19   31 1   
    30   19   33 1   
    31   19   44 1   
    32   19   45 1   
    33   20   21 1   
    34   20   22 1   
    35   20   31 1   
    36   23   24 1   
    37   23   41 1   
    38   23   42 1   
    39   24   25 1   
    40   24   30 1   
    41   25   26 1   
    42   25   48 1   
    43   26   27 1   
    44   27   28 1   
    45   27   29 1   
    46   28   49 1   
    47   28   50 1   
    48   28   51 1   
    49   29   30 1   
    50   30   32 1   
    51   31   46 1   
    52   31   47 1   
    53   32   52 1   
    54   32   53 1   
@<TRIPOS>SUBSTRUCTURE
     1 TD7         1 TEMP              0 ****  ****    0 ROOT
