@<TRIPOS>MOLECULE
TD8
   57    58     1     0     0
SMALL
bcc


@<TRIPOS>ATOM
      1 S1          0.0000    0.0000    0.0000 ss        1 TD8     -0.228800
      2 C2          1.7100    0.0000    0.0000 cc        1 TD8     -0.512700
      3 N3          2.1550    0.0000    1.2110 na        1 TD8      0.595900
      4 C4          1.2600   -0.0000    2.1800 cc        1 TD8     -0.303600
      5 C5         -0.0080    0.0000    1.7610 cd        1 TD8     -0.069400
      6 C8          2.5720    0.0010   -1.2360 c3        1 TD8      0.346400
      7 C9          2.5580   -1.3920   -1.8690 c3        1 TD8     -0.065400
      8 O9          2.0640    0.9540   -2.1720 oh        1 TD8     -0.574800
      9 PA         -3.5170    2.7920    4.2880 p5        1 TD8      0.958800
     10 PB         -5.5730    3.2600    6.3710 p5        1 TD8      0.869900
     11 N1'         3.6490    3.7130    1.7340 nb        1 TD8     -0.619000
     12 C10         3.5300   -1.4270   -3.0500 c3        1 TD8     -0.020400
     13 O11         4.6260   -3.9820   -5.5560 o         1 TD8     -0.918300
     14 C12         3.5150   -2.8190   -3.6820 c3        1 TD8     -0.131400
     15 O12         5.1020   -1.8640   -5.1390 o         1 TD8     -0.918300
     16 C14         4.4720   -2.8530   -4.8460 c         1 TD8      0.983600
     17 O1A        -2.5230    3.6420    4.9800 o         1 TD8     -0.681000
     18 O1B        -4.6750    3.5650    7.6730 o         1 TD8     -0.504500
     19 C2'         4.9340    3.9430    1.9100 ca        1 TD8      0.586300
     20 C2A         5.4090    5.3660    2.0590 c3        1 TD8     -0.029400
     21 O2A        -4.1220    3.5910    3.0280 o         1 TD8     -0.681000
     22 O2B        -6.0020    4.5370    5.7590 o         1 TD8     -0.504500
     23 N3'         5.8150    2.9640    1.9600 nb        1 TD8     -0.654000
     24 C35         3.5910    0.0000    1.4970 c3        1 TD8     -0.030400
     25 O3A        -4.7070    2.4180    5.3070 os        1 TD8     -0.487800
     26 O3B        -6.8690    2.4070    6.8010 o         1 TD8     -0.504500
     27 C4'         5.4300    1.6980    1.8340 ca        1 TD8      0.524200
     28 N4'         6.3590    0.6720    1.8870 nv        1 TD8     -0.649500
     29 C4A         1.6390   -0.0010    3.6390 c3        1 TD8      0.084200
     30 C5'         4.0750    1.4190    1.6450 ca        1 TD8     -0.349900
     31 C5A        -1.2320   -0.0000    2.6420 c3        1 TD8      0.063900
     32 C5B        -1.6450    1.4420    2.9400 c3        1 TD8      0.307400
     33 O5G        -2.8050    1.4420    3.7750 os        1 TD8     -0.511200
     34 C6'         3.1880    2.4770    1.6000 ca        1 TD8      0.464200
     35 H8          3.5880    0.2650   -0.9670 h1        1 TD8     -0.020300
     36 H9          1.5570   -1.6200   -2.2170 hc        1 TD8      0.020700
     37 H9A         2.8600   -2.1260   -1.1310 hc        1 TD8      0.020700
     38 HO9         2.7640    1.5150   -2.4620 ho        1 TD8      0.372000
     39 H10         4.5300   -1.1990   -2.7010 hc        1 TD8      0.016200
     40 H10A        3.2290   -0.6920   -3.7870 hc        1 TD8      0.016200
     41 H12         3.8170   -3.5540   -2.9460 hc        1 TD8      0.004700
     42 H12A        2.5150   -3.0470   -4.0310 hc        1 TD8      0.004700
     43 H2A         5.9610    5.6560    1.1740 hc        1 TD8      0.011367
     44 H2AA        6.0520    5.4430    2.9270 hc        1 TD8      0.011367
     45 H2AB        4.5550    6.0210    2.1830 hc        1 TD8      0.011367
     46 H35         4.1220   -0.4780    0.6830 h1        1 TD8      0.048200
     47 H35A        3.7770   -0.5420    2.4160 h1        1 TD8      0.048200
     48 HN4'        6.9090    0.4530    1.0800 hn        1 TD8      0.274800
     49 HN4A        6.4530    0.1260    2.7200 hn        1 TD8      0.274800
     50 H4A         2.3710   -0.7790    3.8220 hc        1 TD8      0.010033
     51 H4AA        2.0610    0.9610    3.9030 hc        1 TD8      0.010033
     52 H4AB        0.7580   -0.1860    4.2410 hc        1 TD8      0.010033
     53 H5A        -2.0420   -0.5110    2.1360 hc        1 TD8      0.010200
     54 H5AA       -1.0080   -0.5110    3.5710 hc        1 TD8      0.010200
     55 H5B        -1.8690    1.9530    2.0110 h1        1 TD8     -0.018300
     56 H5BA       -0.8360    1.9520    3.4470 h1        1 TD8     -0.018300
     57 H6'         2.1310    2.4580    1.3650 h4        1 TD8      0.035100
@<TRIPOS>BOND
     1    1    2 1   
     2    1    5 1   
     3    2    3 2   
     4    2    6 1   
     5    3    4 1   
     6    3   24 1   
     7    4    5 2   
     8    4   29 1   
     9    5   31 1   
    10    6    7 1   
    11    6    8 1   
    12    6   35 1   
    13    7   12 1   
    14    7   36 1   
    15    7   37 1   
    16    8   38 1   
    17    9   17 1   
    18    9   21 1   
    19    9   25 1   
    20    9   33 1   
    21   10   18 1   
    22   10   22 1   
    23   10   25 1   
    24   10   26 1   
    25   11   19 ar  
    26   11   34 ar  
    27   12   14 1   
    28   12   39 1   
    29   12   40 1   
    30   13   16 1   
    31   14   16 1   
    32   14   41 1   
    33   14   42 1   
    34   15   16 1   
    35   19   20 1   
    36   19   23 ar  
    37   20   43 1   
    38   20   44 1   
    39   20   45 1   
    40   23   27 ar  
    41   24   30 1   
    42   24   46 1   
    43   24   47 1   
    44   27   28 1   
    45   27   30 ar  
    46   28   48 1   
    47   28   49 1   
    48   29   50 1   
    49   29   51 1   
    50   29   52 1   
    51   30   34 ar  
    52   31   32 1   
    53   31   53 1   
    54   31   54 1   
    55   32   33 1   
    56   32   55 1   
    57   32   56 1   
    58   34   57 1   
@<TRIPOS>SUBSTRUCTURE
     1 TD8         1 TEMP              0 ****  ****    0 ROOT
