@<TRIPOS>MOLECULE
TD9
   57    58     1     0     0
SMALL
bcc


@<TRIPOS>ATOM
      1 S1          0.0000    0.0000    0.0000 ss        1 TD9     -0.232800
      2 C2          1.7100    0.0000    0.0000 cc        1 TD9     -0.526700
      3 N3          2.1540    0.0000    1.2120 na        1 TD9      0.593900
      4 C4          1.2600   -0.0010    2.1790 cc        1 TD9     -0.300600
      5 C5         -0.0100   -0.0010    1.7620 cd        1 TD9     -0.072400
      6 C8          2.5730    0.0020   -1.2350 c3        1 TD9      0.347400
      7 C9          2.5590    1.3950   -1.8660 c3        1 TD9     -0.061400
      8 O9          2.0650   -0.9500   -2.1720 oh        1 TD9     -0.576800
      9 PA         -3.5210    2.7890    4.2870 p5        1 TD9      0.957800
     10 PB         -6.1940    3.2310    5.4870 p5        1 TD9      0.865900
     11 N1'         3.6850   -3.7210    1.5480 nb        1 TD9     -0.628000
     12 C10         3.5310    1.4310   -3.0470 c3        1 TD9     -0.019400
     13 O11         4.6290    3.9890   -5.5490 o         1 TD9     -0.920300
     14 C12         3.5170    2.8250   -3.6770 c3        1 TD9     -0.131400
     15 O12         5.1040    1.8710   -5.1340 o         1 TD9     -0.920300
     16 C14         4.4750    2.8600   -4.8400 c         1 TD9      0.984600
     17 O1A        -3.8610    3.6390    3.1240 o         1 TD9     -0.673500
     18 O1B        -7.3390    2.1980    5.9530 o         1 TD9     -0.497167
     19 C2'         4.9270   -3.9440    1.9250 ca        1 TD9      0.575300
     20 C2A         5.4020   -5.3670    2.0770 c3        1 TD9     -0.026400
     21 O2A        -2.5180    3.5880    5.2610 o         1 TD9     -0.673500
     22 O2B        -5.8630    4.2440    6.6940 o         1 TD9     -0.497167
     23 N3'         5.7670   -2.9590    2.1740 nb        1 TD9     -0.651000
     24 C35         3.5900   -0.0010    1.4990 c3        1 TD9     -0.031400
     25 O3A        -4.8640    2.4150    5.0910 os        1 TD9     -0.485800
     26 O3B        -6.6700    3.9980    4.3150 o         1 TD9     -0.497167
     27 C4'         5.3830   -1.6930    2.0510 ca        1 TD9      0.523200
     28 N4'         6.2670   -0.6600    2.3130 nv        1 TD9     -0.654500
     29 C4A         1.6370   -0.0030    3.6390 c3        1 TD9      0.083200
     30 C5'         4.0710   -1.4210    1.6530 ca        1 TD9     -0.340900
     31 C5A        -1.2330   -0.0020    2.6410 c3        1 TD9      0.064900
     32 C5B        -1.6480    1.4400    2.9400 c3        1 TD9      0.308400
     33 O5G        -2.8080    1.4390    3.7740 os        1 TD9     -0.511200
     34 C6'         3.2280   -2.4840    1.4020 ca        1 TD9      0.449200
     35 H8          3.5880   -0.2630   -0.9660 h1        1 TD9     -0.022300
     36 H9          1.5590    1.6240   -2.2140 hc        1 TD9      0.025700
     37 H9A         2.8600    2.1290   -1.1280 hc        1 TD9      0.025700
     38 HO9         2.7110   -1.6210   -2.3210 ho        1 TD9      0.366000
     39 H10         4.5310    1.2010   -2.6990 hc        1 TD9      0.014200
     40 H10A        3.2280    0.6980   -3.7850 hc        1 TD9      0.014200
     41 H12         3.8190    3.5580   -2.9390 hc        1 TD9      0.008200
     42 H12A        2.5180    3.0540   -4.0260 hc        1 TD9      0.008200
     43 H2A         4.5770   -6.0440    1.8920 hc        1 TD9      0.008700
     44 H2AA        5.7750   -5.5180    3.0820 hc        1 TD9      0.008700
     45 H2AB        6.1950   -5.5600    1.3640 hc        1 TD9      0.008700
     46 H35         4.1220    0.4740    0.6830 h1        1 TD9      0.055200
     47 H35A        3.7760    0.5440    2.4170 h1        1 TD9      0.055200
     48 HN4'        6.8490   -0.3030    1.5810 hn        1 TD9      0.276800
     49 HN4A        6.3570   -0.3020    3.2430 hn        1 TD9      0.276800
     50 H4A         1.7000    1.0180    3.9970 hc        1 TD9      0.010033
     51 H4AA        0.8860   -0.5390    4.2060 hc        1 TD9      0.010033
     52 H4AB        2.5980   -0.4890    3.7630 hc        1 TD9      0.010033
     53 H5A        -1.0100   -0.5130    3.5700 hc        1 TD9      0.009200
     54 H5AA       -2.0430   -0.5130    2.1340 hc        1 TD9      0.009200
     55 H5B        -1.8720    1.9510    2.0110 h1        1 TD9     -0.017300
     56 H5BA       -0.8390    1.9510    3.4470 h1        1 TD9     -0.017300
     57 H6'         2.2040   -2.3120    1.0920 h4        1 TD9      0.031100
@<TRIPOS>BOND
     1    1    2 1   
     2    1    5 1   
     3    2    3 2   
     4    2    6 1   
     5    3    4 1   
     6    3   24 1   
     7    4    5 2   
     8    4   29 1   
     9    5   31 1   
    10    6    7 1   
    11    6    8 1   
    12    6   35 1   
    13    7   12 1   
    14    7   36 1   
    15    7   37 1   
    16    8   38 1   
    17    9   17 1   
    18    9   21 1   
    19    9   25 1   
    20    9   33 1   
    21   10   18 1   
    22   10   22 1   
    23   10   25 1   
    24   10   26 1   
    25   11   19 ar  
    26   11   34 ar  
    27   12   14 1   
    28   12   39 1   
    29   12   40 1   
    30   13   16 1   
    31   14   16 1   
    32   14   41 1   
    33   14   42 1   
    34   15   16 1   
    35   19   20 1   
    36   19   23 ar  
    37   20   43 1   
    38   20   44 1   
    39   20   45 1   
    40   23   27 ar  
    41   24   30 1   
    42   24   46 1   
    43   24   47 1   
    44   27   28 1   
    45   27   30 ar  
    46   28   48 1   
    47   28   49 1   
    48   29   50 1   
    49   29   51 1   
    50   29   52 1   
    51   30   34 ar  
    52   31   32 1   
    53   31   53 1   
    54   31   54 1   
    55   32   33 1   
    56   32   55 1   
    57   32   56 1   
    58   34   57 1   
@<TRIPOS>SUBSTRUCTURE
     1 TD9         1 TEMP              0 ****  ****    0 ROOT
