@<TRIPOS>MOLECULE
TDA
   40    39     1     0     0
SMALL
bcc


@<TRIPOS>ATOM
      1 O21        -3.5830    4.1720   -6.1310 o         1 TDA     -0.853800
      2 O22        -2.0890    3.0390   -7.2440 o         1 TDA     -0.853800
      3 C21        -2.4540    3.6180   -6.1880 c         1 TDA      0.907600
      4 C22        -1.5340    3.6500   -4.9870 c3        1 TDA     -0.193400
      5 C23        -1.8820    2.5100   -4.0550 c3        1 TDA     -0.065400
      6 C24        -0.8700    2.4510   -2.9310 c3        1 TDA     -0.078400
      7 C25        -1.2070    1.2990   -2.0100 c3        1 TDA     -0.078400
      8 C26        -0.1040    1.1330   -0.9870 c3        1 TDA     -0.078400
      9 C27        -0.4720    0.0250   -0.0250 c3        1 TDA     -0.079400
     10 C28         0.6800   -0.2220    0.9240 c3        1 TDA     -0.078400
     11 C29         0.3040   -1.3140    1.9000 c3        1 TDA     -0.079400
     12 C30         1.4870   -1.6240    2.7910 c3        1 TDA     -0.079400
     13 C31         1.1330   -2.7620    3.7220 c3        1 TDA     -0.079400
     14 C32         2.3500   -3.1480    4.5340 c3        1 TDA     -0.080400
     15 C33         1.9700   -4.2110    5.5400 c3        1 TDA     -0.091100
     16 H222       -1.6430    4.5010   -4.5160 hc        1 TDA      0.018700
     17 H221       -0.6070    3.5580   -5.2840 hc        1 TDA      0.018700
     18 H232       -1.8670    1.6670   -4.5520 hc        1 TDA      0.043700
     19 H231       -2.7750    2.6540   -3.6830 hc        1 TDA      0.043700
     20 H242        0.0240    2.3200   -3.3040 hc        1 TDA      0.025700
     21 H241       -0.8940    3.2890   -2.4270 hc        1 TDA      0.025700
     22 H252       -1.2920    0.4770   -2.5340 hc        1 TDA      0.036700
     23 H251       -2.0510    1.4830   -1.5530 hc        1 TDA      0.036700
     24 H262        0.7310    0.9060   -1.4420 hc        1 TDA      0.034200
     25 H261        0.0100    1.9700   -0.4930 hc        1 TDA      0.034200
     26 H272       -1.2650    0.2870    0.4860 hc        1 TDA      0.037200
     27 H271       -0.6630   -0.7920   -0.5270 hc        1 TDA      0.037200
     28 H282        1.4680   -0.4970    0.4140 hc        1 TDA      0.036700
     29 H281        0.8800    0.6000    1.4150 hc        1 TDA      0.036700
     30 H292        0.0480   -2.1190    1.4070 hc        1 TDA      0.038200
     31 H291       -0.4480   -1.0160    2.4500 hc        1 TDA      0.038200
     32 H302        1.7150   -0.8320    3.3170 hc        1 TDA      0.037700
     33 H301        2.2520   -1.8810    2.2390 hc        1 TDA      0.037700
     34 H312        0.8340   -3.5320    3.1980 hc        1 TDA      0.038700
     35 H311        0.4160   -2.4800    4.3240 hc        1 TDA      0.038700
     36 H322        2.6910   -2.3610    5.0040 hc        1 TDA      0.037700
     37 H321        3.0430   -3.4960    3.9370 hc        1 TDA      0.037700
     38 H333        1.6170   -4.9950    5.0690 hc        1 TDA      0.030367
     39 H332        2.7610   -4.4700    6.0570 hc        1 TDA      0.030367
     40 H331        1.2850   -3.8580    6.1450 hc        1 TDA      0.030367
@<TRIPOS>BOND
     1    1    3 1   
     2    2    3 1   
     3    3    4 1   
     4    4    5 1   
     5    4   16 1   
     6    4   17 1   
     7    5    6 1   
     8    5   18 1   
     9    5   19 1   
    10    6    7 1   
    11    6   20 1   
    12    6   21 1   
    13    7    8 1   
    14    7   22 1   
    15    7   23 1   
    16    8    9 1   
    17    8   24 1   
    18    8   25 1   
    19    9   10 1   
    20    9   26 1   
    21    9   27 1   
    22   10   11 1   
    23   10   28 1   
    24   10   29 1   
    25   11   12 1   
    26   11   30 1   
    27   11   31 1   
    28   12   13 1   
    29   12   32 1   
    30   12   33 1   
    31   13   14 1   
    32   13   34 1   
    33   13   35 1   
    34   14   15 1   
    35   14   36 1   
    36   14   37 1   
    37   15   38 1   
    38   15   39 1   
    39   15   40 1   
@<TRIPOS>SUBSTRUCTURE
     1 TDA         1 TEMP              0 ****  ****    0 ROOT
