@<TRIPOS>MOLECULE
TDA
   40    39     1     0     0
SMALL
bcc


@<TRIPOS>ATOM
      1 O21         0.4850    0.0000   -7.4980 o         1 TDA     -0.854800
      2 O22        -1.4190   -0.0000   -6.3350 o         1 TDA     -0.854800
      3 C21        -0.1560   -0.0000   -6.4060 c         1 TDA      0.907600
      4 C22         0.6700    0.0000   -5.1090 c3        1 TDA     -0.193400
      5 C23        -0.1970    0.0000   -3.8750 c3        1 TDA     -0.062400
      6 C24         0.6270   -0.0000   -2.6050 c3        1 TDA     -0.079400
      7 C25        -0.2520   -0.0000   -1.3730 c3        1 TDA     -0.078400
      8 C26         0.5700   -0.0000   -0.1020 c3        1 TDA     -0.078400
      9 C27        -0.3120    0.0000    1.1280 c3        1 TDA     -0.079400
     10 C28         0.5110    0.0000    2.3980 c3        1 TDA     -0.078400
     11 C29        -0.3720   -0.0000    3.6270 c3        1 TDA     -0.079400
     12 C30         0.4510   -0.0000    4.8980 c3        1 TDA     -0.079400
     13 C31        -0.4330    0.0000    6.1270 c3        1 TDA     -0.079400
     14 C32         0.3900    0.0000    7.3980 c3        1 TDA     -0.080400
     15 C33        -0.4860   -0.0000    8.6240 c3        1 TDA     -0.091100
     16 H222        1.3320    0.9030   -5.1170 hc        1 TDA      0.018700
     17 H221        1.3320   -0.9030   -5.1170 hc        1 TDA      0.018700
     18 H232       -0.8680   -0.8990   -3.8980 hc        1 TDA      0.044700
     19 H231       -0.8680    0.8990   -3.8980 hc        1 TDA      0.044700
     20 H242        1.2940    0.9020   -2.5890 hc        1 TDA      0.024700
     21 H241        1.2940   -0.9020   -2.5890 hc        1 TDA      0.024700
     22 H252       -0.9190   -0.9020   -1.3900 hc        1 TDA      0.036700
     23 H251       -0.9190    0.9020   -1.3900 hc        1 TDA      0.036700
     24 H262        1.2370    0.9020   -0.0860 hc        1 TDA      0.033700
     25 H261        1.2370   -0.9020   -0.0860 hc        1 TDA      0.033700
     26 H272       -0.9790   -0.9020    1.1110 hc        1 TDA      0.037700
     27 H271       -0.9790    0.9020    1.1110 hc        1 TDA      0.037700
     28 H282        1.1770    0.9020    2.4140 hc        1 TDA      0.036700
     29 H281        1.1770   -0.9020    2.4140 hc        1 TDA      0.036700
     30 H292       -1.0390   -0.9020    3.6110 hc        1 TDA      0.038700
     31 H291       -1.0390    0.9020    3.6110 hc        1 TDA      0.038700
     32 H302        1.1170    0.9020    4.9130 hc        1 TDA      0.037700
     33 H301        1.1170   -0.9020    4.9130 hc        1 TDA      0.037700
     34 H312       -1.0990   -0.9020    6.1110 hc        1 TDA      0.038700
     35 H311       -1.0990    0.9020    6.1110 hc        1 TDA      0.038700
     36 H322        1.0570    0.9020    7.4110 hc        1 TDA      0.037700
     37 H321        1.0570   -0.9020    7.4110 hc        1 TDA      0.037700
     38 H333        0.1400    0.0000    9.5490 hc        1 TDA      0.030367
     39 H332       -1.1410    0.9050    8.6410 hc        1 TDA      0.030367
     40 H331       -1.1410   -0.9050    8.6410 hc        1 TDA      0.030367
@<TRIPOS>BOND
     1    1    3 1   
     2    2    3 1   
     3    3    4 1   
     4    4    5 1   
     5    4   16 1   
     6    4   17 1   
     7    5    6 1   
     8    5   18 1   
     9    5   19 1   
    10    6    7 1   
    11    6   20 1   
    12    6   21 1   
    13    7    8 1   
    14    7   22 1   
    15    7   23 1   
    16    8    9 1   
    17    8   24 1   
    18    8   25 1   
    19    9   10 1   
    20    9   26 1   
    21    9   27 1   
    22   10   11 1   
    23   10   28 1   
    24   10   29 1   
    25   11   12 1   
    26   11   30 1   
    27   11   31 1   
    28   12   13 1   
    29   12   32 1   
    30   12   33 1   
    31   13   14 1   
    32   13   34 1   
    33   13   35 1   
    34   14   15 1   
    35   14   36 1   
    36   14   37 1   
    37   15   38 1   
    38   15   39 1   
    39   15   40 1   
@<TRIPOS>SUBSTRUCTURE
     1 TDA         1 TEMP              0 ****  ****    0 ROOT
