@<TRIPOS>MOLECULE
TDC
   55    58     1     0     0
SMALL
bcc


@<TRIPOS>ATOM
      1 O12        -0.0340    0.0690    0.0640 o         1 TDC     -0.488100
      2 C12         1.1950    0.1700    0.0030 c         1 TDC      0.596700
      3 C1B         1.9990    0.3140   -1.1900 ca        1 TDC     -0.279600
      4 C11         1.3410    0.4430   -2.4290 ca        1 TDC      0.305100
      5 O11        -0.0090    0.4400   -2.3420 oh        1 TDC     -0.456100
      6 C1A         2.0870    0.5580   -3.6490 ca        1 TDC     -0.143000
      7 C10         1.4960    0.5650   -4.9500 ca        1 TDC      0.171100
      8 O10         0.1350    0.4090   -5.0200 oh        1 TDC     -0.526100
      9 C9          2.2630    0.6990   -6.1020 ca        1 TDC     -0.207000
     10 C8          3.6540    0.8140   -5.9950 ca        1 TDC     -0.033000
     11 C7          4.2630    0.7840   -4.7540 ca        1 TDC     -0.170000
     12 C61         3.5040    0.6550   -3.5690 ca        1 TDC      0.051000
     13 C6          4.1580    0.5930   -2.2860 ca        1 TDC     -0.080300
     14 C62         5.6300    0.7870   -2.2490 c3        1 TDC     -0.063800
     15 C51         3.4240    0.3590   -1.1460 ca        1 TDC     -0.046300
     16 C5          4.1220    0.1780    0.1600 c3        1 TDC     -0.033100
     17 C1C         1.9320    0.0910    1.3640 c3        1 TDC     -0.026200
     18 C1          2.1260    1.4740    1.9770 c         1 TDC      0.597300
     19 O1          1.6230    2.5010    1.5170 o         1 TDC     -0.507100
     20 O1C         1.1720   -0.6710    2.2890 oh        1 TDC     -0.630800
     21 C41         3.2870   -0.5890    1.1830 c3        1 TDC     -0.071700
     22 C4          4.0820   -0.6990    2.4990 c3        1 TDC      0.165700
     23 N4          4.0530   -2.0710    3.1410 n4        1 TDC     -0.675400
     24 C43         2.6870   -2.5910    3.4120 c3        1 TDC      0.082100
     25 C42         4.8340   -3.0480    2.3300 c3        1 TDC      0.082100
     26 C3          3.7470    0.4090    3.5030 c2        1 TDC      0.284900
     27 O3          4.4570    0.2140    4.6290 oh        1 TDC     -0.488100
     28 C2          2.9310    1.4820    3.2210 ce        1 TDC     -0.393400
     29 C21         2.8380    2.5980    4.1570 c         1 TDC      0.579300
     30 O21         3.3990    2.6870    5.2490 o         1 TDC     -0.463100
     31 N21         1.9930    3.7820    3.7980 n4        1 TDC     -0.732400
     32 H11        -0.4360    0.6560   -3.1870 ho        1 TDC      0.475000
     33 H10        -0.1450    0.4450   -5.9500 ho        1 TDC      0.463000
     34 H9          1.7830    0.7080   -7.0940 ha        1 TDC      0.165000
     35 H8          4.2600    0.9180   -6.9100 ha        1 TDC      0.165000
     36 H7          5.3610    0.8500   -4.7000 ha        1 TDC      0.155000
     37 H621        6.0110    0.9800   -1.2180 hc        1 TDC      0.055367
     38 H622        6.1520   -0.1150   -2.6590 hc        1 TDC      0.055367
     39 H623        5.9180    1.6750   -2.8700 hc        1 TDC      0.055367
     40 H5C1        4.3930    1.1890    0.5730 hc        1 TDC      0.063700
     41 H5C2        5.0770   -0.3940   -0.0060 hc        1 TDC      0.063700
     42 H41         3.0820   -1.6170    0.7630 hc        1 TDC      0.113700
     43 H1C         0.2360   -0.6610    2.0090 ho        1 TDC      0.476000
     44 H4          5.1850   -0.5190    2.2510 hx        1 TDC      0.138700
     45 H431        2.7750   -3.5620    3.9710 hx        1 TDC      0.116533
     46 H432        2.1190   -1.8420    4.0270 hx        1 TDC      0.116533
     47 H433        2.1360   -2.7570    2.4460 hx        1 TDC      0.116533
     48 H421        5.8870   -2.6790    2.1990 hx        1 TDC      0.116533
     49 H422        4.8500   -4.0340    2.8740 hx        1 TDC      0.116533
     50 H423        4.3530   -3.1910    1.3260 hx        1 TDC      0.116533
     51 H3          4.3350    0.9100    5.3100 ho        1 TDC      0.514000
     52 H211        1.0040    3.5020    3.7440 hn        1 TDC      0.491800
     53 H212        2.2620    4.1360    2.8640 hn        1 TDC      0.491800
     54 H411        4.5340   -1.9750    4.0540 hn        1 TDC      0.465800
     55 H213        2.1060    4.5230    4.5050 hn        1 TDC      0.491800
@<TRIPOS>BOND
     1    1    2 2   
     2    2    3 1   
     3    2   17 1   
     4    3    4 ar  
     5    3   15 ar  
     6    4    5 1   
     7    4    6 ar  
     8    5   32 1   
     9    6    7 ar  
    10    6   12 ar  
    11    7    8 1   
    12    7    9 ar  
    13    8   33 1   
    14    9   10 ar  
    15    9   34 1   
    16   10   11 ar  
    17   10   35 1   
    18   11   12 ar  
    19   11   36 1   
    20   12   13 ar  
    21   13   14 1   
    22   13   15 ar  
    23   14   37 1   
    24   14   38 1   
    25   14   39 1   
    26   15   16 1   
    27   16   21 1   
    28   16   40 1   
    29   16   41 1   
    30   17   18 1   
    31   17   20 1   
    32   17   21 1   
    33   18   19 2   
    34   18   28 1   
    35   20   43 1   
    36   21   22 1   
    37   21   42 1   
    38   22   23 1   
    39   22   26 1   
    40   22   44 1   
    41   23   24 1   
    42   23   25 1   
    43   23   54 1   
    44   24   45 1   
    45   24   46 1   
    46   24   47 1   
    47   25   48 1   
    48   25   49 1   
    49   25   50 1   
    50   26   27 1   
    51   26   28 2   
    52   27   51 1   
    53   28   29 1   
    54   29   30 2   
    55   29   31 1   
    56   31   52 1   
    57   31   53 1   
    58   31   55 1   
@<TRIPOS>SUBSTRUCTURE
     1 TDC         1 TEMP              0 ****  ****    0 ROOT
