@<TRIPOS>MOLECULE
TDC
   55    58     1     0     0
SMALL
bcc


@<TRIPOS>ATOM
      1 O12        -0.0350    0.0930    0.0730 o         1 TDC     -0.488100
      2 C12         1.1940    0.1850    0.0110 c         1 TDC      0.596700
      3 C1B         1.9980    0.3260   -1.1830 ca        1 TDC     -0.279600
      4 C11         1.3400    0.4610   -2.4200 ca        1 TDC      0.305100
      5 O11        -0.0110    0.4670   -2.3330 oh        1 TDC     -0.456100
      6 C1A         2.0840    0.5730   -3.6410 ca        1 TDC     -0.143000
      7 C10         1.4930    0.5840   -4.9410 ca        1 TDC      0.171100
      8 O10         0.1300    0.4370   -5.0100 oh        1 TDC     -0.526100
      9 C9          2.2590    0.7150   -6.0940 ca        1 TDC     -0.207000
     10 C8          3.6510    0.8210   -5.9880 ca        1 TDC     -0.033000
     11 C7          4.2610    0.7860   -4.7480 ca        1 TDC     -0.170000
     12 C61         3.5020    0.6600   -3.5630 ca        1 TDC      0.051000
     13 C6          4.1570    0.5930   -2.2800 ca        1 TDC     -0.080300
     14 C62         5.6300    0.7780   -2.2450 c3        1 TDC     -0.063800
     15 C51         3.4240    0.3620   -1.1390 ca        1 TDC     -0.046300
     16 C5          4.1220    0.1750    0.1660 c3        1 TDC     -0.033100
     17 C1C         1.9320    0.1000    1.3710 c3        1 TDC     -0.026200
     18 C1          2.1350    1.4810    1.9870 c         1 TDC      0.597300
     19 O1          1.6390    2.5110    1.5290 o         1 TDC     -0.507100
     20 O1C         1.1680   -0.6590    2.2960 oh        1 TDC     -0.630800
     21 C41         3.2820   -0.5890    1.1880 c3        1 TDC     -0.071700
     22 C4          4.0780   -0.7060    2.5030 c3        1 TDC      0.165700
     23 N4          4.0420   -2.0790    3.1430 n4        1 TDC     -0.675400
     24 C43         2.6720   -2.5910    3.4140 c3        1 TDC      0.082100
     25 C42         4.8150   -3.0600    2.3280 c3        1 TDC      0.082100
     26 C3          3.7510    0.4020    3.5090 c2        1 TDC      0.284900
     27 O3          4.4620    0.2010    4.6340 oh        1 TDC     -0.488100
     28 C2          2.9420    1.4810    3.2300 ce        1 TDC     -0.393400
     29 C21         2.8570    2.5950    4.1680 c         1 TDC      0.579300
     30 O21         3.4200    2.6780    5.2600 o         1 TDC     -0.463100
     31 N21         2.0190    3.7860    3.8120 n4        1 TDC     -0.732400
     32 H11        -0.4370    0.6870   -3.1760 ho        1 TDC      0.475000
     33 H10        -0.1500    0.4760   -5.9390 ho        1 TDC      0.463000
     34 H9          1.7790    0.7280   -7.0850 ha        1 TDC      0.165000
     35 H8          4.2570    0.9230   -6.9040 ha        1 TDC      0.165000
     36 H7          5.3590    0.8450   -4.6960 ha        1 TDC      0.155000
     37 H621        5.9240    1.6650   -2.8650 hc        1 TDC      0.055367
     38 H622        6.1460   -0.1270   -2.6560 hc        1 TDC      0.055367
     39 H623        6.0140    0.9670   -1.2140 hc        1 TDC      0.055367
     40 H5C1        4.3990    1.1830    0.5800 hc        1 TDC      0.063700
     41 H5C2        5.0730   -0.4030   -0.0030 hc        1 TDC      0.063700
     42 H41         3.0710   -1.6150    0.7660 hc        1 TDC      0.113700
     43 H1C         0.2320   -0.6420    2.0170 ho        1 TDC      0.476000
     44 H4          5.1820   -0.5320    2.2540 hx        1 TDC      0.138700
     45 H431        2.1190   -2.7520    2.4490 hx        1 TDC      0.116533
     46 H432        2.7540   -3.5640    3.9710 hx        1 TDC      0.116533
     47 H433        2.1100   -1.8390    4.0320 hx        1 TDC      0.116533
     48 H421        5.8700   -2.6970    2.1960 hx        1 TDC      0.116533
     49 H422        4.3310   -3.1980    1.3250 hx        1 TDC      0.116533
     50 H423        4.8250   -4.0460    2.8710 hx        1 TDC      0.116533
     51 H3          4.3450    0.8950    5.3170 ho        1 TDC      0.514000
     52 H211        1.0280    3.5120    3.7590 hn        1 TDC      0.491800
     53 H212        2.1370    4.5250    4.5200 hn        1 TDC      0.491800
     54 H411        4.5230   -1.9880    4.0550 hn        1 TDC      0.465800
     55 H213        2.2890    4.1390    2.8790 hn        1 TDC      0.491800
@<TRIPOS>BOND
     1    1    2 2   
     2    2    3 1   
     3    2   17 1   
     4    3    4 ar  
     5    3   15 ar  
     6    4    5 1   
     7    4    6 ar  
     8    5   32 1   
     9    6    7 ar  
    10    6   12 ar  
    11    7    8 1   
    12    7    9 ar  
    13    8   33 1   
    14    9   10 ar  
    15    9   34 1   
    16   10   11 ar  
    17   10   35 1   
    18   11   12 ar  
    19   11   36 1   
    20   12   13 ar  
    21   13   14 1   
    22   13   15 ar  
    23   14   37 1   
    24   14   38 1   
    25   14   39 1   
    26   15   16 1   
    27   16   21 1   
    28   16   40 1   
    29   16   41 1   
    30   17   18 1   
    31   17   20 1   
    32   17   21 1   
    33   18   19 2   
    34   18   28 1   
    35   20   43 1   
    36   21   22 1   
    37   21   42 1   
    38   22   23 1   
    39   22   26 1   
    40   22   44 1   
    41   23   24 1   
    42   23   25 1   
    43   23   54 1   
    44   24   45 1   
    45   24   46 1   
    46   24   47 1   
    47   25   48 1   
    48   25   49 1   
    49   25   50 1   
    50   26   27 1   
    51   26   28 2   
    52   27   51 1   
    53   28   29 1   
    54   29   30 2   
    55   29   31 1   
    56   31   52 1   
    57   31   53 1   
    58   31   55 1   
@<TRIPOS>SUBSTRUCTURE
     1 TDC         1 TEMP              0 ****  ****    0 ROOT
