@<TRIPOS>MOLECULE
TDC
   55    58     1     0     0
SMALL
bcc


@<TRIPOS>ATOM
      1 O12        -0.0390    0.1460    0.0760 o         1 TDC     -0.488100
      2 C12         1.1910    0.2260    0.0120 c         1 TDC      0.596700
      3 C1B         1.9940    0.3620   -1.1830 ca        1 TDC     -0.279600
      4 C11         1.3360    0.5060   -2.4190 ca        1 TDC      0.305100
      5 O11        -0.0150    0.5250   -2.3290 oh        1 TDC     -0.456100
      6 C1A         2.0800    0.6140   -3.6410 ca        1 TDC     -0.143000
      7 C10         1.4860    0.6350   -4.9400 ca        1 TDC      0.171100
      8 O10         0.1220    0.5020   -5.0070 oh        1 TDC     -0.526100
      9 C9          2.2520    0.7620   -6.0930 ca        1 TDC     -0.207000
     10 C8          3.6450    0.8520   -5.9890 ca        1 TDC     -0.033000
     11 C7          4.2560    0.8080   -4.7510 ca        1 TDC     -0.170000
     12 C61         3.4980    0.6870   -3.5640 ca        1 TDC      0.051000
     13 C6          4.1550    0.6090   -2.2830 ca        1 TDC     -0.080300
     14 C62         5.6300    0.7780   -2.2500 c3        1 TDC     -0.063800
     15 C51         3.4200    0.3830   -1.1420 ca        1 TDC     -0.046300
     16 C5          4.1180    0.1840    0.1620 c3        1 TDC     -0.033100
     17 C1C         1.9300    0.1290    1.3700 c3        1 TDC     -0.026200
     18 C1          2.1490    1.5060    1.9890 c         1 TDC      0.597300
     19 O1          1.6620    2.5430    1.5350 o         1 TDC     -0.507100
     20 O1C         1.1600   -0.6240    2.2950 oh        1 TDC     -0.630800
     21 C41         3.2730   -0.5730    1.1830 c3        1 TDC     -0.071700
     22 C4          4.0700   -0.7020    2.4960 c3        1 TDC      0.165700
     23 N4          4.0190   -2.0760    3.1330 nx        1 TDC     -0.675400
     24 C43         2.6450   -2.5740    3.4060 c3        1 TDC      0.082100
     25 C42         4.7810   -3.0630    2.3150 c3        1 TDC      0.082100
     26 C3          3.7560    0.4070    3.5060 c2        1 TDC      0.284900
     27 O3          4.4660    0.1950    4.6300 oh        1 TDC     -0.488100
     28 C2          2.9570    1.4950    3.2310 ce        1 TDC     -0.393400
     29 C21         2.8850    2.6080    4.1720 c         1 TDC      0.579300
     30 O21         3.4500    2.6820    5.2630 o         1 TDC     -0.463100
     31 N21         2.0600    3.8080    3.8200 nz        1 TDC     -0.732400
     32 H11        -0.4400    0.7520   -3.1720 ho        1 TDC      0.475000
     33 H10        -0.1600    0.5470   -5.9360 ho        1 TDC      0.463000
     34 H9          1.7700    0.7820   -7.0840 ha        1 TDC      0.165000
     35 H8          4.2510    0.9510   -6.9060 ha        1 TDC      0.165000
     36 H7          5.3550    0.8550   -4.6990 ha        1 TDC      0.155000
     37 H621        6.0170    0.9610   -1.2180 hc        1 TDC      0.055367
     38 H622        6.1350   -0.1310   -2.6640 hc        1 TDC      0.055367
     39 H623        5.9310    1.6640   -2.8680 hc        1 TDC      0.055367
     40 H5C1        5.0630   -0.4030   -0.0100 hc        1 TDC      0.063700
     41 H5C2        4.4070    1.1880    0.5780 hc        1 TDC      0.063700
     42 H41         3.0500   -1.5960    0.7600 hc        1 TDC      0.113700
     43 H1C         0.2230   -0.5970    2.0170 ho        1 TDC      0.476000
     44 H4          5.1750   -0.5390    2.2460 hx        1 TDC      0.138700
     45 H431        2.0920   -1.8180    4.0260 hx        1 TDC      0.116533
     46 H432        2.7180   -3.5500    3.9600 hx        1 TDC      0.116533
     47 H433        2.0890   -2.7270    2.4410 hx        1 TDC      0.116533
     48 H421        4.7820   -4.0510    2.8550 hx        1 TDC      0.116533
     49 H422        4.2940   -3.1940    1.3120 hx        1 TDC      0.116533
     50 H423        5.8390   -2.7110    2.1820 hx        1 TDC      0.116533
     51 H3          4.3570    0.8890    5.3140 ho        1 TDC      0.514000
     52 H211        2.3320    4.1610    2.8870 hn        1 TDC      0.491800
     53 H212        2.1870    4.5440    4.5300 hn        1 TDC      0.491800
     54 H411        4.5040   -1.9920    4.0440 hn        1 TDC      0.465800
     55 H213        1.0660    3.5450    3.7680 hn        1 TDC      0.491800
@<TRIPOS>BOND
     1    1    2 2   
     2    2    3 1   
     3    2   17 1   
     4    3    4 ar  
     5    3   15 ar  
     6    4    5 1   
     7    4    6 ar  
     8    5   32 1   
     9    6    7 ar  
    10    6   12 ar  
    11    7    8 1   
    12    7    9 ar  
    13    8   33 1   
    14    9   10 ar  
    15    9   34 1   
    16   10   11 ar  
    17   10   35 1   
    18   11   12 ar  
    19   11   36 1   
    20   12   13 ar  
    21   13   14 1   
    22   13   15 ar  
    23   14   37 1   
    24   14   38 1   
    25   14   39 1   
    26   15   16 1   
    27   16   21 1   
    28   16   40 1   
    29   16   41 1   
    30   17   18 1   
    31   17   20 1   
    32   17   21 1   
    33   18   19 2   
    34   18   28 1   
    35   20   43 1   
    36   21   22 1   
    37   21   42 1   
    38   22   23 1   
    39   22   26 1   
    40   22   44 1   
    41   23   24 1   
    42   23   25 1   
    43   23   54 1   
    44   24   45 1   
    45   24   46 1   
    46   24   47 1   
    47   25   48 1   
    48   25   49 1   
    49   25   50 1   
    50   26   27 1   
    51   26   28 2   
    52   27   51 1   
    53   28   29 1   
    54   29   30 2   
    55   29   31 1   
    56   31   52 1   
    57   31   53 1   
    58   31   55 1   
@<TRIPOS>SUBSTRUCTURE
     1 TDC         1 TEMP              0 ****  ****    0 ROOT
