@<TRIPOS>MOLECULE
TDD
   21    20     1     0     0
SMALL
bcc


@<TRIPOS>ATOM
      1 N          -1.7210   -0.1760   -1.0060 n3        1 TDD     -0.891800
      2 CA         -0.2990   -0.1760   -1.0060 c3        1 TDD      0.031500
      3 CB          0.2050   -0.1760    0.4190 c3        1 TDD     -0.031000
      4 CG1        -0.1450   -1.4920    1.0770 c3        1 TDD     -0.082433
      5 CG2        -0.4420    0.9590    1.1820 c3        1 TDD     -0.082433
      6 CG3         1.7070    0.0060    0.4220 c3        1 TDD     -0.082433
      7 C           0.2050    1.0580   -1.7190 c         1 TDD      0.884600
      8 O          -0.3580    2.1680   -1.5300 o         1 TDD     -0.845300
      9 OXT         1.1880    0.9760   -2.5020 o         1 TDD     -0.845300
     10 H          -2.0250   -1.0120   -1.2050 hn        1 TDD      0.329800
     11 H2         -2.0250    0.4150   -1.6310 hn        1 TDD      0.329800
     12 HA          0.0270   -0.9730   -1.4670 h1        1 TDD      0.042700
     13 HG11        0.2580   -1.5290    1.9650 hc        1 TDD      0.026922
     14 HG12       -1.1150   -1.5670    1.1580 hc        1 TDD      0.026922
     15 HG13        0.1940   -2.2280    0.5340 hc        1 TDD      0.026922
     16 HG21       -0.1310    1.8120    0.8240 hc        1 TDD      0.026922
     17 HG22       -0.2010    0.8950    2.1260 hc        1 TDD      0.026922
     18 HG23       -1.4120    0.9020    1.0900 hc        1 TDD      0.026922
     19 HG31        1.9250    0.9170    0.1490 hc        1 TDD      0.026922
     20 HG32        2.1130   -0.6270   -0.2010 hc        1 TDD      0.026922
     21 HG33        2.0520   -0.1560    1.3210 hc        1 TDD      0.026922
@<TRIPOS>BOND
     1    1    2 1   
     2    1   10 1   
     3    1   11 1   
     4    2    3 1   
     5    2    7 1   
     6    2   12 1   
     7    3    4 1   
     8    3    5 1   
     9    3    6 1   
    10    4   13 1   
    11    4   14 1   
    12    4   15 1   
    13    5   16 1   
    14    5   17 1   
    15    5   18 1   
    16    6   19 1   
    17    6   20 1   
    18    6   21 1   
    19    7    8 1   
    20    7    9 1   
@<TRIPOS>SUBSTRUCTURE
     1 TDD         1 TEMP              0 ****  ****    0 ROOT
