@<TRIPOS>MOLECULE
TDD
   21    20     1     0     0
SMALL
bcc


@<TRIPOS>ATOM
      1 N           0.0220    1.8940    0.6410 n3        1 TDD     -0.891800
      2 CA         -0.0580    0.4370    0.6580 c3        1 TDD      0.031500
      3 CB          1.1160   -0.2340   -0.1010 c3        1 TDD     -0.031000
      4 CG1         2.4460    0.1990    0.5000 c3        1 TDD     -0.082433
      5 CG2         0.9860   -1.7440    0.0490 c3        1 TDD     -0.082433
      6 CG3         1.0830    0.1320   -1.5760 c3        1 TDD     -0.082433
      7 C          -1.4280   -0.0940    0.1180 c         1 TDD      0.884600
      8 O          -1.9840    0.5470   -0.8220 o         1 TDD     -0.845300
      9 OXT        -1.9250   -1.1140    0.6710 o         1 TDD     -0.845300
     10 H          -0.0130    2.1960   -0.3180 hn        1 TDD      0.329800
     11 H2         -0.8150    2.2430    1.0760 hn        1 TDD      0.329800
     12 HA          0.0220    0.1170    1.7370 h1        1 TDD      0.042700
     13 HG11        2.4600   -0.0110    1.5970 hc        1 TDD      0.026922
     14 HG12        3.2860   -0.3620    0.0200 hc        1 TDD      0.026922
     15 HG13        2.6180    1.2900    0.3470 hc        1 TDD      0.026922
     16 HG21        0.0010   -2.0860   -0.3540 hc        1 TDD      0.026922
     17 HG22        1.8110   -2.2610   -0.4980 hc        1 TDD      0.026922
     18 HG23        1.0370   -2.0280    1.1270 hc        1 TDD      0.026922
     19 HG31        1.4410    1.1780   -1.7340 hc        1 TDD      0.026922
     20 HG32        1.7440   -0.5520   -2.1620 hc        1 TDD      0.026922
     21 HG33        0.0350    0.0520   -1.9600 hc        1 TDD      0.026922
@<TRIPOS>BOND
     1    1    2 1   
     2    1   10 1   
     3    1   11 1   
     4    2    3 1   
     5    2    7 1   
     6    2   12 1   
     7    3    4 1   
     8    3    5 1   
     9    3    6 1   
    10    4   13 1   
    11    4   14 1   
    12    4   15 1   
    13    5   16 1   
    14    5   17 1   
    15    5   18 1   
    16    6   19 1   
    17    6   20 1   
    18    6   21 1   
    19    7    8 1   
    20    7    9 1   
@<TRIPOS>SUBSTRUCTURE
     1 TDD         1 TEMP              0 ****  ****    0 ROOT
