@<TRIPOS>MOLECULE
TDE
   60    60     1     0     0
SMALL
bcc


@<TRIPOS>ATOM
      1 C2         -0.0580    1.2860   -0.4710 c         1 TDE      0.661500
      2 O8         -0.9290    0.6770   -1.1160 o         1 TDE     -0.577500
      3 C3          1.2740    0.5530   -0.2070 c3        1 TDE      0.044500
      4 C4          1.5180    0.3420    1.2860 c3        1 TDE     -0.101400
      5 C5          1.9450    1.5560    2.0720 c3        1 TDE     -0.131400
      6 C6          0.8520    2.6100    2.2040 c3        1 TDE      0.118100
      7 C7          0.5580    3.3140    0.8620 c3        1 TDE      0.069000
      8 N1         -0.2590    2.5800   -0.0580 n         1 TDE     -0.548900
      9 O7          1.2980    3.6560    3.0540 oh        1 TDE     -0.586800
     10 N9          2.4170    1.2070   -0.9110 n4        1 TDE     -0.672800
     11 C10         2.6280    0.7520   -2.3380 c         1 TDE      0.534100
     12 C12         3.1190    1.8340   -3.3030 c3        1 TDE      0.094100
     13 O21         3.5160    1.2140   -4.5070 os        1 TDE     -0.378600
     14 C25         2.4470    0.8770   -5.3900 c3        1 TDE      0.093700
     15 C13         4.3660    2.5920   -2.7920 c3        1 TDE      0.116100
     16 O22         4.9290    1.8430   -1.7260 oh        1 TDE     -0.650800
     17 C14         4.0050    4.0060   -2.2940 c3        1 TDE      0.106100
     18 O23         3.4380    3.9090   -0.9970 oh        1 TDE     -0.636800
     19 C15         5.2610    4.9040   -2.2990 c3        1 TDE      0.158300
     20 O24         6.1370    4.3070   -1.3400 oh        1 TDE     -0.648800
     21 C16         4.9100    6.3060   -1.9390 c2        1 TDE     -0.264200
     22 C17         5.5200    7.4250   -2.3360 c2        1 TDE     -0.081200
     23 C18         6.7080    7.6050   -3.2300 c3        1 TDE     -0.038800
     24 C21         7.1620    9.0640   -3.1540 c3        1 TDE     -0.089767
     25 C20         7.8750    6.7250   -2.8000 c3        1 TDE     -0.089767
     26 C19         6.3270    7.2970   -4.6730 c3        1 TDE     -0.089767
     27 O11         2.3970   -0.4150   -2.5990 o         1 TDE     -0.400100
     28 H3          1.1460   -0.4820   -0.6730 hx        1 TDE      0.150700
     29 H41         0.5590   -0.0680    1.7110 hc        1 TDE      0.090700
     30 H42         2.2990   -0.4590    1.4080 hc        1 TDE      0.090700
     31 H51         2.2290    1.2160    3.1070 hc        1 TDE      0.064700
     32 H52         2.8630    2.0310    1.6360 hc        1 TDE      0.064700
     33 H6         -0.0850    2.1440    2.6210 h1        1 TDE      0.060700
     34 H71         1.5380    3.5940    0.3760 h1        1 TDE      0.080700
     35 H72         0.0280    4.2850    1.0980 h1        1 TDE      0.080700
     36 HN1        -1.1900    2.9270   -0.1910 hn        1 TDE      0.343500
     37 HO7         1.2940    3.3120    3.9560 ho        1 TDE      0.423000
     38 HN9         2.3120    2.2350   -0.9060 hn        1 TDE      0.478300
     39 H12         2.2590    2.5470   -3.4710 h1        1 TDE      0.095700
     40 H251        2.9760    0.4540   -6.2830 h1        1 TDE      0.064700
     41 H252        1.7850    0.1080   -4.9220 h1        1 TDE      0.064700
     42 H253        1.8660    1.7900   -5.6680 h1        1 TDE      0.064700
     43 H13         5.0990    2.6630   -3.6470 h1        1 TDE      0.108700
     44 H22         5.8240    2.1840   -1.5730 ho        1 TDE      0.468000
     45 H14         3.2110    4.4760   -2.9380 h1        1 TDE      0.099700
     46 H23         4.1690    3.9040   -0.3590 ho        1 TDE      0.443000
     47 H15         5.7480    4.8460   -3.3140 h1        1 TDE      0.070700
     48 H24         6.7880    4.9730   -1.0820 ho        1 TDE      0.445000
     49 H16         4.0400    6.3780   -1.2590 ha        1 TDE      0.139000
     50 H17         5.1020    8.3850   -1.9670 ha        1 TDE      0.139000
     51 H211        6.3390    9.7450   -3.4760 hc        1 TDE      0.042922
     52 H212        7.4580    9.3230   -2.1100 hc        1 TDE      0.042922
     53 H213        8.0390    9.2260   -3.8250 hc        1 TDE      0.042922
     54 H201        7.6650    5.6480   -3.0020 hc        1 TDE      0.042922
     55 H202        8.7930    7.0110   -3.3700 hc        1 TDE      0.042922
     56 H203        8.0820    6.8570   -1.7110 hc        1 TDE      0.042922
     57 H191        7.2060    7.4730   -5.3400 hc        1 TDE      0.042922
     58 H192        5.4920    7.9600   -5.0030 hc        1 TDE      0.042922
     59 H193        6.0060    6.2350   -4.7870 hc        1 TDE      0.042922
     60 H92         3.2960    0.9980   -0.4090 hn        1 TDE      0.478300
@<TRIPOS>BOND
     1    1    2 2   
     2    1    3 1   
     3    1    8 1   
     4    3    4 1   
     5    3   10 1   
     6    3   28 1   
     7    4    5 1   
     8    4   29 1   
     9    4   30 1   
    10    5    6 1   
    11    5   31 1   
    12    5   32 1   
    13    6    7 1   
    14    6    9 1   
    15    6   33 1   
    16    7    8 1   
    17    7   34 1   
    18    7   35 1   
    19    8   36 1   
    20    9   37 1   
    21   10   11 1   
    22   10   38 1   
    23   10   60 1   
    24   11   12 1   
    25   11   27 2   
    26   12   13 1   
    27   12   15 1   
    28   12   39 1   
    29   13   14 1   
    30   14   40 1   
    31   14   41 1   
    32   14   42 1   
    33   15   16 1   
    34   15   17 1   
    35   15   43 1   
    36   16   44 1   
    37   17   18 1   
    38   17   19 1   
    39   17   45 1   
    40   18   46 1   
    41   19   20 1   
    42   19   21 1   
    43   19   47 1   
    44   20   48 1   
    45   21   22 2   
    46   21   49 1   
    47   22   23 1   
    48   22   50 1   
    49   23   24 1   
    50   23   25 1   
    51   23   26 1   
    52   24   51 1   
    53   24   52 1   
    54   24   53 1   
    55   25   54 1   
    56   25   55 1   
    57   25   56 1   
    58   26   57 1   
    59   26   58 1   
    60   26   59 1   
@<TRIPOS>SUBSTRUCTURE
     1 TDE         1 TEMP              0 ****  ****    0 ROOT
