@<TRIPOS>MOLECULE
TDE
   60    60     1     0     0
SMALL
bcc


@<TRIPOS>ATOM
      1 C2          0.3990    1.4730   -0.7470 c         1 TDE      0.668500
      2 O8         -0.1620    1.4590   -1.8610 o         1 TDE     -0.608500
      3 C3          1.3300    0.2870   -0.4190 c3        1 TDE      0.051500
      4 C4          0.9980   -0.3840    0.9110 c3        1 TDE     -0.105400
      5 C5          1.4310    0.3420    2.1590 c3        1 TDE     -0.102400
      6 C6          0.6020    1.5890    2.4420 c3        1 TDE      0.123100
      7 C7          0.8420    2.6960    1.3930 c3        1 TDE      0.051000
      8 N1          0.2070    2.5060    0.1230 n         1 TDE     -0.541900
      9 O7          1.0600    2.0780    3.6920 oh        1 TDE     -0.582800
     10 N9          2.7690    0.6730   -0.5560 n4        1 TDE     -0.677800
     11 C10         3.1850    0.7880   -2.0180 c         1 TDE      0.536100
     12 C12         3.0570    2.1810   -2.6360 c3        1 TDE      0.094100
     13 O21         3.0990    2.0310   -4.0370 os        1 TDE     -0.381600
     14 C25         1.8110    1.9660   -4.6550 c3        1 TDE      0.097700
     15 C13         4.2740    3.0520   -2.2440 c3        1 TDE      0.121100
     16 O22         4.5450    2.7710   -0.8780 oh        1 TDE     -0.672800
     17 C14         3.9030    4.5340   -2.4550 c3        1 TDE      0.112100
     18 O23         2.9490    4.9180   -1.4870 oh        1 TDE     -0.598800
     19 C15         5.1610    5.4260   -2.4240 c3        1 TDE      0.155300
     20 O24         5.6240    5.3780   -1.0730 oh        1 TDE     -0.651800
     21 C16         4.8250    6.8140   -2.8470 c2        1 TDE     -0.255200
     22 C17         5.6190    7.6940   -3.4610 c2        1 TDE     -0.090200
     23 C18         7.0470    7.5590   -3.8920 c3        1 TDE     -0.037800
     24 C21         7.5640    8.9360   -4.3120 c3        1 TDE     -0.089433
     25 C20         7.9310    7.0490   -2.7610 c3        1 TDE     -0.089433
     26 C19         7.1460    6.6250   -5.0920 c3        1 TDE     -0.089433
     27 O11         3.5850   -0.2420   -2.5270 o         1 TDE     -0.394100
     28 H3          1.1300   -0.4840   -1.2360 hx        1 TDE      0.137700
     29 H41        -0.1180   -0.5330    0.9250 hc        1 TDE      0.092700
     30 H42         1.4630   -1.4090    0.9150 hc        1 TDE      0.092700
     31 H51         2.5170    0.6170    2.1300 hc        1 TDE      0.075200
     32 H52         1.3080   -0.3540    3.0360 hc        1 TDE      0.075200
     33 H6         -0.4910    1.3250    2.4930 h1        1 TDE      0.064700
     34 H71         0.4560    3.6670    1.8230 h1        1 TDE      0.066700
     35 H72         1.9550    2.8240    1.2560 h1        1 TDE      0.066700
     36 HN1        -0.4770    3.1860   -0.1460 hn        1 TDE      0.351500
     37 HO7         0.3530    2.6160    4.0700 ho        1 TDE      0.423000
     38 HN9         3.3420   -0.0490   -0.1000 hn        1 TDE      0.467800
     39 H12         2.0980    2.6640   -2.2860 h1        1 TDE      0.113700
     40 H251        1.3010    2.9570   -4.5710 h1        1 TDE      0.065033
     41 H252        1.1880    1.1640   -4.1910 h1        1 TDE      0.065033
     42 H253        2.0490    1.7250   -5.7230 h1        1 TDE      0.065033
     43 H13         5.1600    2.7730   -2.8790 h1        1 TDE      0.092700
     44 H22         5.2330    3.3870   -0.5810 ho        1 TDE      0.473000
     45 H14         3.3890    4.6480   -3.4510 h1        1 TDE      0.108700
     46 H23         3.4300    5.1450   -0.6780 ho        1 TDE      0.426000
     47 H15         5.9510    4.9690   -3.0850 h1        1 TDE      0.066700
     48 H24         6.1740    6.1580   -0.9210 ho        1 TDE      0.443000
     49 H16         3.7870    7.1060   -2.5990 ha        1 TDE      0.143000
     50 H17         5.1800    8.6830   -3.7080 ha        1 TDE      0.137000
     51 H211        6.9530    9.3420   -5.1530 hc        1 TDE      0.041922
     52 H212        7.5150    9.6470   -3.4540 hc        1 TDE      0.041922
     53 H213        8.6250    8.8580   -4.6510 hc        1 TDE      0.041922
     54 H201        7.7770    7.6620   -1.8410 hc        1 TDE      0.041922
     55 H202        9.0050    7.1220   -3.0580 hc        1 TDE      0.041922
     56 H203        7.7090    5.9810   -2.5260 hc        1 TDE      0.041922
     57 H191        6.5230    7.0100   -5.9340 hc        1 TDE      0.041922
     58 H192        6.7980    5.5980   -4.8320 hc        1 TDE      0.041922
     59 H193        8.2080    6.5620   -5.4340 hc        1 TDE      0.041922
     60 H92         2.9540    1.5730   -0.0880 hn        1 TDE      0.467800
@<TRIPOS>BOND
     1    1    2 2   
     2    1    3 1   
     3    1    8 1   
     4    3    4 1   
     5    3   10 1   
     6    3   28 1   
     7    4    5 1   
     8    4   29 1   
     9    4   30 1   
    10    5    6 1   
    11    5   31 1   
    12    5   32 1   
    13    6    7 1   
    14    6    9 1   
    15    6   33 1   
    16    7    8 1   
    17    7   34 1   
    18    7   35 1   
    19    8   36 1   
    20    9   37 1   
    21   10   11 1   
    22   10   38 1   
    23   10   60 1   
    24   11   12 1   
    25   11   27 2   
    26   12   13 1   
    27   12   15 1   
    28   12   39 1   
    29   13   14 1   
    30   14   40 1   
    31   14   41 1   
    32   14   42 1   
    33   15   16 1   
    34   15   17 1   
    35   15   43 1   
    36   16   44 1   
    37   17   18 1   
    38   17   19 1   
    39   17   45 1   
    40   18   46 1   
    41   19   20 1   
    42   19   21 1   
    43   19   47 1   
    44   20   48 1   
    45   21   22 2   
    46   21   49 1   
    47   22   23 1   
    48   22   50 1   
    49   23   24 1   
    50   23   25 1   
    51   23   26 1   
    52   24   51 1   
    53   24   52 1   
    54   24   53 1   
    55   25   54 1   
    56   25   55 1   
    57   25   56 1   
    58   26   57 1   
    59   26   58 1   
    60   26   59 1   
@<TRIPOS>SUBSTRUCTURE
     1 TDE         1 TEMP              0 ****  ****    0 ROOT
