@<TRIPOS>MOLECULE
TDE
   60    60     1     0     0
SMALL
bcc


@<TRIPOS>ATOM
      1 C2          0.4320    1.3870   -0.6770 c         1 TDE      0.667500
      2 O8         -0.0910    1.1490   -1.7840 o         1 TDE     -0.606500
      3 C3          1.3950    0.3170   -0.1170 c3        1 TDE      0.050500
      4 C4          1.0280   -0.1340    1.2940 c3        1 TDE     -0.103400
      5 C5          1.3650    0.8150    2.4160 c3        1 TDE     -0.132400
      6 C6          0.4860    2.0600    2.4370 c3        1 TDE      0.120100
      7 C7          0.7540    2.9800    1.2270 c3        1 TDE      0.081000
      8 N1          0.1800    2.5510   -0.0120 ns        1 TDE     -0.541900
      9 O7          0.8220    2.8610    3.5590 oh        1 TDE     -0.585800
     10 N9          2.8230    0.7410   -0.2630 ny        1 TDE     -0.678800
     11 C10         3.3000    0.6220   -1.7060 c         1 TDE      0.536100
     12 C12         3.1410    1.8800   -2.5630 c3        1 TDE      0.093100
     13 O21         3.2530    1.4920   -3.9130 os        1 TDE     -0.381600
     14 C25         2.0000    1.2600   -4.5600 c3        1 TDE      0.097700
     15 C13         4.3000    2.8660   -2.2820 c3        1 TDE      0.122100
     16 O22         4.5100    2.8470   -0.8780 oh        1 TDE     -0.672800
     17 C14         3.8810    4.2640   -2.7790 c3        1 TDE      0.110100
     18 O23         2.8630    4.7720   -1.9410 oh        1 TDE     -0.597800
     19 C15         5.0990    5.2080   -2.8600 c3        1 TDE      0.157300
     20 O24         5.5100    5.4120   -1.5080 oh        1 TDE     -0.651800
     21 C16         4.7360    6.4800   -3.5460 c2        1 TDE     -0.250200
     22 C17         5.5430    7.4510   -3.9780 c2        1 TDE     -0.095200
     23 C18         7.0280    7.6220   -3.9150 c3        1 TDE     -0.038800
     24 C21         7.3580    8.5110   -2.7170 c3        1 TDE     -0.089100
     25 C20         7.8070    6.3220   -3.8040 c3        1 TDE     -0.089100
     26 C19         7.4780    8.3360   -5.1920 c3        1 TDE     -0.089100
     27 O11         3.7670   -0.4590   -2.0120 o         1 TDE     -0.395100
     28 H3          1.2620   -0.5890   -0.7970 hx        1 TDE      0.137700
     29 H41         1.5360   -1.1200    1.4920 hc        1 TDE      0.092200
     30 H42        -0.0810   -0.3340    1.2870 hc        1 TDE      0.092200
     31 H51         1.2180    0.2680    3.3890 hc        1 TDE      0.067200
     32 H52         2.4430    1.1220    2.3920 hc        1 TDE      0.067200
     33 H6         -0.6000    1.7650    2.4780 h1        1 TDE      0.063700
     34 H71         1.8690    3.1130    1.1150 h1        1 TDE      0.075700
     35 H72         0.3260    3.9970    1.4740 h1        1 TDE      0.075700
     36 HN1        -0.5270    3.1390   -0.4080 hn        1 TDE      0.353500
     37 HO7         0.4730    2.4170    4.3430 ho        1 TDE      0.425000
     38 HN9         2.9500    1.7150    0.0480 hn        1 TDE      0.467800
     39 H12         2.1470    2.3680   -2.3390 h1        1 TDE      0.113700
     40 H251        2.2970    0.8540   -5.5600 h1        1 TDE      0.065700
     41 H252        1.3890    0.5190   -3.9890 h1        1 TDE      0.065700
     42 H253        1.4440    2.2240   -4.6670 h1        1 TDE      0.065700
     43 H13         5.2290    2.5200   -2.8160 h1        1 TDE      0.092700
     44 H22         5.1530    3.5420   -0.6660 ho        1 TDE      0.473000
     45 H14         3.4140    4.1660   -3.8000 h1        1 TDE      0.106700
     46 H23         3.2940    5.1690   -1.1700 ho        1 TDE      0.426000
     47 H15         5.9300    4.6740   -3.4050 h1        1 TDE      0.069700
     48 H24         5.9490    6.2720   -1.4550 ho        1 TDE      0.443000
     49 H16         3.6450    6.6010   -3.6890 ha        1 TDE      0.142000
     50 H17         5.0520    8.3240   -4.4610 ha        1 TDE      0.135000
     51 H211        7.0720    8.0090   -1.7620 hc        1 TDE      0.042367
     52 H212        8.4540    8.7200   -2.6940 hc        1 TDE      0.042367
     53 H213        6.8100    9.4810   -2.7900 hc        1 TDE      0.042367
     54 H201        8.9010    6.5300   -3.9070 hc        1 TDE      0.042367
     55 H202        7.6440    5.8390   -2.8110 hc        1 TDE      0.042367
     56 H203        7.5080    5.6150   -4.6140 hc        1 TDE      0.042367
     57 H191        6.9730    9.3270   -5.2850 hc        1 TDE      0.042367
     58 H192        7.2300    7.7190   -6.0870 hc        1 TDE      0.042367
     59 H193        8.5820    8.5030   -5.1660 hc        1 TDE      0.042367
     60 H92         3.4020    0.1350    0.3320 hn        1 TDE      0.467800
@<TRIPOS>BOND
     1    1    2 2   
     2    1    3 1   
     3    1    8 1   
     4    3    4 1   
     5    3   10 1   
     6    3   28 1   
     7    4    5 1   
     8    4   29 1   
     9    4   30 1   
    10    5    6 1   
    11    5   31 1   
    12    5   32 1   
    13    6    7 1   
    14    6    9 1   
    15    6   33 1   
    16    7    8 1   
    17    7   34 1   
    18    7   35 1   
    19    8   36 1   
    20    9   37 1   
    21   10   11 1   
    22   10   38 1   
    23   10   60 1   
    24   11   12 1   
    25   11   27 2   
    26   12   13 1   
    27   12   15 1   
    28   12   39 1   
    29   13   14 1   
    30   14   40 1   
    31   14   41 1   
    32   14   42 1   
    33   15   16 1   
    34   15   17 1   
    35   15   43 1   
    36   16   44 1   
    37   17   18 1   
    38   17   19 1   
    39   17   45 1   
    40   18   46 1   
    41   19   20 1   
    42   19   21 1   
    43   19   47 1   
    44   20   48 1   
    45   21   22 2   
    46   21   49 1   
    47   22   23 1   
    48   22   50 1   
    49   23   24 1   
    50   23   25 1   
    51   23   26 1   
    52   24   51 1   
    53   24   52 1   
    54   24   53 1   
    55   25   54 1   
    56   25   55 1   
    57   25   56 1   
    58   26   57 1   
    59   26   58 1   
    60   26   59 1   
@<TRIPOS>SUBSTRUCTURE
     1 TDE         1 TEMP              0 ****  ****    0 ROOT
