@<TRIPOS>MOLECULE
TDE
   59    59     1     0     0
SMALL
bcc


@<TRIPOS>ATOM
      1 C2          0.1750    0.6380   -5.0950 c         1 TDE      0.688500
      2 O8          0.9600    0.7640   -6.0550 o         1 TDE     -0.633500
      3 C3          0.4580   -0.4240   -4.0150 c3        1 TDE      0.033700
      4 C4         -0.6500   -1.4870   -4.0310 c3        1 TDE     -0.104400
      5 C5         -1.9470   -1.1010   -3.3630 c3        1 TDE     -0.085400
      6 C6         -2.7260   -0.0550   -4.1500 c3        1 TDE      0.116100
      7 C7         -2.0310    1.3250   -4.1310 c3        1 TDE      0.067000
      8 N1         -0.9250    1.4680   -5.0240 n         1 TDE     -0.566900
      9 O7         -3.9880    0.0610   -3.5040 oh        1 TDE     -0.593800
     10 N9          0.7250    0.1820   -2.7370 n         1 TDE     -0.542900
     11 C10         1.6750   -0.3460   -1.8770 c         1 TDE      0.631100
     12 C12         1.7360    0.2670   -0.4690 c3        1 TDE      0.078100
     13 O21         2.8980   -0.1880    0.2120 os        1 TDE     -0.403600
     14 C25         4.1050    0.3840   -0.2780 c3        1 TDE      0.110700
     15 C13         0.5510   -0.2070    0.3960 c3        1 TDE      0.117100
     16 O22        -0.6380    0.2440   -0.2410 oh        1 TDE     -0.632800
     17 C14         0.6400    0.4040    1.8080 c3        1 TDE      0.084100
     18 O23         0.4000    1.7980    1.7690 oh        1 TDE     -0.591800
     19 C15        -0.3790   -0.2840    2.7440 c3        1 TDE      0.140300
     20 O24        -1.6770    0.2200    2.4560 oh        1 TDE     -0.616800
     21 C16         0.0120   -0.1470    4.1770 c2        1 TDE     -0.211200
     22 C17        -0.8710    0.0060    5.1650 c2        1 TDE     -0.135200
     23 C18        -0.5470    0.1280    6.6220 c3        1 TDE     -0.024800
     24 C21        -1.0880    1.4630    7.1270 c3        1 TDE     -0.085767
     25 C20        -1.2420   -1.0080    7.3680 c3        1 TDE     -0.085767
     26 C19         0.9470    0.0620    6.8970 c3        1 TDE     -0.085767
     27 O11         2.4810   -1.2220   -2.2400 o         1 TDE     -0.586100
     28 H3          1.4170   -0.9400   -4.3500 h1        1 TDE      0.121700
     29 H41        -0.8400   -1.7640   -5.1020 hc        1 TDE      0.062700
     30 H42        -0.2500   -2.4020   -3.5150 hc        1 TDE      0.062700
     31 H51        -2.5950   -2.0160   -3.2730 hc        1 TDE      0.064200
     32 H52        -1.7750   -0.7290   -2.3180 hc        1 TDE      0.064200
     33 H6         -2.8760   -0.4030   -5.2110 h1        1 TDE      0.042700
     34 H71        -2.8000    2.1050   -4.4070 h1        1 TDE      0.052200
     35 H72        -1.7120    1.5460   -3.0720 h1        1 TDE      0.052200
     36 HN1        -1.0550    2.0850   -5.7960 hn        1 TDE      0.315500
     37 HO7        -4.5420    0.6140   -4.0680 ho        1 TDE      0.401000
     38 HN9        -0.0210    0.6990   -2.3230 hn        1 TDE      0.321500
     39 H12         1.7340    1.3920   -0.5320 h1        1 TDE      0.080700
     40 H251        4.8960   -0.0680    0.3720 h1        1 TDE      0.047033
     41 H252        4.2660    0.1010   -1.3480 h1        1 TDE      0.047033
     42 H253        4.0850    1.4950   -0.1630 h1        1 TDE      0.047033
     43 H13         0.5610   -1.3290    0.4600 h1        1 TDE      0.069700
     44 H22        -1.3810   -0.0700    0.2960 ho        1 TDE      0.440000
     45 H14         1.6870    0.2940    2.2060 h1        1 TDE      0.112700
     46 H23        -0.3750    1.9420    1.2070 ho        1 TDE      0.410000
     47 H15        -0.4500   -1.3820    2.4850 h1        1 TDE      0.083700
     48 H24        -1.7300    1.1070    2.8360 ho        1 TDE      0.416000
     49 H16         1.0970   -0.2020    4.3590 ha        1 TDE      0.139000
     50 H17        -1.9540    0.0490    4.9460 ha        1 TDE      0.127000
     51 H211       -0.8900    1.5640    8.2210 hc        1 TDE      0.037589
     52 H212       -0.5910    2.3080    6.5940 hc        1 TDE      0.037589
     53 H213       -2.1890    1.5270    6.9560 hc        1 TDE      0.037589
     54 H201       -2.3450   -0.9680    7.1980 hc        1 TDE      0.037589
     55 H202       -0.8600   -1.9940    7.0130 hc        1 TDE      0.037589
     56 H203       -1.0450   -0.9190    8.4630 hc        1 TDE      0.037589
     57 H191        1.4790    0.8910    6.3720 hc        1 TDE      0.037589
     58 H192        1.1350    0.1600    7.9940 hc        1 TDE      0.037589
     59 H193        1.3660   -0.9130    6.5520 hc        1 TDE      0.037589
@<TRIPOS>BOND
     1    1    2 2   
     2    1    3 1   
     3    1    8 1   
     4    3    4 1   
     5    3   10 1   
     6    3   28 1   
     7    4    5 1   
     8    4   29 1   
     9    4   30 1   
    10    5    6 1   
    11    5   31 1   
    12    5   32 1   
    13    6    7 1   
    14    6    9 1   
    15    6   33 1   
    16    7    8 1   
    17    7   34 1   
    18    7   35 1   
    19    8   36 1   
    20    9   37 1   
    21   10   11 1   
    22   10   38 1   
    23   11   12 1   
    24   11   27 2   
    25   12   13 1   
    26   12   15 1   
    27   12   39 1   
    28   13   14 1   
    29   14   40 1   
    30   14   41 1   
    31   14   42 1   
    32   15   16 1   
    33   15   17 1   
    34   15   43 1   
    35   16   44 1   
    36   17   18 1   
    37   17   19 1   
    38   17   45 1   
    39   18   46 1   
    40   19   20 1   
    41   19   21 1   
    42   19   47 1   
    43   20   48 1   
    44   21   22 2   
    45   21   49 1   
    46   22   23 1   
    47   22   50 1   
    48   23   24 1   
    49   23   25 1   
    50   23   26 1   
    51   24   51 1   
    52   24   52 1   
    53   24   53 1   
    54   25   54 1   
    55   25   55 1   
    56   25   56 1   
    57   26   57 1   
    58   26   58 1   
    59   26   59 1   
@<TRIPOS>SUBSTRUCTURE
     1 TDE         1 TEMP              0 ****  ****    0 ROOT
