@<TRIPOS>MOLECULE
TDF
   25    22     1     0     0
SMALL
bcc


@<TRIPOS>ATOM
      1 C          -3.1490    1.3030   -1.1320 c1        1 TDF      0.308000
      2 N          -2.9910   -1.0810   -1.3350 n3        1 TDF     -0.320000
      3 O          -2.8550    2.2130   -1.9480 o         1 TDF     -0.571500
      4 CA         -2.2550    0.0900   -0.9990 c2        1 TDF     -0.126000
      5 CB         -1.7610   -0.0160    0.4230 c3        1 TDF     -0.132000
      6 CG         -0.2480   -0.0380    0.4320 c2        1 TDF      0.018000
      7 CZ          2.5240   -0.0700    0.5250 c1        1 TDF     -0.194000
      8 C13         4.0370   -0.0820    0.6160 c2        1 TDF      0.469000
      9 F19         4.4220    0.5560    1.7300 f         1 TDF     -0.179333
     10 F20         4.4720   -1.3490    0.6540 f         1 TDF     -0.179333
     11 F21         4.5530    0.5350   -0.4520 f         1 TDF     -0.179333
     12 CD1         0.4620    1.1440    0.3080 c1        1 TDF     -0.140000
     13 CD2         0.4270   -1.2380    0.6030 c2        1 TDF     -0.140000
     14 CE1         1.8500    1.1290    0.3540 c1        1 TDF     -0.086000
     15 CE2         1.8130   -1.2540    0.6490 c2        1 TDF     -0.086000
     16 OXT        -4.1840    1.4040   -0.4210 o         1 TDF     -0.571500
     17 HN         -3.4990   -1.3390   -0.6180 hn        1 TDF      0.128000
     18 HNA        -2.4100   -1.7540   -1.5540 hn        1 TDF      0.128000
     19 HA         -1.4940    0.1800   -1.6010 h4        1 TDF      0.083000
     20 HB         -2.0780    0.7510    0.9360 hc        1 TDF      0.106500
     21 HBA        -2.1020   -0.8400    0.8260 hc        1 TDF      0.106500
     22 HD1        -0.0120    1.9850    0.1650 ha        1 TDF      0.153000
     23 HD2        -0.0720   -2.0720    0.6640 ha        1 TDF      0.139000
     24 HE1         2.3490    1.9640    0.2960 ha        1 TDF      0.134000
     25 HE2         2.2000   -2.1210    0.8780 ha        1 TDF      0.132000
@<TRIPOS>BOND
     1    1    3 1   
     2    1   16 1   
     3    2    4 1   
     4    2   17 1   
     5    2   18 1   
     6    4    5 1   
     7    4   19 1   
     8    5    6 1   
     9    5   20 1   
    10    5   21 1   
    11    6   12 1   
    12    6   13 1   
    13    7   14 1   
    14    7   15 1   
    15    8    9 1   
    16    8   10 1   
    17    8   11 1   
    18   12   22 1   
    19   13   15 1   
    20   13   23 1   
    21   14   24 1   
    22   15   25 1   
@<TRIPOS>SUBSTRUCTURE
     1 TDF         1 TEMP              0 ****  ****    0 ROOT
