@<TRIPOS>MOLECULE
TDF
   25    25     1     0     0
SMALL
bcc


@<TRIPOS>ATOM
      1 C          -4.3460    0.3020   -0.0240 c         1 TDF      0.888600
      2 N          -2.7800   -1.4790   -0.9490 n3        1 TDF     -0.887800
      3 O          -5.2930   -0.4630   -0.3590 o         1 TDF     -0.836800
      4 CA         -2.8840   -0.1500   -0.3630 c3        1 TDF      0.021500
      5 CB         -2.0350    0.0130    0.9040 c3        1 TDF     -0.046100
      6 CG         -0.5780    0.0390    0.6190 ca        1 TDF      0.010700
      7 CZ          2.1750    0.1300    0.1090 ca        1 TDF     -0.201300
      8 C13         3.6690    0.1880   -0.1440 c3        1 TDF      0.690200
      9 F19         4.4060    0.7280    0.8870 f         1 TDF     -0.250633
     10 F20         4.2740   -1.0280   -0.3620 f         1 TDF     -0.250633
     11 F21         4.0500    0.9390   -1.2330 f         1 TDF     -0.250633
     12 CD1        -0.0040    1.1580   -0.0050 ca        1 TDF     -0.140000
     13 CD2         0.2480   -1.0360    0.9750 ca        1 TDF     -0.140000
     14 CE1         1.3620    1.2060   -0.2600 ca        1 TDF     -0.086000
     15 CE2         1.6160   -0.9950    0.7220 ca        1 TDF     -0.086000
     16 OXT        -4.4870    1.4180    0.5490 o         1 TDF     -0.836800
     17 HN         -3.0850   -2.1510   -0.2650 hn        1 TDF      0.332800
     18 HNA        -3.4490   -1.5240   -1.7000 hn        1 TDF      0.332800
     19 HA         -2.5010    0.5780   -1.1370 h1        1 TDF      0.043700
     20 HB         -2.3460    0.9890    1.3740 hc        1 TDF      0.067200
     21 HBA        -2.2740   -0.8050    1.6330 hc        1 TDF      0.067200
     22 HD1        -0.6520    1.9990   -0.2980 ha        1 TDF      0.146000
     23 HD2        -0.1940   -1.9260    1.4460 ha        1 TDF      0.146000
     24 HE1         1.8070    2.0820   -0.7550 ha        1 TDF      0.133000
     25 HE2         2.2600   -1.8440    0.9950 ha        1 TDF      0.133000
@<TRIPOS>BOND
     1    1    3 1   
     2    1    4 1   
     3    1   16 1   
     4    2    4 1   
     5    2   17 1   
     6    2   18 1   
     7    4    5 1   
     8    4   19 1   
     9    5    6 1   
    10    5   20 1   
    11    5   21 1   
    12    6   12 ar  
    13    6   13 ar  
    14    7    8 1   
    15    7   14 ar  
    16    7   15 ar  
    17    8    9 1   
    18    8   10 1   
    19    8   11 1   
    20   12   14 ar  
    21   12   22 1   
    22   13   15 ar  
    23   13   23 1   
    24   14   24 1   
    25   15   25 1   
@<TRIPOS>SUBSTRUCTURE
     1 TDF         1 TEMP              0 ****  ****    0 ROOT
