@<TRIPOS>MOLECULE
TDG
   45    46     1     0     0
SMALL
bcc


@<TRIPOS>ATOM
      1 C1         -0.0360   -0.2420   -1.3690 c3        1 TDG      0.190200
      2 S1         -1.1560   -0.0000    0.0020 ss        1 TDG     -0.254200
      3 C2         -0.7890   -0.9820   -2.4770 c3        1 TDG      0.093100
      4 O2         -1.0270   -2.3380   -2.1380 oh        1 TDG     -0.604800
      5 C3          0.0710   -1.0210   -3.7530 c3        1 TDG      0.114100
      6 O3         -0.6790   -1.5300   -4.8420 oh        1 TDG     -0.606800
      7 C4          0.5080    0.3990   -4.1470 c3        1 TDG      0.126100
      8 O4         -0.5940    1.1910   -4.5510 oh        1 TDG     -0.591800
      9 C5          1.1820    1.0780   -2.9480 c3        1 TDG      0.095100
     10 O5          0.3590    1.0580   -1.7770 os        1 TDG     -0.404600
     11 C6          1.4490    2.5610   -3.2300 c3        1 TDG      0.143400
     12 O6          2.1770    3.1510   -2.1750 oh        1 TDG     -0.597800
     13 C1'        -0.0340    0.2420    1.3700 c3        1 TDG      0.190200
     14 C2'        -0.7860    0.9820    2.4790 c3        1 TDG      0.093100
     15 O2'        -1.0240    2.3370    2.1410 oh        1 TDG     -0.604800
     16 C3'         0.0770    1.0210    3.7540 c3        1 TDG      0.114100
     17 O3'        -0.6710    1.5290    4.8440 oh        1 TDG     -0.606800
     18 C4'         0.5150   -0.4000    4.1470 c3        1 TDG      0.126100
     19 O4'        -0.5860   -1.1920    4.5530 oh        1 TDG     -0.591800
     20 C5'         1.1870   -1.0780    2.9470 c3        1 TDG      0.095100
     21 O5'         0.3630   -1.0580    1.7780 os        1 TDG     -0.404600
     22 C6'         1.4560   -2.5610    3.2290 c3        1 TDG      0.143400
     23 O6'         2.1820   -3.1510    2.1730 oh        1 TDG     -0.597800
     24 H1          0.8600   -0.8320   -1.0390 h2        1 TDG      0.080700
     25 H2         -1.7620   -0.4580   -2.6970 h1        1 TDG      0.081700
     26 HO2        -1.5030   -2.3410   -1.2940 ho        1 TDG      0.429000
     27 H3          0.9730   -1.6700   -3.5770 h1        1 TDG      0.060700
     28 HO3        -1.0480   -2.3760   -4.5550 ho        1 TDG      0.432000
     29 H4          1.2440    0.3300   -4.9980 h1        1 TDG      0.058700
     30 HO4        -1.0860    0.6710   -5.2020 ho        1 TDG      0.426000
     31 H5          2.1440    0.5380   -2.7210 h1        1 TDG      0.056700
     32 H61         0.4760    3.0930   -3.3970 h1        1 TDG      0.068700
     33 H62         2.1050    2.6560   -4.1350 h1        1 TDG      0.068700
     34 HO6         1.6130    3.1210   -1.3920 ho        1 TDG      0.410000
     35 H1'         0.8610    0.8320    1.0390 h2        1 TDG      0.080700
     36 H2'        -1.7580    0.4570    2.7020 h1        1 TDG      0.081700
     37 HO2'       -1.5010    2.3400    1.2980 ho        1 TDG      0.429000
     38 H3'         0.9790    1.6700    3.5760 h1        1 TDG      0.060700
     39 HO3'       -1.0410    2.3750    4.5580 ho        1 TDG      0.432000
     40 H4'         1.2520   -0.3300    4.9970 h1        1 TDG      0.058700
     41 HO4'       -1.0770   -0.6720    5.2050 ho        1 TDG      0.426000
     42 H5'         2.1480   -0.5380    2.7190 h1        1 TDG      0.056700
     43 H6'1        2.1130   -2.6560    4.1320 h1        1 TDG      0.068700
     44 H6'2        0.4830   -3.0940    3.3970 h1        1 TDG      0.068700
     45 HO6'        1.6170   -3.1200    1.3910 ho        1 TDG      0.410000
@<TRIPOS>BOND
     1    1    2 1   
     2    1    3 1   
     3    1   10 1   
     4    1   24 1   
     5    2   13 1   
     6    3    4 1   
     7    3    5 1   
     8    3   25 1   
     9    4   26 1   
    10    5    6 1   
    11    5    7 1   
    12    5   27 1   
    13    6   28 1   
    14    7    8 1   
    15    7    9 1   
    16    7   29 1   
    17    8   30 1   
    18    9   10 1   
    19    9   11 1   
    20    9   31 1   
    21   11   12 1   
    22   11   32 1   
    23   11   33 1   
    24   12   34 1   
    25   13   14 1   
    26   13   21 1   
    27   13   35 1   
    28   14   15 1   
    29   14   16 1   
    30   14   36 1   
    31   15   37 1   
    32   16   17 1   
    33   16   18 1   
    34   16   38 1   
    35   17   39 1   
    36   18   19 1   
    37   18   20 1   
    38   18   40 1   
    39   19   41 1   
    40   20   21 1   
    41   20   22 1   
    42   20   42 1   
    43   22   23 1   
    44   22   43 1   
    45   22   44 1   
    46   23   45 1   
@<TRIPOS>SUBSTRUCTURE
     1 TDG         1 TEMP              0 ****  ****    0 ROOT
