@<TRIPOS>MOLECULE
TDG
   45    46     1     0     0
SMALL
bcc


@<TRIPOS>ATOM
      1 C1          1.2860   -0.0610    0.5370 c3        1 TDG      0.183700
      2 S1          0.6630    0.2180   -1.0620 ss        1 TDG     -0.255200
      3 C2          2.5910   -0.8080    0.4340 c3        1 TDG      0.095100
      4 O2          2.3340   -2.1230   -0.0800 oh        1 TDG     -0.594300
      5 C3          3.2870   -0.9310    1.7670 c3        1 TDG      0.116100
      6 O3          4.5940   -1.4930    1.5610 oh        1 TDG     -0.599800
      7 C4          3.4310    0.3910    2.4560 c3        1 TDG      0.109100
      8 O4          4.3810    1.2000    1.7230 oh        1 TDG     -0.587300
      9 C5          2.1130    1.1460    2.5490 c3        1 TDG      0.074600
     10 O5          1.4350    1.2630    1.2420 os        1 TDG     -0.418600
     11 C6          2.3820    2.5150    3.0770 c3        1 TDG      0.140400
     12 O6          2.5810    2.4480    4.4950 oh        1 TDG     -0.593300
     13 C1'        -0.9920    0.1320   -1.0340 c3        1 TDG      0.183700
     14 C2'        -1.5400    1.1850   -1.9220 c3        1 TDG      0.095100
     15 O2'        -1.9660    2.3450   -1.0940 oh        1 TDG     -0.594300
     16 C3'        -2.6520    0.7150   -2.6610 c3        1 TDG      0.116100
     17 O3'        -2.0230   -0.0550   -3.9520 oh        1 TDG     -0.599800
     18 C4'        -3.6380   -0.1310   -2.1620 c3        1 TDG      0.109100
     19 O4'        -4.3390   -0.7900   -3.3030 oh        1 TDG     -0.587300
     20 C5'        -3.0470   -1.2010   -1.2590 c3        1 TDG      0.074600
     21 O5'        -1.4600   -1.4240   -1.4770 os        1 TDG     -0.418600
     22 C6'        -3.7190   -2.4330   -1.5140 c3        1 TDG      0.140400
     23 O6'        -3.5580   -3.2880   -0.4250 oh        1 TDG     -0.593300
     24 H1          0.6580   -0.6020    1.0240 h2        1 TDG      0.086200
     25 H2          3.1990   -0.3180   -0.2100 h1        1 TDG      0.078200
     26 HO2         2.9010   -2.2970   -0.7520 ho        1 TDG      0.422000
     27 H3          2.7690   -1.5330    2.3400 h1        1 TDG      0.087700
     28 HO3         4.6720   -2.2510    2.0350 ho        1 TDG      0.423000
     29 H4          3.7850    0.2350    3.3940 h1        1 TDG      0.079700
     30 HO4         5.1210    1.3070    2.2110 ho        1 TDG      0.420500
     31 H5          1.5100    0.6680    3.1850 h1        1 TDG      0.064200
     32 H61         1.6290    3.0910    2.8830 h1        1 TDG      0.065950
     33 H62         3.1650    2.8650    2.6630 h1        1 TDG      0.065950
     34 HO6         2.4340    3.2510    4.8540 ho        1 TDG      0.408500
     35 H1'        -1.3060    0.3050   -0.0980 h2        1 TDG      0.086200
     36 H2'        -0.8390    1.4770   -2.5460 h1        1 TDG      0.078200
     37 HO2'       -1.7200    3.1010   -1.4950 ho        1 TDG      0.422000
     38 H3'        -3.1070    1.4950   -2.9910 h1        1 TDG      0.087700
     39 HO3'       -2.1450    0.4420   -4.6840 ho        1 TDG      0.423000
     40 H4'        -4.2810    0.3940   -1.6540 h1        1 TDG      0.079700
     41 HO4'       -5.1950   -0.4830   -3.3520 ho        1 TDG      0.420500
     42 H5'        -3.2090   -0.9350   -0.2910 h1        1 TDG      0.064200
     43 H6'1       -3.3390   -2.8540   -2.3220 h1        1 TDG      0.065950
     44 H6'2       -4.6480   -2.2660   -1.6510 h1        1 TDG      0.065950
     45 HO6'       -4.1960   -3.9100   -0.4400 ho        1 TDG      0.408500
@<TRIPOS>BOND
     1    1    2 1   
     2    1    3 1   
     3    1   10 1   
     4    1   24 1   
     5    2   13 1   
     6    3    4 1   
     7    3    5 1   
     8    3   25 1   
     9    4   26 1   
    10    5    6 1   
    11    5    7 1   
    12    5   27 1   
    13    6   28 1   
    14    7    8 1   
    15    7    9 1   
    16    7   29 1   
    17    8   30 1   
    18    9   10 1   
    19    9   11 1   
    20    9   31 1   
    21   11   12 1   
    22   11   32 1   
    23   11   33 1   
    24   12   34 1   
    25   13   14 1   
    26   13   21 1   
    27   13   35 1   
    28   14   15 1   
    29   14   16 1   
    30   14   36 1   
    31   15   37 1   
    32   16   17 1   
    33   16   18 1   
    34   16   38 1   
    35   17   39 1   
    36   18   19 1   
    37   18   20 1   
    38   18   40 1   
    39   19   41 1   
    40   20   21 1   
    41   20   22 1   
    42   20   42 1   
    43   22   23 1   
    44   22   43 1   
    45   22   44 1   
    46   23   45 1   
@<TRIPOS>SUBSTRUCTURE
     1 TDG         1 TEMP              0 ****  ****    0 ROOT
