@<TRIPOS>MOLECULE
TDH
   30    31     1     0     0
SMALL
bcc


@<TRIPOS>ATOM
      1 CAC        -0.0670   -1.0970    0.2300 ce        1 TDH     -0.220000
      2 CAD         2.8060   -0.5140    3.4620 c1        1 TDH     -0.003800
      3 CAE         3.4380    3.8010   -3.0630 ce        1 TDH     -0.192000
      4 CAF         3.2040    1.2810   -3.1200 cf        1 TDH     -0.081700
      5 CAG         1.3660   -0.9770    0.2340 ce        1 TDH     -0.033000
      6 CAH         1.8530   -1.1710    2.7480 cf        1 TDH     -0.084100
      7 CAI         4.2830    3.9800   -2.0460 c2        1 TDH     -0.155000
      8 CAJ         3.6080    1.0090   -1.8150 ch        1 TDH     -0.118300
      9 CAK         3.8520   -0.0700    2.7470 ce        1 TDH     -0.010700
     10 CAN        -0.8600   -0.7100    1.2530 c2        1 TDH      0.051100
     11 CAO         3.1210    2.5190   -3.6730 ce        1 TDH      0.134100
     12 CAP         2.1610   -0.9260    1.3130 cf        1 TDH     -0.163200
     13 CAQ         3.9330    0.7050   -0.6980 c1        1 TDH     -0.026200
     14 CAR         3.6900   -0.7120    1.2940 c3        1 TDH      0.207900
     15 NAL         4.6810    1.0810    2.6040 ne        1 TDH     -0.159600
     16 NAM         4.8790    1.3170    1.4030 n2        1 TDH     -0.001700
     17 NAS         4.4020    0.3380    0.5180 nh        1 TDH     -0.259300
     18 OAA        -2.2150   -0.8880    1.1290 oh        1 TDH     -0.495100
     19 H1         -0.5180   -1.5110   -0.6880 ha        1 TDH      0.157000
     20 H2         -0.4930   -0.2510    2.1850 h4        1 TDH      0.135000
     21 H3          2.9140    4.6650   -3.5130 ha        1 TDH      0.126000
     22 H4          2.9230    0.4020   -3.7290 ha        1 TDH      0.160000
     23 H5          1.8300   -0.9140   -0.7720 ha        1 TDH      0.151000
     24 H6          1.0380   -1.8080    3.0890 ha        1 TDH      0.168000
     25 H7          4.4760    4.9770   -1.6260 ha        1 TDH      0.129500
     26 H8          4.8340    3.1560   -1.5690 ha        1 TDH      0.129500
     27 H9          4.2090   -1.6830    1.1010 h1        1 TDH      0.117700
     28 H10        -2.6360   -0.4670    1.8920 ho        1 TDH      0.423000
     29 H11         2.7690    3.4340   -5.3260 ho        1 TDH      0.421000
     30 OAB         2.6410    2.5420   -4.9730 oh        1 TDH     -0.507100
@<TRIPOS>BOND
     1    1    5 1   
     2    1   10 2   
     3    1   19 1   
     4    2    6 2   
     5    2    9 2   
     6    3    7 2   
     7    3   11 1   
     8    3   21 1   
     9    4    8 1   
    10    4   11 2   
    11    4   22 1   
    12    5   12 2   
    13    5   23 1   
    14    6   12 1   
    15    6   24 1   
    16    7   25 1   
    17    7   26 1   
    18    8   13 3   
    19    9   14 1   
    20    9   15 1   
    21   10   18 1   
    22   10   20 1   
    23   11   30 1   
    24   12   14 1   
    25   13   17 1   
    26   14   17 1   
    27   14   27 1   
    28   15   16 2   
    29   16   17 1   
    30   18   28 1   
    31   29   30 1   
@<TRIPOS>SUBSTRUCTURE
     1 TDH         1 TEMP              0 ****  ****    0 ROOT
