@<TRIPOS>MOLECULE
TDH
   30    32     1     0     0
SMALL
bcc


@<TRIPOS>ATOM
      1 CAC        -2.2850    1.5540   -1.0960 ca        1 TDH     -0.189000
      2 CAD        -3.6260    0.5340    0.6720 ca        1 TDH     -0.189000
      3 CAE         2.1020    1.6430    0.9550 ca        1 TDH     -0.180500
      4 CAF         3.5500    0.6400   -0.7320 ca        1 TDH     -0.180500
      5 CAG        -1.3880    0.4930   -1.0190 ca        1 TDH     -0.069000
      6 CAH        -2.7230   -0.5180    0.7360 ca        1 TDH     -0.069000
      7 CAI         1.2660    0.5340    0.8990 ca        1 TDH     -0.081500
      8 CAJ         2.7110   -0.4650   -0.7930 ca        1 TDH     -0.081500
      9 CAK        -1.0180   -3.0600   -0.0260 cc        1 TDH      0.256200
     10 CAN        -3.4030    1.5730   -0.2490 ca        1 TDH      0.138100
     11 CAO         3.2420    1.6960    0.1420 ca        1 TDH      0.131100
     12 CAP        -1.5970   -0.5470   -0.1040 ca        1 TDH     -0.069000
     13 CAQ         1.5560   -0.5250    0.0170 ca        1 TDH     -0.031200
     14 CAR        -0.7050   -1.6850   -0.0460 cd        1 TDH     -0.118600
     15 NAL         0.2000   -3.7640   -0.0100 nc        1 TDH     -0.355000
     16 NAM         1.1730   -2.9480   -0.0140 nd        1 TDH     -0.158800
     17 NAS         0.7110   -1.6690   -0.0370 na        1 TDH      0.123300
     18 OAA        -4.3300    2.5870   -0.2650 oh        1 TDH     -0.492100
     19 H1         -2.1210    2.3670   -1.8170 ha        1 TDH      0.148500
     20 H2         -4.5100    0.5690    1.3250 ha        1 TDH      0.148500
     21 H3          1.8710    2.4700    1.6420 ha        1 TDH      0.150500
     22 H4          4.4530    0.6980   -1.3570 ha        1 TDH      0.150500
     23 H5         -0.5100    0.4720   -1.6840 ha        1 TDH      0.146000
     24 H6         -2.8890   -1.3400    1.4500 ha        1 TDH      0.146000
     25 H7          0.3720    0.4950    1.5430 ha        1 TDH      0.156500
     26 H8          2.9620   -1.2960   -1.4730 ha        1 TDH      0.156500
     27 H9         -1.9840   -3.5590   -0.0330 h4        1 TDH      0.058100
     28 H10        -4.0730    3.2190   -0.9520 ho        1 TDH      0.423000
     29 H11         3.8030    3.3970    0.8090 ho        1 TDH      0.423000
     30 OAB         4.1110    2.7610    0.1460 oh        1 TDH     -0.491100
@<TRIPOS>BOND
     1    1    5 ar  
     2    1   10 ar  
     3    1   19 1   
     4    2    6 ar  
     5    2   10 ar  
     6    2   20 1   
     7    3    7 ar  
     8    3   11 ar  
     9    3   21 1   
    10    4    8 ar  
    11    4   11 ar  
    12    4   22 1   
    13    5   12 ar  
    14    5   23 1   
    15    6   12 ar  
    16    6   24 1   
    17    7   13 ar  
    18    7   25 1   
    19    8   13 ar  
    20    8   26 1   
    21    9   14 2   
    22    9   15 1   
    23    9   27 1   
    24   10   18 1   
    25   11   30 1   
    26   12   14 1   
    27   13   17 1   
    28   14   17 1   
    29   15   16 2   
    30   16   17 1   
    31   18   28 1   
    32   29   30 1   
@<TRIPOS>SUBSTRUCTURE
     1 TDH         1 TEMP              0 ****  ****    0 ROOT
