@<TRIPOS>MOLECULE
TDH
   30    24     1     0     0
SMALL
bcc


@<TRIPOS>ATOM
      1 CAC        -3.6170    1.1310   -0.9100 c1        1 TDH     -0.061000
      2 CAD        -3.5970    0.8260    1.4710 c1        1 TDH     -0.156500
      3 CAE         2.8840   -2.6510    0.3850 c1        1 TDH     -0.061000
      4 CAF         3.3220   -1.5110   -1.6820 c1        1 TDH     -0.156500
      5 CAG        -2.2310    1.1250   -0.9220 c1        1 TDH     -0.061000
      6 CAH        -2.2120    0.8200    1.4590 c1        1 TDH     -0.008500
      7 CAI         1.9430   -1.6890    0.7150 c1        1 TDH     -0.061000
      8 CAJ         2.3810   -0.5490   -1.3520 c1        1 TDH     -0.014500
      9 CAK         0.4230    2.5670    0.7640 c1        1 TDH      0.071500
     10 CAN        -4.3000    0.9810    0.2860 c1        1 TDH      0.118600
     11 CAO         3.5740   -2.5620   -0.8140 c1        1 TDH      0.118600
     12 CAP        -1.5280    0.9700    0.2630 cg        1 TDH     -0.102300
     13 CAQ         1.6910   -0.6380   -0.1530 c1        1 TDH      0.013000
     14 CAR        -0.0680    1.3330    0.4240 ce        1 TDH      0.084800
     15 NAL         1.7540    2.4770    0.8360 nf        1 TDH     -0.311400
     16 NAM         2.1040    1.1980    0.5430 nf        1 TDH      0.009000
     17 NAS         0.9680    0.4990    0.2900 ne        1 TDH     -0.254600
     18 OAA        -5.6580    0.6250    0.1940 oh        1 TDH     -0.475100
     19 OAB         4.3540   -3.6330   -1.2890 oh        1 TDH     -0.475100
     20 H1         -4.1110    1.2400   -1.7440 ha        1 TDH      0.096750
     21 H2         -4.0790    0.7210    2.3140 ha        1 TDH      0.083500
     22 H3          3.0610   -3.3910    0.9960 ha        1 TDH      0.096750
     23 H4          3.8080   -1.4490   -2.5270 ha        1 TDH      0.083500
     24 H5         -1.7490    1.2310   -1.7650 ha        1 TDH      0.096750
     25 H6         -1.7170    0.7110    2.2940 ha        1 TDH      0.086500
     26 H7          1.4570   -1.7520    1.5600 ha        1 TDH      0.096750
     27 H8          2.2030    0.1910   -1.9630 ha        1 TDH      0.101500
     28 H9         -0.1070    3.3710    0.9260 DU        1 TDH      0.195000
     29 H10        -6.1610    1.2930    0.4950 ho        1 TDH      0.423000
     30 H11         5.2090   -3.4860   -1.0940 ho        1 TDH      0.423000
@<TRIPOS>BOND
     1    1    5 3   
     2    1   20 1   
     3    2   10 3   
     4    2   21 1   
     5    3    7 3   
     6    3   22 1   
     7    4   11 3   
     8    4   23 1   
     9    5   24 1   
    10    6   12 3   
    11    6   25 1   
    12    7   26 1   
    13    8   13 3   
    14    8   27 1   
    15    9   14 2   
    16    9   15 2   
    17   10   18 1   
    18   11   19 1   
    19   12   14 1   
    20   14   17 1   
    21   15   16 1   
    22   16   17 2   
    23   18   29 1   
    24   19   30 1   
@<TRIPOS>SUBSTRUCTURE
     1 TDH         1 TEMP              0 ****  ****    0 ROOT
