@<TRIPOS>MOLECULE
TDH
   30    32     1     0     0
SMALL
bcc


@<TRIPOS>ATOM
      1 CAC        -0.1370   -0.5220    1.0030 c2        1 TDH     -0.245000
      2 CAD         2.1550   -2.4220    2.9680 c1        1 TDH      0.271000
      3 CAE         3.2240    3.0020   -3.0880 c2        1 TDH     -0.133000
      4 CAF         4.0510    0.8500   -3.3900 c1        1 TDH     -0.184000
      5 CAG         1.2760   -0.8890    0.9470 cx        1 TDH      0.027000
      6 CAH         1.9750   -1.4460    2.1430 cu        1 TDH     -0.561000
      7 CAI         2.8750    2.6610   -1.8370 c2        1 TDH     -0.168000
      8 CAJ         3.7270    0.5400   -2.2590 c1        1 TDH     -0.209000
      9 CAK         4.7170    0.6010    2.1100 c1        1 TDH      0.071000
     10 CAN        -0.9290   -0.7650    2.0620 c2        1 TDH      0.006000
     11 CAO         3.8670    2.0830   -4.1500 c3        1 TDH      0.192000
     12 CAP         2.3100   -0.0750    1.6790 cx        1 TDH      0.000000
     13 CAQ         3.0480    1.2620   -1.1870 c3        1 TDH      0.209000
     14 CAR         3.6630    0.1340    1.0680 c3        1 TDH     -0.158000
     15 NAL         5.1920    1.8030    1.5840 n2        1 TDH     -0.252000
     16 NAM         4.6550    2.1420    0.4780 n2        1 TDH      0.187000
     17 NAS         3.7240    1.2910    0.0970 n3        1 TDH     -0.261000
     18 OAA        -2.2450   -0.3750    1.9980 oh        1 TDH     -0.257000
     19 H1         -0.5350   -0.0330    0.1000 ha        1 TDH      0.151000
     20 H2         -0.5900   -1.2600    2.9860 h4        1 TDH      0.140000
     21 H3          3.0650    4.0250   -3.4650 ha        1 TDH      0.162000
     22 H4          3.1560    1.9350   -5.0130 h1        1 TDH      0.109000
     23 H5          1.5630   -1.3410   -0.0310 hc        1 TDH      0.136000
     24 H6          1.9720    0.7670    2.3190 hc        1 TDH      0.151000
     25 H7          2.4030    3.3910   -1.1610 ha        1 TDH      0.158000
     26 H8          2.0220    0.8210   -0.9860 h1        1 TDH      0.137000
     27 H9          4.0310   -0.7960    0.5480 h1        1 TDH      0.174000
     28 H10        -2.6710   -0.6570    2.8200 ho        1 TDH      0.221000
     29 H11         5.5120    2.0710   -5.1530 ho        1 TDH      0.224000
     30 OAB         5.0460    2.7110   -4.6000 oh        1 TDH     -0.300000
@<TRIPOS>BOND
     1    1    5 1   
     2    1   10 1   
     3    1   19 1   
     4    2    6 1   
     5    3    7 1   
     6    3   11 1   
     7    3   21 1   
     8    4    8 1   
     9    4   11 1   
    10    5    6 1   
    11    5   12 1   
    12    5   23 1   
    13    6   12 1   
    14    7   13 1   
    15    7   25 1   
    16    8   13 1   
    17    9   14 1   
    18    9   15 1   
    19   10   18 1   
    20   10   20 1   
    21   11   22 1   
    22   11   30 1   
    23   12   14 1   
    24   12   24 1   
    25   13   17 1   
    26   13   26 1   
    27   14   17 1   
    28   14   27 1   
    29   15   16 1   
    30   16   17 1   
    31   18   28 1   
    32   29   30 1   
@<TRIPOS>SUBSTRUCTURE
     1 TDH         1 TEMP              0 ****  ****    0 ROOT
