@<TRIPOS>MOLECULE
TDI
   39    41     1     0     0
SMALL
bcc


@<TRIPOS>ATOM
      1 C2          4.2400    1.4090    1.7720 ca        1 TDI      0.636900
      2 C4          2.7760    0.0170    0.7300 ca        1 TDI      0.452100
      3 C5          3.8810   -0.5220   -0.0510 ca        1 TDI     -0.324800
      4 C6          5.1950   -0.0040    0.1800 ca        1 TDI      0.649200
      5 CS5        -6.8810   -0.8450   -0.2000 c3        1 TDI     -0.043000
      6 S          -5.3730   -0.5880    0.6520 ss        1 TDI     -0.292200
      7 C5'        -4.3510    0.1020   -0.6210 c3        1 TDI     -0.005300
      8 C4'        -3.0280    0.4940   -0.0130 c3        1 TDI     -0.072700
      9 C1'        -2.1620   -0.7250    0.3710 c3        1 TDI      0.159800
     10 N1'        -0.8150   -0.5860   -0.1890 n3        1 TDI     -0.721600
     11 C9          1.5920   -0.6970    0.2840 cc        1 TDI     -0.262000
     12 C8          2.0060   -1.5890   -0.7080 cd        1 TDI     -0.066100
     13 N7          3.3890   -1.5200   -0.8910 na        1 TDI     -0.167400
     14 N6          6.2680   -0.4550   -0.6110 nh        1 TDI     -0.916500
     15 N1          5.3560    0.9750    1.1140 nb        1 TDI     -0.750000
     16 N3          2.9620    0.9930    1.6540 nb        1 TDI     -0.678000
     17 C2'        -0.8120    0.5620   -1.0940 c3        1 TDI      0.122800
     18 C3'        -2.1710    1.2990   -1.0110 c3        1 TDI      0.124100
     19 O3'        -2.0390    2.6100   -0.4890 oh        1 TDI     -0.594800
     20 H2          4.4270    2.2130    2.5160 h5        1 TDI      0.052100
     21 HS51       -6.7670   -1.5630   -1.0430 h1        1 TDI      0.062700
     22 HS52       -7.5920   -1.2720    0.5460 h1        1 TDI      0.062700
     23 HS53       -7.3010    0.1050   -0.5980 h1        1 TDI      0.062700
     24 H5'1       -4.2080   -0.6390   -1.4440 h1        1 TDI      0.062200
     25 H5'2       -4.8500    1.0040   -1.0560 h1        1 TDI      0.062200
     26 H4'        -3.2120    1.1300    0.8970 hc        1 TDI      0.095700
     27 H1'1       -2.1490   -0.8400    1.4890 h1        1 TDI      0.057200
     28 H1'2       -2.5970   -1.6660   -0.0660 h1        1 TDI      0.057200
     29 H101        0.1900    0.4250    1.4310 h1        1 TDI      0.056200
     30 H102        0.0370   -1.3870    1.5510 h1        1 TDI      0.056200
     31 H8          1.3980   -2.2890   -1.2870 h4        1 TDI      0.182000
     32 HN7         3.8770   -1.8830   -1.6670 hn        1 TDI      0.300700
     33 HN61        6.2850   -1.4480   -0.7030 hn        1 TDI      0.397300
     34 HN62        7.1580   -0.0780   -0.3580 hn        1 TDI      0.397300
     35 H2'1        0.0290    1.2740   -0.8720 h1        1 TDI      0.054700
     36 H2'2       -0.6680    0.1610   -2.1340 h1        1 TDI      0.054700
     37 H3'        -2.6510    1.3510   -2.0260 h1        1 TDI      0.041700
     38 H1         -1.4030    3.0730   -1.0470 ho        1 TDI      0.403000
     39 C10         0.2280   -0.5340    0.8340 c3        1 TDI      0.231000
@<TRIPOS>BOND
     1    1   15 ar  
     2    1   16 ar  
     3    1   20 1   
     4    2    3 ar  
     5    2   11 1   
     6    2   16 ar  
     7    3    4 ar  
     8    3   13 1   
     9    4   14 1   
    10    4   15 ar  
    11    5    6 1   
    12    5   21 1   
    13    5   22 1   
    14    5   23 1   
    15    6    7 1   
    16    7    8 1   
    17    7   24 1   
    18    7   25 1   
    19    8    9 1   
    20    8   18 1   
    21    8   26 1   
    22    9   10 1   
    23    9   27 1   
    24    9   28 1   
    25   10   17 1   
    26   10   39 1   
    27   11   12 2   
    28   11   39 1   
    29   12   13 1   
    30   12   31 1   
    31   13   32 1   
    32   14   33 1   
    33   14   34 1   
    34   17   18 1   
    35   17   35 1   
    36   17   36 1   
    37   18   19 1   
    38   18   37 1   
    39   19   38 1   
    40   29   39 1   
    41   30   39 1   
@<TRIPOS>SUBSTRUCTURE
     1 TDI         1 TEMP              0 ****  ****    0 ROOT
