@<TRIPOS>MOLECULE
TDI
   39    41     1     0     0
SMALL
bcc


@<TRIPOS>ATOM
      1 C2         -0.1840   -1.1200   -0.6840 c1        1 TDI      0.478800
      2 C4         -0.5980    0.6520    2.5420 cx        1 TDI      0.160400
      3 C5          0.3740   -0.5090    2.6880 ce        1 TDI     -0.030600
      4 C6          0.7200   -1.4150    1.7100 cf        1 TDI      0.772700
      5 CS5        -5.6880   -5.1490    4.7600 c3        1 TDI     -0.050000
      6 S          -5.9850   -3.4830    5.2240 ss        1 TDI     -0.227200
      7 C5'        -4.5270   -2.6910    4.7330 cx        1 TDI     -0.112600
      8 C4'        -4.4530   -1.2030    4.9820 cx        1 TDI     -0.154700
      9 C1'        -3.0600   -0.6240    5.1630 c3        1 TDI      0.185800
     10 N1'        -2.3290   -0.7300    3.8830 n3        1 TDI     -0.700600
     11 C9         -0.6570    1.2300    3.9920 cx        1 TDI     -0.210000
     12 C8          0.3090    0.3650    4.7400 c2        1 TDI      0.435200
     13 N7          0.8750   -0.5720    4.0260 ne        1 TDI     -0.540300
     14 N6          1.4790   -2.5720    1.9670 nv        1 TDI     -0.814600
     15 N1          0.2410   -1.2460    0.4130 n1        1 TDI     -1.128500
     16 N3         -0.5960    1.4810    1.3920 n8        1 TDI     -0.882800
     17 C2'        -3.1630   -1.4510    2.9070 c3        1 TDI      0.191800
     18 C3'        -4.5170   -1.7340    3.5570 cx        1 TDI      0.101800
     19 O3'        -5.5810   -1.5740    2.6930 oh        1 TDI     -0.541800
     20 H2          0.3330    1.6190    1.0480 hn        1 TDI      0.370300
     21 HS51       -4.7130   -5.5200    5.1490 h1        1 TDI      0.068367
     22 HS52       -6.5140   -5.7450    5.2120 h1        1 TDI      0.068367
     23 HS53       -5.7030   -5.2850    3.6560 h1        1 TDI      0.068367
     24 H5'1       -2.3470   -5.3010    5.1480 ha        1 TDI      0.001000
     25 H5'2       -2.4180   -5.1580    5.8060 ha        1 TDI      0.001000
     26 H4'        -3.6140   -3.2980    4.8960 h1        1 TDI      0.111700
     27 H1'1       -5.2760   -0.6860    5.4950 hc        1 TDI      0.108700
     28 H1'2       -3.1300    0.4380    5.5230 h1        1 TDI      0.058700
     29 H101       -2.4770   -1.2190    5.9180 h1        1 TDI      0.058700
     30 H102       -2.6990    1.2420    3.0970 h1        1 TDI      0.079700
     31 H8         -0.6970    2.2990    4.2350 hc        1 TDI      0.111700
     32 HN7         0.5430    0.5170    5.8010 h4        1 TDI      0.040800
     33 HN61        2.1110   -2.8410    1.2450 hn        1 TDI      0.411300
     34 HN62        1.8860   -2.5900    2.8780 hn        1 TDI      0.411300
     35 H2'1       -1.1840    1.1080    0.6730 hn        1 TDI      0.370300
     36 H2'2       -2.6400   -2.4180    2.6750 h1        1 TDI      0.070700
     37 H3'        -3.3150   -0.8790    1.9510 h1        1 TDI      0.070700
     38 H1         -6.3450   -2.0190    3.1010 ho        1 TDI      0.425000
     39 C10        -1.8750    0.5450    3.3960 cx        1 TDI      0.161500
@<TRIPOS>BOND
     1    1   15 3   
     2    2    3 1   
     3    2   11 1   
     4    2   16 1   
     5    2   39 1   
     6    3    4 2   
     7    3   13 1   
     8    4   14 1   
     9    4   15 1   
    10    5    6 1   
    11    5   21 1   
    12    5   22 1   
    13    5   23 1   
    14    6    7 1   
    15    7    8 1   
    16    7   18 1   
    17    7   26 1   
    18    8    9 1   
    19    8   18 1   
    20    8   27 1   
    21    9   10 1   
    22    9   28 1   
    23    9   29 1   
    24   10   17 1   
    25   10   39 1   
    26   11   12 1   
    27   11   31 1   
    28   11   39 1   
    29   12   13 2   
    30   12   32 1   
    31   14   33 1   
    32   14   34 1   
    33   16   20 1   
    34   16   35 1   
    35   17   18 1   
    36   17   36 1   
    37   17   37 1   
    38   18   19 1   
    39   19   38 1   
    40   24   25 1   
    41   30   39 1   
@<TRIPOS>SUBSTRUCTURE
     1 TDI         1 TEMP              0 ****  ****    0 ROOT
