@<TRIPOS>MOLECULE
TDI
   40    39     1     0     0
SMALL
bcc


@<TRIPOS>ATOM
      1 C2         -0.8450    1.0360   -1.0830 c1        1 TDI      0.114000
      2 C4         -0.5440    0.3230    2.6520 c2        1 TDI      0.065000
      3 C5          0.8260    0.3210    1.9490 c2        1 TDI      0.070000
      4 C6          1.0300    0.5840    0.5860 c2        1 TDI     -0.281000
      5 CS5        -7.3260   -3.8460    5.7830 c3        1 TDI     -0.596000
      6 S          -6.3900   -3.2760    4.4630 ss        1 TDI      1.029000
      7 C5'        -5.2410   -2.4430    5.0460 c2        1 TDI     -0.418000
      8 C4'        -4.1840   -1.8590    4.1820 c3        1 TDI     -0.070000
      9 C1'        -3.4970   -0.6130    4.8330 c3        1 TDI     -0.048000
     10 N1'        -2.1340   -1.0310    5.1960 n3        1 TDI     -0.235000
     11 C9         -0.1610   -0.0020    4.0590 c2        1 TDI     -0.326000
     12 C8          1.2110   -0.1520    4.0780 c2        1 TDI      0.024000
     13 N7          1.8180    0.0340    2.8300 n2        1 TDI     -0.315000
     14 N6          2.4260    0.5860    0.1170 n4        1 TDI      0.042000
     15 N1          0.0470    0.8310   -0.3310 n2        1 TDI     -0.262000
     16 N3         -1.7280    0.5330    2.2310 n2        1 TDI     -0.235000
     17 C2'        -1.9040   -2.3030    4.6680 c2        1 TDI      0.037000
     18 C3'        -3.0330   -2.8460    4.1130 c2        1 TDI     -0.190000
     19 O3'        -3.2540   -4.1160    3.6640 oh        1 TDI     -0.260000
     20 H2         -1.8500    0.7550    1.2670 hn        1 TDI      0.164000
     21 HS51       -7.8720   -4.7650    5.4360 h1        1 TDI      0.170667
     22 HS52       -8.1030   -3.1060    6.1050 h1        1 TDI      0.170667
     23 HS53       -6.7490   -4.1340    6.6960 h1        1 TDI      0.170667
     24 H5'1       -5.9970   -3.9940    2.2680 ha        1 TDI      0.008000
     25 H5'2       -5.3450   -4.0480    2.4620 ha        1 TDI      0.008000
     26 H4'        -5.0460   -2.2590    6.1260 h4        1 TDI      0.209000
     27 H1'1       -4.5730   -1.6140    3.1590 hc        1 TDI      0.135000
     28 H1'2       -4.0250   -0.2950    5.7710 h1        1 TDI      0.117500
     29 H101       -3.5000    0.2430    4.1060 h1        1 TDI      0.117500
     30 H102       -1.5790    0.9800    5.3110 h1        1 TDI      0.105500
     31 H8         -0.4840   -0.2240    6.1490 h1        1 TDI      0.105500
     32 HN7         1.8470   -0.3850    4.9390 h4        1 TDI      0.169000
     33 HN61        2.8290   -0.3410    0.2860 hn        1 TDI      0.239000
     34 HN62        2.9500    1.2730    0.6690 hn        1 TDI      0.239000
     35 H2'1       -0.7740   -5.3090    3.2660 ha        1 TDI      0.008000
     36 H2'2       -0.7440   -4.7120    3.5850 ha        1 TDI      0.008000
     37 H3'        -0.9070   -2.7600    4.7370 h4        1 TDI      0.191000
     38 H1         -2.7770   -4.2000    2.8190 ho        1 TDI      0.227000
     39 C10        -1.0820   -0.0310    5.2080 c3        1 TDI      0.052000
     40 H63         2.4970    0.8160   -0.8740 hn        1 TDI      0.239000
@<TRIPOS>BOND
     1    1   15 1   
     2    2    3 1   
     3    2   11 1   
     4    2   16 1   
     5    3    4 1   
     6    3   13 1   
     7    4   14 1   
     8    4   15 1   
     9    5    6 1   
    10    5   21 1   
    11    5   22 1   
    12    5   23 1   
    13    6    7 1   
    14    7    8 1   
    15    7   26 1   
    16    8    9 1   
    17    8   18 1   
    18    8   27 1   
    19    9   10 1   
    20    9   28 1   
    21    9   29 1   
    22   10   17 1   
    23   10   39 1   
    24   11   12 1   
    25   11   39 1   
    26   12   13 1   
    27   12   32 1   
    28   14   33 1   
    29   14   34 1   
    30   14   40 1   
    31   16   20 1   
    32   17   18 1   
    33   17   37 1   
    34   18   19 1   
    35   19   38 1   
    36   24   25 1   
    37   30   39 1   
    38   31   39 1   
    39   35   36 1   
@<TRIPOS>SUBSTRUCTURE
     1 TDI         1 TEMP              0 ****  ****    0 ROOT
