@<TRIPOS>MOLECULE
TDM
   48    49     1     0     0
SMALL
bcc


@<TRIPOS>ATOM
      1 O1A         0.0000    0.0000    0.0000 o         1 TDM     -0.637500
      2 PA          1.4800    0.0000    0.0000 p5        1 TDM      0.894800
      3 O2A         2.0160    0.0000    1.5190 o         1 TDM     -0.637500
      4 O3A         2.0160    1.3150   -0.7580 os        1 TDM     -0.457800
      5 PB          1.1440    2.5540   -0.2150 p5        1 TDM      0.784900
      6 O2B         1.7130    3.0270    1.2140 o         1 TDM     -0.619833
      7 O3B         1.2370    3.7750   -1.2600 o         1 TDM     -0.619833
      8 O1B        -0.2690    2.1370   -0.0690 o         1 TDM     -0.619833
      9 O7          2.0180   -1.3140   -0.7590 os        1 TDM     -0.484200
     10 C7          1.4160   -2.4390   -0.1140 c3        1 TDM      0.240400
     11 C6          1.8880   -3.7270   -0.7910 c3        1 TDM      0.065800
     12 C5          1.2530   -4.9120   -0.1120 cc        1 TDM     -0.011600
     13 S1          1.7960   -5.7860    1.3470 ss        1 TDM     -0.380200
     14 C2          0.4850   -6.9980    1.4150 cc        1 TDM      0.141600
     15 C27         0.2870   -7.9830    2.2930 c2        1 TDM     -0.128100
     16 C29         1.3380   -8.2900    3.3300 c3        1 TDM      0.079100
     17 O28        -0.8660   -8.7130    2.2540 oh        1 TDM     -0.467100
     18 N3         -0.2770   -6.6400    0.2940 na        1 TDM     -0.115200
     19 C4          0.1470   -5.5700   -0.4480 cd        1 TDM     -0.076200
     20 CM4        -0.6400   -5.1420   -1.6600 c3        1 TDM      0.045100
     21 C7'        -1.4920   -7.3760   -0.0630 c3        1 TDM      0.223100
     22 C5'        -1.2670   -8.1200   -1.3540 ca        1 TDM     -0.517900
     23 C4'        -0.3200   -9.1430   -1.4350 ca        1 TDM      0.485200
     24 N4'         0.4310   -9.4960   -0.3250 nv        1 TDM     -0.654500
     25 N3'        -0.1560   -9.7780   -2.5910 nb        1 TDM     -0.636000
     26 C2'        -0.8690   -9.4440   -3.6490 ca        1 TDM      0.392300
     27 CM2        -0.6500  -10.1850   -4.9430 c3        1 TDM      0.012600
     28 N1'        -1.7670   -8.4810   -3.6050 nb        1 TDM     -0.659000
     29 C6'        -1.9910   -7.8050   -2.4880 ca        1 TDM      0.420200
     30 H71         0.3380   -2.3650   -0.1900 h1        1 TDM      0.010200
     31 H72         1.7040   -2.4530    0.9300 h1        1 TDM      0.010200
     32 H61         2.9660   -3.8020   -0.7140 hc        1 TDM      0.010200
     33 H62         1.6000   -3.7130   -1.8360 hc        1 TDM      0.010200
     34 H291        2.3180   -8.2650    2.8690 hc        1 TDM     -0.005633
     35 H292        1.2910   -7.5520    4.1210 hc        1 TDM     -0.005633
     36 H293        1.1590   -9.2750    3.7440 hc        1 TDM     -0.005633
     37 H28        -1.2080   -8.8080    3.1270 ho        1 TDM      0.359000
     38 HM41       -0.4350   -4.1000   -1.8740 hc        1 TDM      0.022367
     39 HM42       -0.3530   -5.7480   -2.5100 hc        1 TDM      0.022367
     40 HM43       -1.6980   -5.2690   -1.4660 hc        1 TDM      0.022367
     41 H7'1       -2.3130   -6.6800   -0.1850 h1        1 TDM      0.030200
     42 H7'2       -1.7310   -8.0820    0.7240 h1        1 TDM      0.030200
     43 H4'1        1.3760   -9.1780   -0.2400 hn        1 TDM      0.262800
     44 H4'2        0.0540  -10.1290    0.3520 hn        1 TDM      0.262800
     45 HM21       -0.9260  -11.2240   -4.8150 hc        1 TDM     -0.019300
     46 HM22        0.3950  -10.1200   -5.2230 hc        1 TDM     -0.019300
     47 HM23       -1.2600   -9.7420   -5.7200 hc        1 TDM     -0.019300
     48 H6'        -2.8430   -7.1400   -2.4190 h4        1 TDM     -0.041900
@<TRIPOS>BOND
     1    1    2 1   
     2    2    3 1   
     3    2    4 1   
     4    2    9 1   
     5    4    5 1   
     6    5    6 1   
     7    5    7 1   
     8    5    8 1   
     9    9   10 1   
    10   10   11 1   
    11   10   30 1   
    12   10   31 1   
    13   11   12 1   
    14   11   32 1   
    15   11   33 1   
    16   12   13 1   
    17   12   19 2   
    18   13   14 1   
    19   14   15 2   
    20   14   18 1   
    21   15   16 1   
    22   15   17 1   
    23   16   34 1   
    24   16   35 1   
    25   16   36 1   
    26   17   37 1   
    27   18   19 1   
    28   18   21 1   
    29   19   20 1   
    30   20   38 1   
    31   20   39 1   
    32   20   40 1   
    33   21   22 1   
    34   21   41 1   
    35   21   42 1   
    36   22   23 ar  
    37   22   29 ar  
    38   23   24 1   
    39   23   25 ar  
    40   24   43 1   
    41   24   44 1   
    42   25   26 ar  
    43   26   27 1   
    44   26   28 ar  
    45   27   45 1   
    46   27   46 1   
    47   27   47 1   
    48   28   29 ar  
    49   29   48 1   
@<TRIPOS>SUBSTRUCTURE
     1 TDM         1 TEMP              0 ****  ****    0 ROOT
