@<TRIPOS>MOLECULE
TDP
   42    43     1     0     0
SMALL
bcc


@<TRIPOS>ATOM
      1 N1'         0.0000    0.0000    0.0000 nb        1 TDP     -0.748000
      2 C2'         1.3890    0.0000    0.0000 ca        1 TDP      0.658300
      3 C2A         2.1700    0.0020   -1.2830 c3        1 TDP     -0.027400
      4 N3'         2.0770    0.0000    1.1360 nb        1 TDP     -0.759000
      5 C4'         1.4120    0.0020    2.3590 ca        1 TDP      0.551200
      6 N4'         2.1900    0.0000    3.4380 nv        1 TDP     -0.429500
      7 C5'        -0.0290    0.0050    2.4120 ca        1 TDP     -0.442900
      8 C6'        -0.6600    0.0030    1.2060 ca        1 TDP      0.504200
      9 C35        -0.7990    0.0020    3.7280 c3        1 TDP      0.064600
     10 N3         -0.6560   -1.3680    4.4120 na        1 TDP      0.454900
     11 C2          0.2550   -1.5110    5.3660 cc        1 TDP     -0.602400
     12 S1          0.3580   -3.0300    6.0390 ss        1 TDP     -0.166800
     13 C5         -0.8960   -3.5850    5.0100 cc        1 TDP     -0.016400
     14 C4         -1.3450   -2.5610    4.1840 cd        1 TDP     -0.252600
     15 C4A        -2.4230   -2.7190    3.1740 c3        1 TDP      0.097200
     16 C5A        -1.3200   -5.0040    5.1080 c3        1 TDP      0.013900
     17 C5B        -0.4760   -5.9640    4.3000 c3        1 TDP      0.366400
     18 O5G        -0.6610   -7.2760    4.7210 os        1 TDP     -0.529200
     19 P1          0.1420   -8.6300    4.5390 p5        1 TDP      1.070800
     20 O11         1.0790   -8.5660    5.7760 os        1 TDP     -0.498800
     21 O12        -0.7470   -9.7780    4.6040 o         1 TDP     -0.707000
     22 O13         1.0040   -8.4500    3.3440 o         1 TDP     -0.707000
     23 P2          0.8310   -8.6350    7.3610 p5        1 TDP      0.934900
     24 O21         2.1130   -9.2370    7.9510 o         1 TDP     -0.510833
     25 O22         0.3040   -7.3360    7.7570 o         1 TDP     -0.510833
     26 O23        -0.2560   -9.6840    7.4590 o         1 TDP     -0.510833
     27 H2A1        3.0800   -0.5700   -1.1520 hc        1 TDP      0.011700
     28 H2A2        1.5730   -0.4440   -2.0690 hc        1 TDP      0.011700
     29 H2A3        2.4190    1.0210   -1.5520 hc        1 TDP      0.011700
     30 H4'1        3.1110   -0.3890    3.3900 hn        1 TDP      0.275300
     31 H4'2        1.8830    0.4530    4.2760 hn        1 TDP      0.275300
     32 H6'        -1.7440    0.0040    1.1960 h4        1 TDP     -0.032900
     33 H351       -1.8460    0.1990    3.5330 h1        1 TDP      0.017200
     34 H352       -0.4030    0.7720    4.3780 h1        1 TDP      0.017200
     35 H2          0.8890   -0.6930    5.6850 h5        1 TDP      0.149000
     36 H4A1       -2.9150   -1.7670    3.0200 hc        1 TDP      0.003367
     37 H4A2       -3.1440   -3.4460    3.5270 hc        1 TDP      0.003367
     38 H4A3       -1.9950   -3.0600    2.2390 hc        1 TDP      0.003367
     39 H5A1       -2.3460   -5.0810    4.7700 hc        1 TDP      0.027700
     40 H5A2       -1.2770   -5.3030    6.1490 hc        1 TDP      0.027700
     41 H5B1        0.5680   -5.6990    4.4120 h1        1 TDP     -0.048300
     42 H5B2       -0.7520   -5.8850    3.2550 h1        1 TDP     -0.048300
@<TRIPOS>BOND
     1    1    2 ar  
     2    1    8 ar  
     3    2    3 1   
     4    2    4 ar  
     5    3   27 1   
     6    3   28 1   
     7    3   29 1   
     8    4    5 ar  
     9    5    6 1   
    10    5    7 ar  
    11    6   30 1   
    12    6   31 1   
    13    7    8 ar  
    14    7    9 1   
    15    8   32 1   
    16    9   10 1   
    17    9   33 1   
    18    9   34 1   
    19   10   11 2   
    20   10   14 1   
    21   11   12 1   
    22   11   35 1   
    23   12   13 1   
    24   13   14 2   
    25   13   16 1   
    26   14   15 1   
    27   15   36 1   
    28   15   37 1   
    29   15   38 1   
    30   16   17 1   
    31   16   39 1   
    32   16   40 1   
    33   17   18 1   
    34   17   41 1   
    35   17   42 1   
    36   18   19 1   
    37   19   20 1   
    38   19   21 1   
    39   19   22 1   
    40   20   23 1   
    41   23   24 1   
    42   23   25 1   
    43   23   26 1   
@<TRIPOS>SUBSTRUCTURE
     1 TDP         1 TEMP              0 ****  ****    0 ROOT
