@<TRIPOS>MOLECULE
TDR
   15    15     1     0     0
SMALL
bcc


@<TRIPOS>ATOM
      1 N1         -1.2780   -0.1410   -1.1110 n         1 TDR     -0.471100
      2 C2          0.0430    0.0040   -1.5880 c         1 TDR      0.802500
      3 O2          0.2690    0.0050   -2.8170 o         1 TDR     -0.638500
      4 N3          1.0720    0.1430   -0.6470 n         1 TDR     -0.584500
      5 C4          0.8410    0.1440    0.7420 c         1 TDR      0.716700
      6 O4          1.8120    0.2720    1.5050 o         1 TDR     -0.606500
      7 C5         -0.5620   -0.0090    1.1760 cc        1 TDR     -0.253400
      8 CM5        -0.8210   -0.0070    2.6280 c3        1 TDR     -0.030900
      9 C6         -1.5460   -0.1440    0.2420 cd        1 TDR      0.037600
     10 HN1        -2.0020   -0.2400   -1.7860 hn        1 TDR      0.354500
     11 HN3         2.0010    0.2440   -0.9960 hn        1 TDR      0.354500
     12 H5M1       -0.2240   -0.8140    3.1230 hc        1 TDR      0.052367
     13 H5M2       -0.5050    0.9710    3.0710 hc        1 TDR      0.052367
     14 H5M3       -1.9040   -0.1710    2.8480 hc        1 TDR      0.052367
     15 H6         -2.6110   -0.2630    0.5190 h4        1 TDR      0.163000
@<TRIPOS>BOND
     1    1    2 1   
     2    1    9 1   
     3    1   10 1   
     4    2    3 2   
     5    2    4 1   
     6    4    5 1   
     7    4   11 1   
     8    5    6 2   
     9    5    7 1   
    10    7    8 1   
    11    7    9 2   
    12    8   12 1   
    13    8   13 1   
    14    8   14 1   
    15    9   15 1   
@<TRIPOS>SUBSTRUCTURE
     1 TDR         1 TEMP              0 ****  ****    0 ROOT
