@<TRIPOS>MOLECULE
TDR
   15    15     1     0     0
SMALL
bcc


@<TRIPOS>ATOM
      1 N1         -0.0350   -0.0010   -0.0310 n         1 TDR     -0.471100
      2 C2          1.3770    0.0000   -0.0570 c         1 TDR      0.802500
      3 O2          1.9830   -0.0000   -1.1500 o         1 TDR     -0.638500
      4 N3          2.0590    0.0020    1.1670 n         1 TDR     -0.584500
      5 C4          1.3970    0.0020    2.4090 c         1 TDR      0.716700
      6 O4          2.0810    0.0030    3.4460 o         1 TDR     -0.606500
      7 C5         -0.0790    0.0010    2.3690 cc        1 TDR     -0.253400
      8 CM5        -0.7870    0.0030    3.6630 c3        1 TDR     -0.030900
      9 C6         -0.7210   -0.0010    1.1670 cd        1 TDR      0.037600
     10 HN1        -0.5110   -0.0030   -0.9040 hn        1 TDR      0.354500
     11 HN3         3.0560    0.0030    1.1360 hn        1 TDR      0.354500
     12 H5M1       -0.5090    0.9150    4.2500 hc        1 TDR      0.052033
     13 H5M2       -0.4870   -0.8930    4.2630 hc        1 TDR      0.052033
     14 H5M3       -1.8950   -0.0120    3.5200 hc        1 TDR      0.052033
     15 H6         -1.8250   -0.0020    1.0860 h4        1 TDR      0.163000
@<TRIPOS>BOND
     1    1    2 1   
     2    1    9 1   
     3    1   10 1   
     4    2    3 2   
     5    2    4 1   
     6    4    5 1   
     7    4   11 1   
     8    5    6 2   
     9    5    7 1   
    10    7    8 1   
    11    7    9 2   
    12    8   12 1   
    13    8   13 1   
    14    8   14 1   
    15    9   15 1   
@<TRIPOS>SUBSTRUCTURE
     1 TDR         1 TEMP              0 ****  ****    0 ROOT
