@<TRIPOS>MOLECULE
TDS
   68    69     1     0     0
SMALL
bcc


@<TRIPOS>ATOM
      1 CBC         0.0110   -0.2170    0.0070 c3        1 TDS     -0.092100
      2 CBB         1.5140   -0.1110    0.0300 c3        1 TDS     -0.080400
      3 CBA         2.0520   -0.1560    1.4450 c3        1 TDS     -0.079400
      4 CAZ         3.5620   -0.0500    1.4640 c3        1 TDS     -0.079400
      5 CAY         4.0980   -0.0950    2.8780 c3        1 TDS     -0.079400
      6 CAX         5.6080    0.0120    2.8970 c3        1 TDS     -0.079400
      7 CAW         6.1440   -0.0330    4.3120 c3        1 TDS     -0.079400
      8 CAV         7.6540    0.0740    4.3300 c3        1 TDS     -0.079400
      9 CAU         8.1900    0.0290    5.7450 c3        1 TDS     -0.079400
     10 CAT         9.7000    0.1360    5.7640 c3        1 TDS     -0.079400
     11 CAS        10.2360    0.0910    7.1790 c3        1 TDS     -0.079400
     12 CAR        11.7450    0.1980    7.1940 c3        1 TDS     -0.077400
     13 CAQ        12.2730    0.1570    8.6150 c3        1 TDS     -0.042200
     14 CAP        13.7620    0.2610    8.6450 cc        1 TDS      0.118900
     15 OAO        14.3190   -1.0060    8.6040 os        1 TDS     -0.196200
     16 CAH        14.4830    1.4060    8.7150 cd        1 TDS     -0.258400
     17 CAI        13.8260    2.7310    8.7700 c3        1 TDS     -0.041900
     18 CAG        15.9570    1.3750    8.7480 c         1 TDS      0.599900
     19 OAC        16.6400    2.4060    8.8120 o         1 TDS     -0.528100
     20 CAF        16.5390    0.0260    8.6960 ca        1 TDS     -0.244600
     21 CAN        15.6970   -1.0950    8.6250 ca        1 TDS      0.172100
     22 CAM        16.2130   -2.4070    8.5720 ca        1 TDS      0.038100
     23 OBD        15.3120   -3.4450    8.4920 oh        1 TDS     -0.476100
     24 CAL        17.6090   -2.5820    8.5920 ca        1 TDS      0.128100
     25 OAK        18.0210   -3.9000    8.5340 os        1 TDS     -0.340900
     26 CAJ        19.4240   -4.1290    8.6070 c3        1 TDS      0.120700
     27 CAD        18.4740   -1.4840    8.6640 ca        1 TDS     -0.286000
     28 CAE        17.9390   -0.1930    8.7140 ca        1 TDS      0.208100
     29 OAB        18.7080    0.9430    8.7840 os        1 TDS     -0.279900
     30 CAA        20.1200    0.7610    8.7990 c3        1 TDS      0.106700
     31 HBC1       -0.3650   -0.1820   -1.0440 hc        1 TDS      0.032700
     32 HBC2       -0.4530    0.6260    0.5750 hc        1 TDS      0.032700
     33 HBC3       -0.3250   -1.1760    0.4690 hc        1 TDS      0.032700
     34 HBB1        1.9600   -0.9510   -0.5660 hc        1 TDS      0.038700
     35 HBB2        1.8320    0.8470   -0.4600 hc        1 TDS      0.038700
     36 HBA1        1.7360   -1.1140    1.9370 hc        1 TDS      0.039700
     37 HBA2        1.6080    0.6840    2.0420 hc        1 TDS      0.039700
     38 HAZ1        3.8770    0.9080    0.9720 hc        1 TDS      0.039700
     39 HAZ2        4.0050   -0.8890    0.8660 hc        1 TDS      0.039700
     40 HAY1        3.6540    0.7450    3.4760 hc        1 TDS      0.039700
     41 HAY2        3.7830   -1.0520    3.3700 hc        1 TDS      0.039700
     42 HAX1        6.0520   -0.8280    2.3000 hc        1 TDS      0.039700
     43 HAX2        5.9230    0.9700    2.4050 hc        1 TDS      0.039700
     44 HAW1        5.7000    0.8060    4.9090 hc        1 TDS      0.039700
     45 HAW2        5.8290   -0.9910    4.8030 hc        1 TDS      0.039700
     46 HAV1        7.9700    1.0310    3.8390 hc        1 TDS      0.040200
     47 HAV2        8.0980   -0.7660    3.7330 hc        1 TDS      0.040200
     48 HAU1        7.7460    0.8680    6.3430 hc        1 TDS      0.040200
     49 HAU2        7.8750   -0.9290    6.2370 hc        1 TDS      0.040200
     50 HAT1       10.1440   -0.7050    5.1670 hc        1 TDS      0.041700
     51 HAT2       10.0160    1.0930    5.2720 hc        1 TDS      0.041700
     52 HAS1        9.9210   -0.8670    7.6700 hc        1 TDS      0.041200
     53 HAS2        9.7920    0.9310    7.7760 hc        1 TDS      0.041200
     54 HAR1       12.1920   -0.6480    6.6070 hc        1 TDS      0.052200
     55 HAR2       12.0630    1.1540    6.6990 hc        1 TDS      0.052200
     56 HAQ1       11.8460    1.0080    9.2110 hc        1 TDS      0.070700
     57 HAQ2       11.9590   -0.8040    9.1050 hc        1 TDS      0.070700
     58 HAI1       13.3000    2.8640    9.7490 hc        1 TDS      0.050367
     59 HAI2       14.5830    3.5490    8.6630 hc        1 TDS      0.050367
     60 HAI3       13.0720    2.8330    7.9500 hc        1 TDS      0.050367
     61 HBD        15.8160   -4.2720    8.5340 ho        1 TDS      0.432000
     62 HAJ1       19.8380   -3.7350    9.5670 h1        1 TDS      0.049367
     63 HAJ2       19.9420   -3.6650    7.7330 h1        1 TDS      0.049367
     64 HAJ3       19.5040   -5.2450    8.5690 h1        1 TDS      0.049367
     65 HAD        19.5600   -1.6410    8.6790 ha        1 TDS      0.150000
     66 HAA1       20.4660    0.2630    7.8610 h1        1 TDS      0.047700
     67 HAA2       20.4350    0.1760    9.6970 h1        1 TDS      0.047700
     68 HAA3       20.5080    1.8110    8.8550 h1        1 TDS      0.047700
@<TRIPOS>BOND
     1    1    2 1   
     2    1   31 1   
     3    1   32 1   
     4    1   33 1   
     5    2    3 1   
     6    2   34 1   
     7    2   35 1   
     8    3    4 1   
     9    3   36 1   
    10    3   37 1   
    11    4    5 1   
    12    4   38 1   
    13    4   39 1   
    14    5    6 1   
    15    5   40 1   
    16    5   41 1   
    17    6    7 1   
    18    6   42 1   
    19    6   43 1   
    20    7    8 1   
    21    7   44 1   
    22    7   45 1   
    23    8    9 1   
    24    8   46 1   
    25    8   47 1   
    26    9   10 1   
    27    9   48 1   
    28    9   49 1   
    29   10   11 1   
    30   10   50 1   
    31   10   51 1   
    32   11   12 1   
    33   11   52 1   
    34   11   53 1   
    35   12   13 1   
    36   12   54 1   
    37   12   55 1   
    38   13   14 1   
    39   13   56 1   
    40   13   57 1   
    41   14   15 1   
    42   14   16 2   
    43   15   21 1   
    44   16   17 1   
    45   16   18 1   
    46   17   58 1   
    47   17   59 1   
    48   17   60 1   
    49   18   19 2   
    50   18   20 1   
    51   20   21 ar  
    52   20   28 ar  
    53   21   22 ar  
    54   22   23 1   
    55   22   24 ar  
    56   23   61 1   
    57   24   25 1   
    58   24   27 ar  
    59   25   26 1   
    60   26   62 1   
    61   26   63 1   
    62   26   64 1   
    63   27   28 ar  
    64   27   65 1   
    65   28   29 1   
    66   29   30 1   
    67   30   66 1   
    68   30   67 1   
    69   30   68 1   
@<TRIPOS>SUBSTRUCTURE
     1 TDS         1 TEMP              0 ****  ****    0 ROOT
