@<TRIPOS>MOLECULE
TDS
   68    69     1     0     0
SMALL
bcc


@<TRIPOS>ATOM
      1 CBC        -0.8630    0.5530   13.8000 c3        1 TDS     -0.092100
      2 CBB        -0.8120    1.2040   12.4420 c3        1 TDS     -0.080400
      3 CBA        -0.5520    0.1910   11.3480 c3        1 TDS     -0.079400
      4 CAZ        -0.5030    0.8490    9.9860 c3        1 TDS     -0.079400
      5 CAY        -0.2430   -0.1650    8.8940 c3        1 TDS     -0.079400
      6 CAX        -0.1930    0.4940    7.5320 c3        1 TDS     -0.079400
      7 CAW         0.0670   -0.5210    6.4390 c3        1 TDS     -0.079400
      8 CAV         0.1160    0.1380    5.0780 c3        1 TDS     -0.079400
      9 CAU         0.3760   -0.8770    3.9850 c3        1 TDS     -0.079400
     10 CAT         0.4250   -0.2170    2.6240 c3        1 TDS     -0.079400
     11 CAS         0.6850   -1.2330    1.5320 c3        1 TDS     -0.079400
     12 CAR         0.7330   -0.5700    0.1720 c3        1 TDS     -0.077400
     13 CAQ         0.9990   -1.5930   -0.9160 c3        1 TDS     -0.042200
     14 CAP         1.0470   -0.9530   -2.2640 cc        1 TDS      0.118900
     15 OAO        -0.2170   -0.9610   -2.8300 os        1 TDS     -0.196200
     16 CAH         2.1470   -0.4470   -2.8710 cd        1 TDS     -0.258400
     17 CAI         3.4750   -0.4830   -2.2160 c3        1 TDS     -0.041900
     18 CAG         2.0660    0.1540   -4.2140 c         1 TDS      0.599900
     19 OAC         3.0560    0.6230   -4.7910 o         1 TDS     -0.528100
     20 CAF         0.7190    0.1490   -4.8030 ca        1 TDS     -0.244600
     21 CAN        -0.3530   -0.4040   -4.0860 ca        1 TDS      0.172100
     22 CAM        -1.6630   -0.4280   -4.6120 ca        1 TDS      0.038100
     23 OBD        -2.6540   -0.9790   -3.8330 oh        1 TDS     -0.476100
     24 CAL        -1.8840    0.1190   -5.8890 ca        1 TDS      0.128100
     25 OAK        -3.1950    0.0520   -6.3200 os        1 TDS     -0.340900
     26 CAJ        -3.4580    0.5460   -7.6300 c3        1 TDS      0.120700
     27 CAD        -0.8350    0.6750   -6.6290 ca        1 TDS     -0.286000
     28 CAE         0.4540    0.6890   -6.0860 ca        1 TDS      0.208100
     29 OAB         1.5450    1.2140   -6.7360 os        1 TDS     -0.279900
     30 CAA         1.3150    1.7700   -8.0270 c3        1 TDS      0.106700
     31 HBC1       -1.0550    1.3170   14.5900 hc        1 TDS      0.032700
     32 HBC2       -1.6770   -0.2100   13.8410 hc        1 TDS      0.032700
     33 HBC3        0.1050    0.0440   14.0290 hc        1 TDS      0.032700
     34 HBB1       -1.7820    1.7310   12.2400 hc        1 TDS      0.038700
     35 HBB2       -0.0050    1.9840   12.4280 hc        1 TDS      0.038700
     36 HBA1        0.4180   -0.3360   11.5470 hc        1 TDS      0.039700
     37 HBA2       -1.3590   -0.5890   11.3600 hc        1 TDS      0.039700
     38 HAZ1       -1.4730    1.3760    9.7870 hc        1 TDS      0.039700
     39 HAZ2        0.3040    1.6290    9.9750 hc        1 TDS      0.039700
     40 HAY1        0.7280   -0.6920    9.0920 hc        1 TDS      0.039700
     41 HAY2       -1.0500   -0.9450    8.9050 hc        1 TDS      0.039700
     42 HAX1       -1.1640    1.0200    7.3330 hc        1 TDS      0.039700
     43 HAX2        0.6140    1.2730    7.5210 hc        1 TDS      0.039700
     44 HAW1        1.0370   -1.0480    6.6380 hc        1 TDS      0.039700
     45 HAW2       -0.7400   -1.3010    6.4510 hc        1 TDS      0.039700
     46 HAV1       -0.8550    0.6640    4.8790 hc        1 TDS      0.040200
     47 HAV2        0.9230    0.9180    5.0660 hc        1 TDS      0.040200
     48 HAU1        1.3470   -1.4030    4.1840 hc        1 TDS      0.040200
     49 HAU2       -0.4310   -1.6570    3.9970 hc        1 TDS      0.040200
     50 HAT1       -0.5460    0.3080    2.4250 hc        1 TDS      0.041700
     51 HAT2        1.2320    0.5630    2.6120 hc        1 TDS      0.041700
     52 HAS1        1.6570   -1.7580    1.7300 hc        1 TDS      0.041200
     53 HAS2       -0.1220   -2.0130    1.5430 hc        1 TDS      0.041200
     54 HAR1       -0.2420   -0.0540   -0.0340 hc        1 TDS      0.052200
     55 HAR2        1.5360    0.2120    0.1590 hc        1 TDS      0.052200
     56 HAQ1        1.9800   -2.1080   -0.7320 hc        1 TDS      0.070700
     57 HAQ2        0.1890   -2.3730   -0.9050 hc        1 TDS      0.070700
     58 HAI1        4.2150    0.1210   -2.8000 hc        1 TDS      0.050367
     59 HAI2        3.4170   -0.0700   -1.1790 hc        1 TDS      0.050367
     60 HAI3        3.8500   -1.5360   -2.1550 hc        1 TDS      0.050367
     61 HBD        -3.4700   -0.9810   -4.3570 ho        1 TDS      0.432000
     62 HAJ1       -4.5560    0.3650   -7.7570 h1        1 TDS      0.049367
     63 HAJ2       -3.2270    1.6370   -7.6900 h1        1 TDS      0.049367
     64 HAJ3       -2.8720   -0.0250   -8.3900 h1        1 TDS      0.049367
     65 HAD        -1.0260    1.0970   -7.6240 ha        1 TDS      0.150000
     66 HAA1        2.3330    2.1220   -8.3330 h1        1 TDS      0.047700
     67 HAA2        0.9390    0.9900   -8.7330 h1        1 TDS      0.047700
     68 HAA3        0.6010    2.6270   -7.9680 h1        1 TDS      0.047700
@<TRIPOS>BOND
     1    1    2 1   
     2    1   31 1   
     3    1   32 1   
     4    1   33 1   
     5    2    3 1   
     6    2   34 1   
     7    2   35 1   
     8    3    4 1   
     9    3   36 1   
    10    3   37 1   
    11    4    5 1   
    12    4   38 1   
    13    4   39 1   
    14    5    6 1   
    15    5   40 1   
    16    5   41 1   
    17    6    7 1   
    18    6   42 1   
    19    6   43 1   
    20    7    8 1   
    21    7   44 1   
    22    7   45 1   
    23    8    9 1   
    24    8   46 1   
    25    8   47 1   
    26    9   10 1   
    27    9   48 1   
    28    9   49 1   
    29   10   11 1   
    30   10   50 1   
    31   10   51 1   
    32   11   12 1   
    33   11   52 1   
    34   11   53 1   
    35   12   13 1   
    36   12   54 1   
    37   12   55 1   
    38   13   14 1   
    39   13   56 1   
    40   13   57 1   
    41   14   15 1   
    42   14   16 2   
    43   15   21 1   
    44   16   17 1   
    45   16   18 1   
    46   17   58 1   
    47   17   59 1   
    48   17   60 1   
    49   18   19 2   
    50   18   20 1   
    51   20   21 ar  
    52   20   28 ar  
    53   21   22 ar  
    54   22   23 1   
    55   22   24 ar  
    56   23   61 1   
    57   24   25 1   
    58   24   27 ar  
    59   25   26 1   
    60   26   62 1   
    61   26   63 1   
    62   26   64 1   
    63   27   28 ar  
    64   27   65 1   
    65   28   29 1   
    66   29   30 1   
    67   30   66 1   
    68   30   67 1   
    69   30   68 1   
@<TRIPOS>SUBSTRUCTURE
     1 TDS         1 TEMP              0 ****  ****    0 ROOT
