@<TRIPOS>MOLECULE
TDU
   40    42     1     0     0
SMALL
bcc


@<TRIPOS>ATOM
      1 OAA         1.8400   -2.3610   -0.4730 o         1 TDU     -0.481100
      2 CAB         0.8170   -1.0540    5.5380 c2        1 TDU     -0.094200
      3 CAC         0.6280    1.2010   -2.5820 ca        1 TDU     -0.163000
      4 CAD         0.0100    1.3130   -3.8130 ca        1 TDU     -0.012000
      5 CAE         0.1310   -1.2050   -2.4790 ca        1 TDU     -0.082000
      6 CAF        -0.1130   -0.6410    6.6160 c3        1 TDU     -0.061200
      7 CAG         0.0340    0.8180    6.9980 c3        1 TDU     -0.080400
      8 CAH         0.1970    1.6940    5.7750 c3        1 TDU     -0.077400
      9 CAI         1.7320   -0.6290    2.3680 c3        1 TDU      0.101800
     10 CAJ         1.4160    1.2890    4.9690 c3        1 TDU     -0.034200
     11 CAK         2.4450   -0.6510    3.7210 c3        1 TDU     -0.053200
     12 NAL        -1.6150   -1.0620   -5.9050 nc        1 TDU     -0.089500
     13 NAM        -1.2270    0.0800   -5.6540 nd        1 TDU     -0.116400
     14 NAN         2.6300   -1.0240    1.2430 ny        1 TDU     -0.672800
     15 NAO         1.3060   -0.0700   -0.6260 ns        1 TDU     -0.412100
     16 SAP        -1.2630   -2.2270   -4.7220 ss        1 TDU      0.204600
     17 CAQ         1.4990   -0.1860    4.7740 c2        1 TDU     -0.180400
     18 CAR         1.8690   -1.1890   -0.0840 c         1 TDU      0.643100
     19 CAS         0.6880   -0.0550   -1.9110 ca        1 TDU      0.028600
     20 CAT        -0.5540    0.1680   -4.3970 ca        1 TDU      0.009400
     21 CAU        -0.4910   -1.1030   -3.7240 ca        1 TDU     -0.084100
     22 HAC         1.0710    2.1010   -2.1270 ha        1 TDU      0.148000
     23 HAD        -0.0400    2.2840   -4.3340 ha        1 TDU      0.181000
     24 HAE         0.1750   -2.1860   -1.9760 ha        1 TDU      0.175000
     25 HAFA        0.0600   -1.2850    7.5210 hc        1 TDU      0.069200
     26 HAG         0.9250    0.9430    7.6680 hc        1 TDU      0.058200
     27 HAGA       -0.8690    1.1440    7.5780 hc        1 TDU      0.058200
     28 HAH        -0.7210    1.6180    5.1350 hc        1 TDU      0.051700
     29 HAHA        0.3010    2.7660    6.0880 hc        1 TDU      0.051700
     30 HAI         1.3410    0.4080    2.1640 hx        1 TDU      0.109200
     31 HAIA        0.8640   -1.3490    2.3840 hx        1 TDU      0.109200
     32 HAJ         1.3920    1.8070    3.9730 hc        1 TDU      0.043200
     33 HAJA        2.3470    1.6310    5.4990 hc        1 TDU      0.043200
     34 HAK         2.8030   -1.6910    3.9490 hc        1 TDU      0.068700
     35 HAKA        3.3420    0.0260    3.7010 hc        1 TDU      0.068700
     36 HNAN        3.3890   -0.3450    1.1440 hn        1 TDU      0.463800
     37 HNAO        1.4420    0.8240   -0.2020 hn        1 TDU      0.349500
     38 HAB         0.9140   -2.1440    5.3920 ha        1 TDU      0.125000
     39 HAN2        3.0470   -1.9450    1.4500 hn        1 TDU      0.463800
     40 HAF        -1.1640   -0.8410    6.2670 hc        1 TDU      0.069200
@<TRIPOS>BOND
     1    1   18 2   
     2    2    6 1   
     3    2   17 2   
     4    2   38 1   
     5    3    4 ar  
     6    3   19 ar  
     7    3   22 1   
     8    4   20 ar  
     9    4   23 1   
    10    5   19 ar  
    11    5   21 ar  
    12    5   24 1   
    13    6    7 1   
    14    6   25 1   
    15    6   40 1   
    16    7    8 1   
    17    7   26 1   
    18    7   27 1   
    19    8   10 1   
    20    8   28 1   
    21    8   29 1   
    22    9   11 1   
    23    9   14 1   
    24    9   30 1   
    25    9   31 1   
    26   10   17 1   
    27   10   32 1   
    28   10   33 1   
    29   11   17 1   
    30   11   34 1   
    31   11   35 1   
    32   12   13 2   
    33   12   16 1   
    34   13   20 1   
    35   14   18 1   
    36   14   36 1   
    37   14   39 1   
    38   15   18 1   
    39   15   19 1   
    40   15   37 1   
    41   16   21 1   
    42   20   21 ar  
@<TRIPOS>SUBSTRUCTURE
     1 TDU         1 TEMP              0 ****  ****    0 ROOT
