@<TRIPOS>MOLECULE
TDU
   39    41     1     0     0
SMALL
bcc


@<TRIPOS>ATOM
      1 OAA        -0.0490    0.4240    0.3960 o         1 TDU     -0.616100
      2 CAB        -5.7660    0.0900   -1.1780 c2        1 TDU     -0.158200
      3 CAC         3.3160   -2.0800   -0.3410 ca        1 TDU     -0.192000
      4 CAD         4.6400   -1.8530   -0.0210 ca        1 TDU     -0.025000
      5 CAE         2.7280    0.2520    0.1290 ca        1 TDU     -0.118000
      6 CAF        -6.9500    0.9660   -1.0200 c3        1 TDU     -0.046200
      7 CAG        -7.4400    1.0380    0.4130 c3        1 TDU     -0.076400
      8 CAH        -6.2830    1.1760    1.3800 c3        1 TDU     -0.075400
      9 CAI        -2.5500   -0.3900   -0.3880 c3        1 TDU      0.088000
     10 CAJ        -5.3260    0.0060    1.2630 c3        1 TDU     -0.041200
     11 CAK        -3.8340   -1.2250   -0.3590 c3        1 TDU     -0.050200
     12 NAL         6.3780    1.0560    1.0660 nc        1 TDU     -0.116500
     13 NAM         6.3390   -0.1350    0.7550 nd        1 TDU     -0.133400
     14 NAN        -1.3700   -1.2040   -0.5720 n         1 TDU     -0.555900
     15 NAO         1.0320   -1.3450   -0.6810 n         1 TDU     -0.469100
     16 SAP         4.8880    1.8740    0.9780 ss        1 TDU      0.117600
     17 CAQ        -5.0140   -0.3390   -0.1530 c2        1 TDU     -0.124400
     18 CAR        -0.1210   -0.6430   -0.2560 c         1 TDU      0.763100
     19 CAS         2.3400   -1.0380   -0.2750 ca        1 TDU      0.103600
     20 CAT         5.0310   -0.5690    0.3830 ca        1 TDU     -0.030600
     21 CAU         4.0580    0.4860    0.4580 ca        1 TDU     -0.046100
     22 HAC         3.0150   -3.0920   -0.6540 ha        1 TDU      0.137000
     23 HAD         5.3800   -2.6660   -0.0780 ha        1 TDU      0.156000
     24 HAE         1.9950    1.0730    0.1970 ha        1 TDU      0.188000
     25 HAF        -6.6790    1.9970   -1.3770 hc        1 TDU      0.049200
     26 HAFA       -7.7800    0.5960   -1.6800 hc        1 TDU      0.049200
     27 HAG        -8.1360    1.9080    0.5280 hc        1 TDU      0.042200
     28 HAGA       -8.0200    0.1090    0.6580 hc        1 TDU      0.042200
     29 HAH        -5.7350    2.1310    1.1690 hc        1 TDU      0.043700
     30 HAHA       -6.6710    1.2350    2.4300 hc        1 TDU      0.043700
     31 HAI        -2.6310    0.3750   -1.2140 h1        1 TDU      0.060700
     32 HAIA       -2.4420    0.1710    0.5860 h1        1 TDU      0.060700
     33 HAJ        -4.3750    0.2460    1.8110 hc        1 TDU      0.050200
     34 HAJA       -5.7740   -0.8990    1.7570 hc        1 TDU      0.050200
     35 HAK        -3.9420   -1.7930   -1.3210 hc        1 TDU      0.050700
     36 HAKA       -3.7820   -1.9770    0.4730 hc        1 TDU      0.050700
     37 HNAN       -1.4220   -1.8770   -1.3010 hn        1 TDU      0.296500
     38 HNAO        0.9070   -2.2770   -1.0100 hn        1 TDU      0.312500
     39 HAB        -5.5200   -0.1870   -2.2160 ha        1 TDU      0.119000
@<TRIPOS>BOND
     1    1   18 2   
     2    2    6 1   
     3    2   17 2   
     4    2   39 1   
     5    3    4 ar  
     6    3   19 ar  
     7    3   22 1   
     8    4   20 ar  
     9    4   23 1   
    10    5   19 ar  
    11    5   21 ar  
    12    5   24 1   
    13    6    7 1   
    14    6   25 1   
    15    6   26 1   
    16    7    8 1   
    17    7   27 1   
    18    7   28 1   
    19    8   10 1   
    20    8   29 1   
    21    8   30 1   
    22    9   11 1   
    23    9   14 1   
    24    9   31 1   
    25    9   32 1   
    26   10   17 1   
    27   10   33 1   
    28   10   34 1   
    29   11   17 1   
    30   11   35 1   
    31   11   36 1   
    32   12   13 2   
    33   12   16 1   
    34   13   20 1   
    35   14   18 1   
    36   14   37 1   
    37   15   18 1   
    38   15   19 1   
    39   15   38 1   
    40   16   21 1   
    41   20   21 ar  
@<TRIPOS>SUBSTRUCTURE
     1 TDU         1 TEMP              0 ****  ****    0 ROOT
