@<TRIPOS>MOLECULE
TDU
   41    43     1     0     0
SMALL
bcc


@<TRIPOS>ATOM
      1 OAA        -1.6240   -2.0540    0.5640 o         1 TDU     -0.294100
      2 CAB         2.3200    0.5130    4.7180 c2        1 TDU     -0.060200
      3 CAC         1.8730   -0.3980   -1.7140 ca        1 TDU     -0.197000
      4 CAD         2.3560    0.5220   -2.6250 ca        1 TDU      0.021000
      5 CAE        -0.1880   -0.7220   -3.0440 ca        1 TDU     -0.004000
      6 CAF         2.7540    0.2490    6.1090 c3        1 TDU     -0.068200
      7 CAG         1.6200    0.3160    7.1120 c3        1 TDU     -0.083400
      8 CAH         0.3660   -0.3380    6.5750 c3        1 TDU     -0.078400
      9 CAI         0.3570   -0.4500    2.2130 c3        1 TDU      0.110800
     10 CAJ        -0.0920    0.3280    5.2920 c3        1 TDU     -0.036200
     11 CAK         0.6420    0.8680    2.9350 c3        1 TDU     -0.048200
     12 NAL         1.0230    1.8090   -5.6600 nc        1 TDU     -0.065500
     13 NAM         1.9000    1.7570   -4.7900 nd        1 TDU     -0.085400
     14 NAN        -0.1650   -0.2090    0.8040 n4        1 TDU     -0.646800
     15 NAO         0.1620   -2.0340   -0.9760 n4        1 TDU     -0.497200
     16 SAP        -0.3170    0.8190   -5.4170 ss        1 TDU      0.376600
     17 CAQ         1.0310    0.5340    4.3350 c2        1 TDU     -0.204400
     18 CAR        -0.6270   -1.4700    0.1730 c         1 TDU      0.481100
     19 CAS         0.6030   -1.0080   -1.9270 ca        1 TDU     -0.119400
     20 CAT         1.5710    0.8430   -3.7490 ca        1 TDU      0.046400
     21 CAU         0.2860    0.2110   -3.9690 ca        1 TDU     -0.149100
     22 HAC         2.5140   -0.6950   -0.8680 ha        1 TDU      0.159000
     23 HAD         3.3490    0.9920   -2.4890 ha        1 TDU      0.213000
     24 HAE        -1.1590   -1.2180   -3.2250 ha        1 TDU      0.181000
     25 HAFA        3.5510    0.9910    6.3940 hc        1 TDU      0.080700
     26 HAG         1.4030    1.3880    7.3650 hc        1 TDU      0.069700
     27 HAGA        1.9340   -0.1920    8.0620 hc        1 TDU      0.069700
     28 HAH         0.5600   -1.4270    6.3890 hc        1 TDU      0.058700
     29 HAHA       -0.4530   -0.2680    7.3390 hc        1 TDU      0.058700
     30 HAI        -0.4330   -1.0340    2.7730 hx        1 TDU      0.122700
     31 HAIA        1.2980   -1.0630    2.1270 hx        1 TDU      0.122700
     32 HAJ        -0.5440    1.3300    5.5330 hc        1 TDU      0.046700
     33 HAJA       -0.8980   -0.2930    4.8170 hc        1 TDU      0.046700
     34 HAK         1.4630    1.4290    2.4150 hc        1 TDU      0.078200
     35 HAKA       -0.2760    1.5180    2.9530 hc        1 TDU      0.078200
     36 HNAN        0.5590    0.2670    0.2400 hn        1 TDU      0.497800
     37 HNAO        0.9890   -2.5380   -0.6080 hn        1 TDU      0.509800
     38 HAB         3.1360    0.6980    3.9980 ha        1 TDU      0.121000
     39 HAN2       -0.9860    0.4240    0.8740 hn        1 TDU      0.497800
     40 HAO2       -0.4490   -2.7250   -1.4600 hn        1 TDU      0.509800
     41 HAF         3.2320   -0.7700    6.1380 hc        1 TDU      0.080700
@<TRIPOS>BOND
     1    1   18 2   
     2    2    6 1   
     3    2   17 2   
     4    2   38 1   
     5    3    4 ar  
     6    3   19 ar  
     7    3   22 1   
     8    4   20 ar  
     9    4   23 1   
    10    5   19 ar  
    11    5   21 ar  
    12    5   24 1   
    13    6    7 1   
    14    6   25 1   
    15    6   41 1   
    16    7    8 1   
    17    7   26 1   
    18    7   27 1   
    19    8   10 1   
    20    8   28 1   
    21    8   29 1   
    22    9   11 1   
    23    9   14 1   
    24    9   30 1   
    25    9   31 1   
    26   10   17 1   
    27   10   32 1   
    28   10   33 1   
    29   11   17 1   
    30   11   34 1   
    31   11   35 1   
    32   12   13 2   
    33   12   16 1   
    34   13   20 1   
    35   14   18 1   
    36   14   36 1   
    37   14   39 1   
    38   15   18 1   
    39   15   19 1   
    40   15   37 1   
    41   15   40 1   
    42   16   21 1   
    43   20   21 ar  
@<TRIPOS>SUBSTRUCTURE
     1 TDU         1 TEMP              0 ****  ****    0 ROOT
