@<TRIPOS>MOLECULE
TDU
   40    42     1     0     0
SMALL
bcc


@<TRIPOS>ATOM
      1 OAA         1.7460   -2.4130   -0.4580 o         1 TDU     -0.481100
      2 CAB         0.7710   -1.0320    5.5450 c2        1 TDU     -0.094200
      3 CAC         0.6910    1.1830   -2.5910 ca        1 TDU     -0.163000
      4 CAD         0.0810    1.3150   -3.8240 ca        1 TDU     -0.012000
      5 CAE         0.0910   -1.1980   -2.4740 ca        1 TDU     -0.082000
      6 CAF        -0.1430   -0.5760    6.6180 c3        1 TDU     -0.061200
      7 CAG         0.0620    0.8780    6.9920 c3        1 TDU     -0.080400
      8 CAH         0.2620    1.7400    5.7640 c3        1 TDU     -0.077400
      9 CAI         1.7070   -0.6630    2.3730 c3        1 TDU      0.101800
     10 CAJ         1.4640    1.2810    4.9620 c3        1 TDU     -0.034200
     11 CAK         2.4170   -0.7060    3.7280 c3        1 TDU     -0.053200
     12 NAL        -1.6410   -1.0020   -5.9040 nc        1 TDU     -0.089500
     13 NAM        -1.2040    0.1250   -5.6600 nd        1 TDU     -0.116400
     14 NAN         2.5890   -1.1020    1.2520 n4        1 TDU     -0.672800
     15 NAO         1.3100   -0.1020   -0.6260 n         1 TDU     -0.412100
     16 SAP        -1.3420   -2.1730   -4.7140 ss        1 TDU      0.204600
     17 CAQ         1.4890   -0.1970    4.7760 c2        1 TDU     -0.180400
     18 CAR         1.8230   -1.2420   -0.0750 c         1 TDU      0.643100
     19 CAS         0.6960   -0.0690   -1.9110 ca        1 TDU      0.028600
     20 CAT        -0.5300    0.1910   -4.4020 ca        1 TDU      0.009400
     21 CAU        -0.5240   -1.0760   -3.7200 ca        1 TDU     -0.084100
     22 HAC         1.1720    2.0670   -2.1400 ha        1 TDU      0.148000
     23 HAD         0.0750    2.2840   -4.3510 ha        1 TDU      0.181000
     24 HAE         0.0910   -2.1760   -1.9650 ha        1 TDU      0.175000
     25 HAFA       -1.2010   -0.7350    6.2690 hc        1 TDU      0.069200
     26 HAG         0.9570    0.9720    7.6620 hc        1 TDU      0.058200
     27 HAGA       -0.8280    1.2430    7.5690 hc        1 TDU      0.058200
     28 HAH        -0.6580    1.6970    5.1230 hc        1 TDU      0.051700
     29 HAHA        0.4080    2.8090    6.0710 hc        1 TDU      0.051700
     30 HAI         0.8090   -1.3460    2.3920 hx        1 TDU      0.109200
     31 HAIA        1.3590    0.3880    2.1620 hx        1 TDU      0.109200
     32 HAJ         2.4080    1.5890    5.4920 hc        1 TDU      0.043200
     33 HAJA        1.4630    1.7940    3.9630 hc        1 TDU      0.043200
     34 HAK         3.3400   -0.0650    3.7050 hc        1 TDU      0.068700
     35 HAKA        2.7320   -1.7580    3.9620 hc        1 TDU      0.068700
     36 HNAN        2.9670   -2.0380    1.4650 hn        1 TDU      0.463800
     37 HNAO        1.4830    0.7870   -0.2060 hn        1 TDU      0.349500
     38 HAB         0.8250   -2.1260    5.4050 ha        1 TDU      0.125000
     39 HAN2        3.3760   -0.4550    1.1510 hn        1 TDU      0.463800
     40 HAF         0.0030   -1.2200    7.5270 hc        1 TDU      0.069200
@<TRIPOS>BOND
     1    1   18 2   
     2    2    6 1   
     3    2   17 2   
     4    2   38 1   
     5    3    4 ar  
     6    3   19 ar  
     7    3   22 1   
     8    4   20 ar  
     9    4   23 1   
    10    5   19 ar  
    11    5   21 ar  
    12    5   24 1   
    13    6    7 1   
    14    6   25 1   
    15    6   40 1   
    16    7    8 1   
    17    7   26 1   
    18    7   27 1   
    19    8   10 1   
    20    8   28 1   
    21    8   29 1   
    22    9   11 1   
    23    9   14 1   
    24    9   30 1   
    25    9   31 1   
    26   10   17 1   
    27   10   32 1   
    28   10   33 1   
    29   11   17 1   
    30   11   34 1   
    31   11   35 1   
    32   12   13 2   
    33   12   16 1   
    34   13   20 1   
    35   14   18 1   
    36   14   36 1   
    37   14   39 1   
    38   15   18 1   
    39   15   19 1   
    40   15   37 1   
    41   16   21 1   
    42   20   21 ar  
@<TRIPOS>SUBSTRUCTURE
     1 TDU         1 TEMP              0 ****  ****    0 ROOT
