@<TRIPOS>MOLECULE
TDV
   65    62     1     0     0
SMALL
bcc


@<TRIPOS>ATOM
      1 C12         2.2610    2.0730    0.3930 c3        1 TDV     -0.179000
      2 C13         2.9020    3.3080   -0.2000 c3        1 TDV     -0.151000
      3 C14         2.7780    4.4600    0.7760 c3        1 TDV     -0.124000
      4 C15         2.4170    5.7240    0.0230 c2        1 TDV     -0.074000
      5 C20         3.4150    6.5030   -0.5410 c2        1 TDV     -0.126000
      6 C16         1.0970    6.1490   -0.0220 c1        1 TDV     -0.129000
      7 C19         3.0940    7.7060   -1.1510 c1        1 TDV     -0.126000
      8 C17         0.7770    7.3520   -0.6320 c1        1 TDV     -0.130000
      9 C18         1.7750    8.1310   -1.1970 c1        1 TDV     -0.130000
     10 C10         1.6780    1.2250   -0.7170 c1        1 TDV      0.326000
     11 O11         1.8280    1.5570   -1.8770 o         1 TDV     -0.355000
     12 F35        -6.9260   -6.1120   -5.2740 f         1 TDV     -0.105000
     13 C32        -5.9420   -5.5530   -4.5570 c2        1 TDV      0.094000
     14 C31        -4.8720   -4.9510   -5.2000 c2        1 TDV     -0.167000
     15 C30        -3.8400   -4.3980   -4.4580 c1        1 TDV     -0.101000
     16 C33        -5.9810   -5.6010   -3.1720 c1        1 TDV     -0.167000
     17 C34        -4.9500   -5.0470   -2.4300 c1        1 TDV     -0.076000
     18 C29        -3.8790   -4.4450   -3.0730 c1        1 TDV     -0.010000
     19 C27        -2.7410   -3.8600   -2.2630 c2        1 TDV     -0.116000
     20 N26        -1.6820   -4.5290   -1.7990 n2        1 TDV     -0.083000
     21 N25        -0.9130   -3.6610   -1.0930 n2        1 TDV      0.021000
     22 C28        -2.6360   -2.5580   -1.8450 c1        1 TDV     -0.124000
     23 N24        -1.5130   -2.4440   -1.1290 n2        1 TDV     -0.169000
     24 C22        -1.0180   -1.1720   -0.4230 c2        1 TDV      0.041000
     25 C21         0.2430   -0.5940   -1.1860 c3        1 TDV     -0.035000
     26 C23        -0.6610   -1.4440    0.7220 c3        1 TDV     -0.172000
     27 C8          0.5440   -0.4650    1.0590 c3        1 TDV      0.025000
     28 C6          1.5550   -1.1410    1.6250 c2        1 TDV      0.273000
     29 O7          2.5010   -1.4940    0.9510 o         1 TDV     -0.339000
     30 N9          0.8540    0.1110   -0.3990 n2        1 TDV     -0.329000
     31 N5          1.5590   -1.3660    3.0270 n         1 TDV     -0.331000
     32 C4          2.4980   -1.9330    3.7200 c3        1 TDV     -0.029000
     33 C3          1.7680   -2.5540    4.9680 c3        1 TDV     -0.169000
     34 C2          0.3580   -1.9580    4.9550 c3        1 TDV     -0.169000
     35 C1          0.4090   -0.9720    4.0630 c3        1 TDV     -0.029000
     36 H121        1.5490    2.3380    1.0080 hc        1 TDV      0.116500
     37 H122        2.9350    1.5560    0.8770 hc        1 TDV      0.116500
     38 H131        3.8480    3.1320   -0.3780 hc        1 TDV      0.090500
     39 H132        2.4510    3.5400   -1.0360 hc        1 TDV      0.090500
     40 H141        2.0790    4.2580    1.4300 hc        1 TDV      0.091500
     41 H142        3.6310    4.5880    1.2390 hc        1 TDV      0.091500
     42 H20         4.3440    6.2040   -0.5090 ha        1 TDV      0.135000
     43 H16         0.3940    5.6010    0.3750 ha        1 TDV      0.128000
     44 H19         3.7970    8.2550   -1.5490 ha        1 TDV      0.133000
     45 H17        -0.1520    7.6510   -0.6640 ha        1 TDV      0.131000
     46 H18         1.5490    8.9780   -1.6260 ha        1 TDV      0.131000
     47 H31        -4.8440   -4.9180   -6.1750 ha        1 TDV      0.149000
     48 H33        -6.7350   -6.0240   -2.7190 ha        1 TDV      0.152000
     49 H30        -3.0860   -3.9740   -4.9110 ha        1 TDV      0.131000
     50 H34        -4.9770   -5.0800   -1.4550 ha        1 TDV      0.161000
     51 H28        -3.2700   -1.8410   -2.0370 DU        1 TDV      0.191000
     52 H22        -1.7310   -0.5030   -0.4010 ha        1 TDV      0.112000
     53 H211       -0.0480   -0.0600   -1.9540 h1        1 TDV      0.119000
     54 H212        0.8170   -1.3290   -1.4880 h1        1 TDV      0.119000
     55 H231       -1.4000   -1.2960    1.3490 hc        1 TDV      0.115500
     56 H232       -0.3610   -2.3760    0.7690 hc        1 TDV      0.115500
     57 H8          0.3910    0.2470    1.7100 h1        1 TDV      0.112000
     58 H41C        2.9310   -2.6370    3.1940 h1        1 TDV      0.089750
     59 H42C        3.1570   -1.2680    4.0070 h1        1 TDV      0.089750
     60 H11C        0.6310   -0.1280    4.5060 h1        1 TDV      0.089750
     61 H12C       -0.4500   -0.8930    3.5980 h1        1 TDV      0.089750
     62 H31C        2.2340   -2.3040    5.7910 hc        1 TDV      0.094250
     63 H32C        1.7250   -3.5280    4.8850 hc        1 TDV      0.094250
     64 H21C       -0.2950   -2.6340    4.6790 hc        1 TDV      0.094250
     65 H22C        0.1290   -1.6040    5.8400 hc        1 TDV      0.094250
@<TRIPOS>BOND
     1    1    2 1   
     2    1   10 1   
     3    1   36 1   
     4    1   37 1   
     5    2    3 1   
     6    2   38 1   
     7    2   39 1   
     8    3    4 1   
     9    3   40 1   
    10    3   41 1   
    11    4    5 1   
    12    4    6 1   
    13    5    7 1   
    14    5   42 1   
    15    6   43 1   
    16    7   44 1   
    17    8    9 1   
    18    8   45 1   
    19    9   46 1   
    20   10   11 1   
    21   12   13 1   
    22   13   14 1   
    23   13   16 1   
    24   14   15 1   
    25   14   47 1   
    26   15   49 1   
    27   16   48 1   
    28   17   18 1   
    29   17   50 1   
    30   18   19 1   
    31   19   20 1   
    32   19   22 1   
    33   20   21 1   
    34   21   23 1   
    35   22   23 1   
    36   24   25 1   
    37   24   26 1   
    38   24   52 1   
    39   25   30 1   
    40   25   53 1   
    41   25   54 1   
    42   26   27 1   
    43   26   55 1   
    44   26   56 1   
    45   27   28 1   
    46   27   30 1   
    47   27   57 1   
    48   28   29 1   
    49   28   31 1   
    50   31   32 1   
    51   31   35 1   
    52   32   33 1   
    53   32   58 1   
    54   32   59 1   
    55   33   34 1   
    56   33   62 1   
    57   33   63 1   
    58   34   35 1   
    59   34   64 1   
    60   34   65 1   
    61   35   60 1   
    62   35   61 1   
@<TRIPOS>SUBSTRUCTURE
     1 TDV         1 TEMP              0 ****  ****    0 ROOT
