@<TRIPOS>MOLECULE
TDV
   65    69     1     0     0
SMALL
bcc


@<TRIPOS>ATOM
      1 C12        -2.6350   -0.7820    1.3230 c3        1 TDV     -0.143400
      2 C13        -4.0610   -0.8900    0.8260 c3        1 TDV     -0.072400
      3 C14        -4.6270   -2.2660    1.1260 c3        1 TDV     -0.036100
      4 C15        -6.0140   -2.4120    0.6070 ca        1 TDV     -0.080300
      5 C20        -6.2400   -2.5430   -0.7680 ca        1 TDV     -0.125500
      6 C16        -7.1040   -2.4300    1.4850 ca        1 TDV     -0.125500
      7 C19        -7.5370   -2.6910   -1.2570 ca        1 TDV     -0.127500
      8 C17        -8.4000   -2.5780    0.9940 ca        1 TDV     -0.127500
      9 C18        -8.6190   -2.7080   -0.3770 ca        1 TDV     -0.130000
     10 C10        -2.0810    0.6070    1.0740 c         1 TDV      0.670100
     11 O11        -2.8110    1.5770    0.7950 o         1 TDV     -0.608100
     12 C32         7.3210   -1.6570   -2.1500 ca        1 TDV      0.123900
     13 C31         7.5360   -2.0620   -0.8200 ca        1 TDV     -0.168000
     14 C30         6.5940   -1.7520    0.1550 ca        1 TDV     -0.091000
     15 C33         6.1590   -0.9420   -2.4910 ca        1 TDV     -0.168000
     16 C34         5.2260   -0.6390   -1.5070 ca        1 TDV     -0.091000
     17 C29         5.4310   -1.0390   -0.1760 ca        1 TDV     -0.113500
     18 C27         4.4440   -0.7110    0.8270 cc        1 TDV      0.301800
     19 N26         4.5420   -1.0380    2.2110 nc        1 TDV     -0.345000
     20 N25         3.5240   -0.6170    2.8300 nd        1 TDV     -0.167800
     21 C28         3.2200   -0.0260    0.6700 cd        1 TDV     -0.195600
     22 N24         2.6810    0.0110    1.9640 na        1 TDV      0.035400
     23 C22         1.4040    0.5920    2.3300 c3        1 TDV      0.060000
     24 C21         0.1880   -0.1930    1.7320 c3        1 TDV      0.075000
     25 C23         1.2200    2.0530    1.8570 c3        1 TDV     -0.101400
     26 C8         -0.0770    2.0840    1.0170 c3        1 TDV      0.042700
     27 C6          0.2970    2.3980   -0.4530 c         1 TDV      0.657100
     28 O7          1.1770    1.7250   -1.0340 o         1 TDV     -0.636100
     29 N9         -0.7030    0.7770    1.1360 n         1 TDV     -0.471800
     30 N5         -0.2760    3.4760   -1.0810 n         1 TDV     -0.452800
     31 C4          0.0010    3.7540   -2.4830 c3        1 TDV      0.079000
     32 C3         -1.1110    4.6760   -3.0050 c3        1 TDV     -0.089900
     33 C2         -2.0360    4.9520   -1.8240 c3        1 TDV     -0.089900
     34 C1         -1.4680    4.1700   -0.6270 c3        1 TDV      0.079000
     35 H121       -2.5990   -0.9790    2.4290 hc        1 TDV      0.067700
     36 H122       -1.9940   -1.5500    0.8150 hc        1 TDV      0.067700
     37 H131       -4.6900   -0.0980    1.3120 hc        1 TDV      0.064700
     38 H132       -4.0910   -0.6980   -0.2790 hc        1 TDV      0.064700
     39 H141       -3.9730   -3.0490    0.6560 hc        1 TDV      0.046700
     40 H142       -4.6110   -2.4420    2.2350 hc        1 TDV      0.046700
     41 H20        -5.3870   -2.5290   -1.4630 ha        1 TDV      0.130500
     42 H16        -6.9370   -2.3280    2.5680 ha        1 TDV      0.130500
     43 H19        -7.7060   -2.7930   -2.3390 ha        1 TDV      0.131500
     44 H17        -9.2510   -2.5920    1.6900 ha        1 TDV      0.131500
     45 H18        -9.6420   -2.8250   -0.7640 ha        1 TDV      0.132000
     46 H33         5.9980   -0.6280   -3.5330 ha        1 TDV      0.148500
     47 H30         6.7710   -2.0720    1.1940 ha        1 TDV      0.150000
     48 H34         4.3180   -0.0780   -1.7770 ha        1 TDV      0.150000
     49 H28         2.7180    0.4160   -0.1960 h4        1 TDV      0.231000
     50 H22         1.3260    0.5600    3.4570 h1        1 TDV      0.095700
     51 H211        0.5160   -0.9270    0.9430 h1        1 TDV      0.065200
     52 H212       -0.3270   -0.7620    2.5540 h1        1 TDV      0.065200
     53 H231        1.1120    2.7210    2.7460 hc        1 TDV      0.080700
     54 H232        2.0880    2.4160    1.2510 hc        1 TDV      0.080700
     55 H8         -0.7830    2.8700    1.4160 h1        1 TDV      0.088700
     56 H41C        1.0080    4.2490   -2.5610 h1        1 TDV      0.060200
     57 H42C        0.0460    2.7930   -3.0670 h1        1 TDV      0.060200
     58 H11C       -2.2320    3.4420   -0.2310 h1        1 TDV      0.060200
     59 H12C       -1.1860    4.8760    0.2030 h1        1 TDV      0.060200
     60 H31C       -0.6720    5.6240   -3.4000 hc        1 TDV      0.054200
     61 H32C       -1.6650    4.1800   -3.8390 hc        1 TDV      0.054200
     62 H21C       -2.0720    6.0430   -1.5890 hc        1 TDV      0.054200
     63 H22C       -3.0780    4.6120   -2.0430 hc        1 TDV      0.054200
     64 H31         8.4470   -2.6200   -0.5610 ha        1 TDV      0.148500
     65 F35         8.2350   -1.9560   -3.1040 f         1 TDV     -0.142900
@<TRIPOS>BOND
     1    1    2 1   
     2    1   10 1   
     3    1   35 1   
     4    1   36 1   
     5    2    3 1   
     6    2   37 1   
     7    2   38 1   
     8    3    4 1   
     9    3   39 1   
    10    3   40 1   
    11    4    5 ar  
    12    4    6 ar  
    13    5    7 ar  
    14    5   41 1   
    15    6    8 ar  
    16    6   42 1   
    17    7    9 ar  
    18    7   43 1   
    19    8    9 ar  
    20    8   44 1   
    21    9   45 1   
    22   10   11 2   
    23   10   29 1   
    24   12   13 ar  
    25   12   15 ar  
    26   12   65 1   
    27   13   14 ar  
    28   13   64 1   
    29   14   17 ar  
    30   14   47 1   
    31   15   16 ar  
    32   15   46 1   
    33   16   17 ar  
    34   16   48 1   
    35   17   18 1   
    36   18   19 1   
    37   18   21 2   
    38   19   20 2   
    39   20   22 1   
    40   21   22 1   
    41   21   49 1   
    42   22   23 1   
    43   23   24 1   
    44   23   25 1   
    45   23   50 1   
    46   24   29 1   
    47   24   51 1   
    48   24   52 1   
    49   25   26 1   
    50   25   53 1   
    51   25   54 1   
    52   26   27 1   
    53   26   29 1   
    54   26   55 1   
    55   27   28 2   
    56   27   30 1   
    57   30   31 1   
    58   30   34 1   
    59   31   32 1   
    60   31   56 1   
    61   31   57 1   
    62   32   33 1   
    63   32   60 1   
    64   32   61 1   
    65   33   34 1   
    66   33   62 1   
    67   33   63 1   
    68   34   58 1   
    69   34   59 1   
@<TRIPOS>SUBSTRUCTURE
     1 TDV         1 TEMP              0 ****  ****    0 ROOT
