@<TRIPOS>MOLECULE
TDW
   49    57     1     0     0
SMALL
bcc


@<TRIPOS>ATOM
      1 S1          0.0000    0.0000    0.0000 ss        1 TDW      0.220000
      2 C2          1.7100    0.0000    0.0000 c3        1 TDW     -0.463000
      3 N3          2.1550    0.0000    1.2110 n3        1 TDW      0.551000
      4 C4          1.2610   -0.0000    2.1800 c2        1 TDW     -0.245000
      5 C5         -0.0080    0.0010    1.7620 c3        1 TDW     -0.315000
      6 C6         -1.2310    0.0010    2.6430 DU        1 TDW     -0.306000
      7 C7         -1.6450    1.4440    2.9410 c3        1 TDW     -0.181000
      8 O7         -2.8040    1.4450    3.7760 os        1 TDW     -0.652000
      9 PA         -3.5160    2.7950    4.2870 p5        1 TDW      1.479000
     10 PB         -6.1890    3.2380    5.4890 p5        1 TDW      1.117500
     11 N1'         3.7040   -3.7210    1.4530 n2        1 TDW     -0.190000
     12 O1A        -3.8580    3.6440    3.1240 o         1 TDW     -0.571500
     13 O1B        -7.3340    2.2070    5.9550 o         1 TDW     -0.381167
     14 C2'         4.9950   -3.9440    1.5850 c3        1 TDW      0.241000
     15 C27         2.5720   -0.0000   -1.2350 DU        1 TDW     -0.143000
     16 O28         2.0630   -0.9530   -2.1710 oh        1 TDW     -0.689000
     17 C29         2.5590    1.3930   -1.8680 c3        1 TDW     -0.484000
     18 O2A        -2.5130    3.5950    5.2590 o         1 TDW     -0.571500
     19 O2B        -5.8570    4.2520    6.6940 o         1 TDW     -0.381167
     20 N3'         5.8640   -2.9590    1.6920 n2        1 TDW     -0.305000
     21 O3A        -4.8600    2.4220    5.0920 os        1 TDW     -0.933000
     22 O3B        -6.6650    4.0060    4.3150 o         1 TDW     -0.381167
     23 C4'         5.4600   -1.6920    1.6690 c2        1 TDW      0.012000
     24 N4'         6.3760   -0.6580    1.7820 n8        1 TDW     -0.027000
     25 C5'         4.0970   -1.4200    1.5290 c3        1 TDW     -0.047000
     26 C6'         3.2230   -2.4850    1.4210 c2        1 TDW     -0.115000
     27 C7'         3.5920   -0.0010    1.4980 c3        1 TDW     -0.473000
     28 CM4         1.6400    0.0000    3.6380 c3        1 TDW     -0.056000
     29 H6         -0.3540   -0.6320    2.6960 DU        1 TDW      0.291000
     30 H6A        -2.0410   -0.5090    2.1360 ha        1 TDW      0.082000
     31 H7         -1.3240    0.4600    3.2600 DU        1 TDW      0.320000
     32 H7A        -1.8690    1.9550    2.0120 h1        1 TDW      0.085000
     33 H27         1.9690    0.3470   -0.4050 DU        1 TDW      0.092000
     34 HO28        2.7610   -0.6390   -1.6210 DU        1 TDW      0.345000
     35 H29         2.6350    0.3710   -2.2200 DU        1 TDW      0.209000
     36 H29A        3.3700    1.4730   -2.5810 hc        1 TDW      0.060500
     37 H29B        1.6150    1.5510   -2.3750 hc        1 TDW      0.060500
     38 HN4'        5.6980   -0.1440    1.2540 hn        1 TDW      0.094500
     39 HN4A        6.8720   -0.3390    0.9730 hn        1 TDW      0.094500
     40 H6'         4.0840   -1.9120    1.7460 h4        1 TDW     -0.035000
     41 H7'         3.0220   -0.9190    1.4240 DU        1 TDW      0.322000
     42 H7'A        3.7690    0.4670    2.4590 h1        1 TDW      0.095000
     43 HM2         5.2570   -4.3210    1.4510 hc        1 TDW     -0.065000
     44 HM2A        5.1820   -4.7370    2.4420 DU        1 TDW      0.062000
     45 HM2B        5.8230   -5.0410    2.5950 hc        1 TDW     -0.065000
     46 HM4         2.1290   -0.9620    3.5390 hc        1 TDW      0.063667
     47 HM4A        2.2190    0.8650    3.9390 hc        1 TDW      0.063667
     48 HM4B        0.8270   -0.2710    4.3010 hc        1 TDW      0.063667
     49 CM2         5.4930   -5.3660    1.6160 c3        1 TDW      0.052000
@<TRIPOS>BOND
     1    1    2 1   
     2    1    5 1   
     3    2    3 1   
     4    2   15 1   
     5    2   33 1   
     6    3    4 1   
     7    3   27 1   
     8    4    5 1   
     9    4   28 1   
    10    5    6 1   
    11    5   29 1   
    12    6    7 1   
    13    6   29 1   
    14    6   30 1   
    15    6   31 1   
    16    7    8 1   
    17    7   31 1   
    18    7   32 1   
    19    8    9 1   
    20    9   12 1   
    21    9   18 1   
    22    9   21 1   
    23   10   13 1   
    24   10   19 1   
    25   10   21 1   
    26   10   22 1   
    27   11   14 1   
    28   11   26 1   
    29   14   20 1   
    30   14   44 1   
    31   14   49 1   
    32   15   16 1   
    33   15   17 1   
    34   15   33 1   
    35   15   34 1   
    36   15   35 1   
    37   16   34 1   
    38   17   35 1   
    39   17   36 1   
    40   17   37 1   
    41   20   23 1   
    42   23   24 1   
    43   23   25 1   
    44   24   38 1   
    45   24   39 1   
    46   25   26 1   
    47   25   27 1   
    48   25   41 1   
    49   26   40 1   
    50   27   41 1   
    51   27   42 1   
    52   28   46 1   
    53   28   47 1   
    54   28   48 1   
    55   43   49 1   
    56   44   49 1   
    57   45   49 1   
@<TRIPOS>SUBSTRUCTURE
     1 TDW         1 TEMP              0 ****  ****    0 ROOT
