@<TRIPOS>MOLECULE
TDY
   41    42     1     0     0
SMALL
bcc


@<TRIPOS>ATOM
      1 P          -1.7330   -1.5540    1.3220 p5        1 TDY      1.337900
      2 OP1        -2.5980   -1.0420    0.1990 o         1 TDY     -0.928500
      3 O5'        -1.9310   -0.1880    2.3700 os        1 TDY     -0.569200
      4 C5'        -0.8510    0.6040    2.6380 c3        1 TDY      0.232400
      5 C4'        -0.7650    1.8400    1.7100 c3        1 TDY      0.065100
      6 O4'         0.5530    2.4330    1.8270 os        1 TDY     -0.441600
      7 C3'        -0.9970    1.5420    0.2140 c3        1 TDY      0.114100
      8 O3'        -2.3000    1.8960   -0.1920 oh        1 TDY     -0.651800
      9 C2'         0.0460    2.3860   -0.5160 c3        1 TDY     -0.128400
     10 C1'         1.1560    2.5980    0.5380 c3        1 TDY      0.318500
     11 N1          2.3110    1.7040    0.3950 n         1 TDY     -0.445800
     12 C2          3.3300    2.0720   -0.4710 c         1 TDY      0.815500
     13 O2          3.5390    3.2570   -0.8490 o         1 TDY     -0.726500
     14 N3          4.2530    1.0830   -0.9050 n         1 TDY     -0.603500
     15 C4          4.0040   -0.2860   -0.8300 c         1 TDY      0.709500
     16 O4          4.8680   -1.0680   -1.2710 o         1 TDY     -0.674500
     17 C5          2.6570   -0.7310   -0.2120 c3        1 TDY      0.142200
     18 C5M         2.8600   -2.0360    0.5620 c3        1 TDY     -0.129100
     19 C6          2.2300    0.3360    0.8420 c3        1 TDY      0.049000
     20 N5          1.6590   -0.8040   -1.2850 n3        1 TDY     -0.826200
     21 OP2        -2.1550   -2.7330    2.1350 o         1 TDY     -0.928500
     22 CM5         1.8040   -1.9430   -2.1530 c3        1 TDY      0.153100
     23 OP3        -0.2590   -1.4660    0.9560 o         1 TDY     -0.928500
     24 HA1        -0.9510    1.0110    3.6900 h1        1 TDY     -0.007800
     25 HB2         0.1050    0.0140    2.5910 h1        1 TDY     -0.007800
     26 HB         -1.4820    2.6300    2.0600 h1        1 TDY      0.035700
     27 HC         -0.8320    0.4300    0.0360 h1        1 TDY      0.139700
     28 HD          1.5640    3.6520    0.5190 h2        1 TDY      0.065700
     29 H3'        -2.8190    1.0660   -0.1120 ho        1 TDY      0.478000
     30 HB1         0.4130    1.8670   -1.4310 hc        1 TDY      0.054200
     31 HC2        -0.3780    3.3760   -0.8110 hc        1 TDY      0.054200
     32 H61C        2.9080    0.2280    1.7360 h1        1 TDY      0.110200
     33 H62C        1.1650    0.0840    1.1550 h1        1 TDY      0.110200
     34 H3          5.0450    1.4120   -1.4060 hn        1 TDY      0.313500
     35 H5M1        3.5910   -1.8870    1.3900 hc        1 TDY      0.060700
     36 H5M2        1.8580   -2.3360    0.9850 hc        1 TDY      0.060700
     37 H5M3        3.2500   -2.8350   -0.1120 hc        1 TDY      0.060700
     38 H51N        0.7400   -0.8260   -0.8380 hn        1 TDY      0.456800
     39 HM51        1.5520   -2.9240   -1.6650 h1        1 TDY      0.020367
     40 HM52        1.1050   -1.7940   -3.0180 h1        1 TDY      0.020367
     41 HM53        2.8570   -2.0030   -2.5380 h1        1 TDY      0.020367
@<TRIPOS>BOND
     1    1    2 1   
     2    1    3 1   
     3    1   21 1   
     4    1   23 1   
     5    3    4 1   
     6    4    5 1   
     7    4   24 1   
     8    4   25 1   
     9    5    6 1   
    10    5    7 1   
    11    5   26 1   
    12    6   10 1   
    13    7    8 1   
    14    7    9 1   
    15    7   27 1   
    16    8   29 1   
    17    9   10 1   
    18    9   30 1   
    19    9   31 1   
    20   10   11 1   
    21   10   28 1   
    22   11   12 1   
    23   11   19 1   
    24   12   13 2   
    25   12   14 1   
    26   14   15 1   
    27   14   34 1   
    28   15   16 2   
    29   15   17 1   
    30   17   18 1   
    31   17   19 1   
    32   17   20 1   
    33   18   35 1   
    34   18   36 1   
    35   18   37 1   
    36   19   32 1   
    37   19   33 1   
    38   20   22 1   
    39   20   38 1   
    40   22   39 1   
    41   22   40 1   
    42   22   41 1   
@<TRIPOS>SUBSTRUCTURE
     1 TDY         1 TEMP              0 ****  ****    0 ROOT
