@<TRIPOS>MOLECULE
TDZ
   58    61     1     0     0
SMALL
bcc


@<TRIPOS>ATOM
      1 CAM        -3.2390    2.3750   -0.6850 c3        1 TDZ     -0.104400
      2 CAL        -4.7410    2.1960   -0.6400 c3        1 TDZ     -0.026100
      3 CBB        -5.1410    0.7730   -0.4690 ca        1 TDZ     -0.113300
      4 CAZ        -6.4710    0.3800   -0.6820 ca        1 TDZ     -0.118300
      5 CAC        -7.5100    1.3710   -1.0520 c3        1 TDZ     -0.057800
      6 CBA        -6.8080   -0.9770   -0.5480 ca        1 TDZ      0.091100
      7 OAG        -8.0980   -1.4350   -0.7460 oh        1 TDZ     -0.505100
      8 CAX        -5.8600   -1.9450   -0.1600 ca        1 TDZ     -0.069300
      9 CAA        -6.2530   -3.3650   -0.0090 c3        1 TDZ     -0.047800
     10 CAY        -4.5430   -1.5440    0.0950 ca        1 TDZ     -0.071300
     11 CAB        -3.5270   -2.5350    0.5190 c3        1 TDZ     -0.048800
     12 CBC        -4.1970   -0.1870   -0.0760 ca        1 TDZ      0.106100
     13 OAR        -2.8570    0.1060    0.1210 os        1 TDZ     -0.319900
     14 CBE        -2.5380    1.4940    0.3470 c3        1 TDZ      0.156800
     15 CAD        -2.8930    1.8880    1.7710 c3        1 TDZ     -0.110100
     16 CAN        -1.0190    1.5760    0.1000 c3        1 TDZ      0.130400
     17 OAQ        -0.3680    1.0030    1.2380 os        1 TDZ     -0.316900
     18 CAW         1.0000    0.8530    1.1320 ca        1 TDZ      0.136100
     19 CAK         1.5990    0.1530    2.1970 ca        1 TDZ     -0.178500
     20 CAI         2.9740   -0.0340    2.1990 ca        1 TDZ     -0.087000
     21 CAJ         1.7790    1.3550    0.0820 ca        1 TDZ     -0.178500
     22 CAH         3.1570    1.1550    0.1030 ca        1 TDZ     -0.087000
     23 CAV         3.7660    0.4620    1.1540 ca        1 TDZ     -0.137300
     24 CAO         5.2420    0.2740    1.1770 c3        1 TDZ     -0.015100
     25 CBD         5.7080   -0.6830    0.1000 c3        1 TDZ     -0.075600
     26 SAS         5.7080    0.0640   -1.5400 ss        1 TDZ     -0.186700
     27 CAT         7.4080   -0.2750   -1.8420 c         1 TDZ      0.716100
     28 OAE         8.0530   -0.0070   -2.8590 o         1 TDZ     -0.551500
     29 NAP         7.9820   -0.9170   -0.7340 n         1 TDZ     -0.615500
     30 CAU         7.1330   -1.1530    0.3540 c         1 TDZ      0.699500
     31 OAF         7.5210   -1.6960    1.3940 o         1 TDZ     -0.570500
     32 HAM1       -2.8600    2.1040   -1.7060 hc        1 TDZ      0.056200
     33 HAM2       -2.9810    3.4480   -0.4920 hc        1 TDZ      0.056200
     34 HAL1       -5.1680    2.7980    0.2090 hc        1 TDZ      0.055200
     35 HAL2       -5.1830    2.6010   -1.5910 hc        1 TDZ      0.055200
     36 HAC1       -7.6140    1.4280   -2.1650 hc        1 TDZ      0.046033
     37 HAC2       -8.5020    1.0930   -0.6140 hc        1 TDZ      0.046033
     38 HAC3       -7.2530    2.3910   -0.6720 hc        1 TDZ      0.046033
     39 HOAG       -8.5250   -0.8440   -1.3830 ho        1 TDZ      0.415000
     40 HAA1       -5.4990   -4.0330   -0.4960 hc        1 TDZ      0.049700
     41 HAA2       -6.3090   -3.6320    1.0760 hc        1 TDZ      0.049700
     42 HAA3       -7.2530   -3.5580   -0.4710 hc        1 TDZ      0.049700
     43 HAB1       -3.2260   -3.1700   -0.3530 hc        1 TDZ      0.050367
     44 HAB2       -2.6130   -2.0320    0.9210 hc        1 TDZ      0.050367
     45 HAB3       -3.9440   -3.2050    1.3130 hc        1 TDZ      0.050367
     46 HAD1       -3.9940    1.8000    1.9310 hc        1 TDZ      0.054700
     47 HAD2       -2.3700    1.2120    2.4910 hc        1 TDZ      0.054700
     48 HAD3       -2.5720    2.9390    1.9610 hc        1 TDZ      0.054700
     49 HAN1       -0.7510    1.0020   -0.8250 h1        1 TDZ      0.053700
     50 HAN2       -0.7160    2.6510    0.0040 h1        1 TDZ      0.053700
     51 HAK         0.9690   -0.2330    3.0110 ha        1 TDZ      0.147000
     52 HAI         3.4450   -0.5800    3.0320 ha        1 TDZ      0.141000
     53 HAJ         1.3230    1.9030   -0.7540 ha        1 TDZ      0.147000
     54 HAH         3.7770    1.5460   -0.7220 ha        1 TDZ      0.141000
     55 HAO1        5.7480    1.2690    1.0450 hc        1 TDZ      0.075200
     56 HAO2        5.5640   -0.1380    2.1740 hc        1 TDZ      0.075200
     57 HBD         5.0380   -1.5830    0.0740 h1        1 TDZ      0.128700
     58 HNAP        8.9410   -1.1800   -0.7160 hn        1 TDZ      0.354500
@<TRIPOS>BOND
     1    1    2 1   
     2    1   14 1   
     3    1   32 1   
     4    1   33 1   
     5    2    3 1   
     6    2   34 1   
     7    2   35 1   
     8    3    4 ar  
     9    3   12 ar  
    10    4    5 1   
    11    4    6 ar  
    12    5   36 1   
    13    5   37 1   
    14    5   38 1   
    15    6    7 1   
    16    6    8 ar  
    17    7   39 1   
    18    8    9 1   
    19    8   10 ar  
    20    9   40 1   
    21    9   41 1   
    22    9   42 1   
    23   10   11 1   
    24   10   12 ar  
    25   11   43 1   
    26   11   44 1   
    27   11   45 1   
    28   12   13 1   
    29   13   14 1   
    30   14   15 1   
    31   14   16 1   
    32   15   46 1   
    33   15   47 1   
    34   15   48 1   
    35   16   17 1   
    36   16   49 1   
    37   16   50 1   
    38   17   18 1   
    39   18   19 ar  
    40   18   21 ar  
    41   19   20 ar  
    42   19   51 1   
    43   20   23 ar  
    44   20   52 1   
    45   21   22 ar  
    46   21   53 1   
    47   22   23 ar  
    48   22   54 1   
    49   23   24 1   
    50   24   25 1   
    51   24   55 1   
    52   24   56 1   
    53   25   26 1   
    54   25   30 1   
    55   25   57 1   
    56   26   27 1   
    57   27   28 2   
    58   27   29 1   
    59   29   30 1   
    60   29   58 1   
    61   30   31 2   
@<TRIPOS>SUBSTRUCTURE
     1 TDZ         1 TEMP              0 ****  ****    0 ROOT
