@<TRIPOS>MOLECULE
TDZ
   58    61     1     0     0
SMALL
bcc


@<TRIPOS>ATOM
      1 CAM         0.1600   -0.1940   -0.1910 c3        1 TDZ     -0.104400
      2 CAL         1.6570   -0.0230   -0.0550 c3        1 TDZ     -0.027100
      3 CBB         2.1020   -0.0200    1.3640 ca        1 TDZ     -0.117300
      4 CAZ         3.4020    0.3950    1.6870 ca        1 TDZ     -0.068300
      5 CAC         4.3360    0.8400    0.6270 c3        1 TDZ     -0.047800
      6 CBA         3.7950    0.3950    3.0370 ca        1 TDZ      0.093100
      7 OAG         5.0750    0.8500    3.2970 oh        1 TDZ     -0.506100
      8 CAX         2.9240   -0.0090    4.0670 ca        1 TDZ     -0.122300
      9 CAA         3.3770    0.0460    5.4780 c3        1 TDZ     -0.058800
     10 CAY         1.6400   -0.4630    3.7380 ca        1 TDZ     -0.063300
     11 CAB         0.7050   -0.9390    4.7850 c3        1 TDZ     -0.049800
     12 CBC         1.2420   -0.4530    2.3850 ca        1 TDZ      0.104100
     13 OAR        -0.0650   -0.8500    2.1500 os        1 TDZ     -0.320900
     14 CBE        -0.3770   -1.2300    0.7950 c3        1 TDZ      0.157800
     15 CAD         0.1560   -2.6230    0.5060 c3        1 TDZ     -0.110100
     16 CAN        -1.9180   -1.1940    0.7400 c3        1 TDZ      0.130400
     17 OAQ        -2.3980   -2.3540    1.4260 os        1 TDZ     -0.317900
     18 CAW        -3.7650   -2.4210    1.6010 ca        1 TDZ      0.136100
     19 CAK        -4.2030   -3.4990    2.3950 ca        1 TDZ     -0.179000
     20 CAI        -5.5630   -3.6700    2.6180 ca        1 TDZ     -0.087000
     21 CAJ        -4.6870   -1.5290    1.0400 ca        1 TDZ     -0.179000
     22 CAH        -6.0470   -1.7190    1.2760 ca        1 TDZ     -0.087000
     23 CAV        -6.4970   -2.7840    2.0620 ca        1 TDZ     -0.138300
     24 CAO        -7.9530   -2.9900    2.2890 c3        1 TDZ     -0.015100
     25 CBD        -8.5480   -1.9130    3.1720 c3        1 TDZ     -0.075600
     26 SAS        -8.7850   -0.3540    2.3000 ss        1 TDZ     -0.186700
     27 CAT       -10.5040   -0.2590    2.6580 c         1 TDZ      0.716100
     28 OAE       -11.2870    0.6360    2.3280 o         1 TDZ     -0.551500
     29 NAP       -10.9110   -1.3800    3.3990 ns        1 TDZ     -0.615500
     30 CAU        -9.9170   -2.3190    3.6970 c         1 TDZ      0.699500
     31 OAF       -10.1510   -3.3550    4.3300 o         1 TDZ     -0.570500
     32 HAM1       -0.3480    0.7870    0.0060 hc        1 TDZ      0.056200
     33 HAM2       -0.0910   -0.5120   -1.2350 hc        1 TDZ      0.056200
     34 HAL1        2.1880   -0.8530   -0.5990 hc        1 TDZ      0.057200
     35 HAL2        1.9630    0.9410   -0.5470 hc        1 TDZ      0.057200
     36 HAC1        4.3360    0.1140   -0.2240 hc        1 TDZ      0.048367
     37 HAC2        4.0230    1.8410    0.2360 hc        1 TDZ      0.048367
     38 HAC3        5.3790    0.9270    1.0210 hc        1 TDZ      0.048367
     39 HOAG        5.3580    0.4760    4.1430 ho        1 TDZ      0.417000
     40 HAA1        4.0130   -0.8450    5.7150 hc        1 TDZ      0.047033
     41 HAA2        3.9760    0.9730    5.6650 hc        1 TDZ      0.047033
     42 HAA3        2.5130    0.0560    6.1860 hc        1 TDZ      0.047033
     43 HAB1        1.2190   -1.6550    5.4730 hc        1 TDZ      0.050367
     44 HAB2        0.3300   -0.0730    5.3880 hc        1 TDZ      0.050367
     45 HAB3       -0.1770   -1.4580    4.3340 hc        1 TDZ      0.050367
     46 HAD1        1.2700   -2.6280    0.5680 hc        1 TDZ      0.054033
     47 HAD2       -0.1600   -2.9430   -0.5140 hc        1 TDZ      0.054033
     48 HAD3       -0.2480   -3.3450    1.2560 hc        1 TDZ      0.054033
     49 HAN1       -2.2530   -1.2310   -0.3290 h1        1 TDZ      0.054200
     50 HAN2       -2.2960   -0.2670    1.2440 h1        1 TDZ      0.054200
     51 HAK        -3.4630   -4.1880    2.8260 ha        1 TDZ      0.146500
     52 HAI        -5.9080   -4.5130    3.2370 ha        1 TDZ      0.140500
     53 HAJ        -4.3580   -0.6850    0.4180 ha        1 TDZ      0.146500
     54 HAH        -6.7790   -1.0190    0.8380 ha        1 TDZ      0.140500
     55 HAO1       -8.1310   -3.9860    2.7850 hc        1 TDZ      0.075200
     56 HAO2       -8.4870   -3.0080    1.3000 hc        1 TDZ      0.075200
     57 HBD        -7.8740   -1.7240    4.0490 h1        1 TDZ      0.128700
     58 HNAP      -11.8540   -1.5060    3.6870 hn        1 TDZ      0.354500
@<TRIPOS>BOND
     1    1    2 1   
     2    1   14 1   
     3    1   32 1   
     4    1   33 1   
     5    2    3 1   
     6    2   34 1   
     7    2   35 1   
     8    3    4 ar  
     9    3   12 ar  
    10    4    5 1   
    11    4    6 ar  
    12    5   36 1   
    13    5   37 1   
    14    5   38 1   
    15    6    7 1   
    16    6    8 ar  
    17    7   39 1   
    18    8    9 1   
    19    8   10 ar  
    20    9   40 1   
    21    9   41 1   
    22    9   42 1   
    23   10   11 1   
    24   10   12 ar  
    25   11   43 1   
    26   11   44 1   
    27   11   45 1   
    28   12   13 1   
    29   13   14 1   
    30   14   15 1   
    31   14   16 1   
    32   15   46 1   
    33   15   47 1   
    34   15   48 1   
    35   16   17 1   
    36   16   49 1   
    37   16   50 1   
    38   17   18 1   
    39   18   19 ar  
    40   18   21 ar  
    41   19   20 ar  
    42   19   51 1   
    43   20   23 ar  
    44   20   52 1   
    45   21   22 ar  
    46   21   53 1   
    47   22   23 ar  
    48   22   54 1   
    49   23   24 1   
    50   24   25 1   
    51   24   55 1   
    52   24   56 1   
    53   25   26 1   
    54   25   30 1   
    55   25   57 1   
    56   26   27 1   
    57   27   28 2   
    58   27   29 1   
    59   29   30 1   
    60   29   58 1   
    61   30   31 2   
@<TRIPOS>SUBSTRUCTURE
     1 TDZ         1 TEMP              0 ****  ****    0 ROOT
