@<TRIPOS>MOLECULE
TDZ
   58    61     1     0     0
SMALL
bcc


@<TRIPOS>ATOM
      1 CAM         0.1590   -0.1850   -0.1910 c3        1 TDZ     -0.104400
      2 CAL         1.6560   -0.0120   -0.0530 c3        1 TDZ     -0.027100
      3 CBB         2.0990   -0.0140    1.3660 ca        1 TDZ     -0.117300
      4 CAZ         3.3980    0.4040    1.6920 ca        1 TDZ     -0.068300
      5 CAC         4.3320    0.8540    0.6340 c3        1 TDZ     -0.047800
      6 CBA         3.7910    0.4000    3.0420 ca        1 TDZ      0.093100
      7 OAG         5.0690    0.8570    3.3040 oh        1 TDZ     -0.506100
      8 CAX         2.9190   -0.0100    4.0690 ca        1 TDZ     -0.122300
      9 CAA         3.3710    0.0410    5.4810 c3        1 TDZ     -0.058800
     10 CAY         1.6370   -0.4660    3.7380 ca        1 TDZ     -0.063300
     11 CAB         0.7020   -0.9470    4.7830 c3        1 TDZ     -0.049800
     12 CBC         1.2400   -0.4520    2.3850 ca        1 TDZ      0.104100
     13 OAR        -0.0670   -0.8500    2.1480 os        1 TDZ     -0.321900
     14 CBE        -0.3770   -1.2270    0.7910 c3        1 TDZ      0.157800
     15 CAD         0.1590   -2.6170    0.4970 c3        1 TDZ     -0.110100
     16 CAN        -1.9180   -1.1930    0.7360 c3        1 TDZ      0.130400
     17 OAQ        -2.3960   -2.3560    1.4170 os        1 TDZ     -0.317900
     18 CAW        -3.7630   -2.4240    1.5950 ca        1 TDZ      0.136100
     19 CAK        -4.1990   -3.5030    2.3880 ca        1 TDZ     -0.179000
     20 CAI        -5.5590   -3.6760    2.6130 ca        1 TDZ     -0.087000
     21 CAJ        -4.6870   -1.5310    1.0370 ca        1 TDZ     -0.179000
     22 CAH        -6.0460   -1.7230    1.2750 ca        1 TDZ     -0.087000
     23 CAV        -6.4940   -2.7890    2.0610 ca        1 TDZ     -0.138300
     24 CAO        -7.9490   -2.9960    2.2890 c3        1 TDZ     -0.015100
     25 CBD        -8.5430   -1.9210    3.1750 c3        1 TDZ     -0.075600
     26 SAS        -8.7810   -0.3600    2.3070 ss        1 TDZ     -0.186700
     27 CAT       -10.5000   -0.2660    2.6680 c         1 TDZ      0.716100
     28 OAE       -11.2840    0.6300    2.3420 o         1 TDZ     -0.551500
     29 NAP       -10.9060   -1.3880    3.4080 n         1 TDZ     -0.615500
     30 CAU        -9.9110   -2.3280    3.7020 c         1 TDZ      0.699500
     31 OAF       -10.1430   -3.3650    4.3340 o         1 TDZ     -0.570500
     32 HAM1       -0.0910   -0.5000   -1.2360 hc        1 TDZ      0.056200
     33 HAM2       -0.3520    0.7930    0.0090 hc        1 TDZ      0.056200
     34 HAL1        1.9600    0.9530   -0.5420 hc        1 TDZ      0.057200
     35 HAL2        2.1880   -0.8400   -0.5990 hc        1 TDZ      0.057200
     36 HAC1        4.3340    0.1310   -0.2200 hc        1 TDZ      0.048367
     37 HAC2        5.3750    0.9420    1.0280 hc        1 TDZ      0.048367
     38 HAC3        4.0170    1.8550    0.2460 hc        1 TDZ      0.048367
     39 HOAG        5.3520    0.4810    4.1490 ho        1 TDZ      0.417000
     40 HAA1        2.5060    0.0460    6.1890 hc        1 TDZ      0.047033
     41 HAA2        4.0100   -0.8480    5.7150 hc        1 TDZ      0.047033
     42 HAA3        3.9670    0.9690    5.6720 hc        1 TDZ      0.047033
     43 HAB1        1.2170   -1.6650    5.4690 hc        1 TDZ      0.050367
     44 HAB2       -0.1790   -1.4660    4.3290 hc        1 TDZ      0.050367
     45 HAB3        0.3250   -0.0850    5.3890 hc        1 TDZ      0.050367
     46 HAD1       -0.2450   -3.3430    1.2450 hc        1 TDZ      0.054033
     47 HAD2        1.2730   -2.6210    0.5600 hc        1 TDZ      0.054033
     48 HAD3       -0.1570   -2.9340   -0.5240 hc        1 TDZ      0.054033
     49 HAN1       -2.2980   -0.2680    1.2420 h1        1 TDZ      0.054200
     50 HAN2       -2.2520   -1.2270   -0.3340 h1        1 TDZ      0.054200
     51 HAK        -3.4580   -4.1920    2.8170 ha        1 TDZ      0.146500
     52 HAI        -5.9020   -4.5200    3.2310 ha        1 TDZ      0.140500
     53 HAJ        -4.3590   -0.6870    0.4160 ha        1 TDZ      0.146500
     54 HAH        -6.7790   -1.0220    0.8400 ha        1 TDZ      0.140500
     55 HAO1       -8.1260   -3.9930    2.7840 hc        1 TDZ      0.075200
     56 HAO2       -8.4860   -3.0120    1.3020 hc        1 TDZ      0.075200
     57 HBD        -7.8680   -1.7330    4.0520 h1        1 TDZ      0.128700
     58 HNAP      -11.8480   -1.5150    3.6980 hn        1 TDZ      0.354500
@<TRIPOS>BOND
     1    1    2 1   
     2    1   14 1   
     3    1   32 1   
     4    1   33 1   
     5    2    3 1   
     6    2   34 1   
     7    2   35 1   
     8    3    4 ar  
     9    3   12 ar  
    10    4    5 1   
    11    4    6 ar  
    12    5   36 1   
    13    5   37 1   
    14    5   38 1   
    15    6    7 1   
    16    6    8 ar  
    17    7   39 1   
    18    8    9 1   
    19    8   10 ar  
    20    9   40 1   
    21    9   41 1   
    22    9   42 1   
    23   10   11 1   
    24   10   12 ar  
    25   11   43 1   
    26   11   44 1   
    27   11   45 1   
    28   12   13 1   
    29   13   14 1   
    30   14   15 1   
    31   14   16 1   
    32   15   46 1   
    33   15   47 1   
    34   15   48 1   
    35   16   17 1   
    36   16   49 1   
    37   16   50 1   
    38   17   18 1   
    39   18   19 ar  
    40   18   21 ar  
    41   19   20 ar  
    42   19   51 1   
    43   20   23 ar  
    44   20   52 1   
    45   21   22 ar  
    46   21   53 1   
    47   22   23 ar  
    48   22   54 1   
    49   23   24 1   
    50   24   25 1   
    51   24   55 1   
    52   24   56 1   
    53   25   26 1   
    54   25   30 1   
    55   25   57 1   
    56   26   27 1   
    57   27   28 2   
    58   27   29 1   
    59   29   30 1   
    60   29   58 1   
    61   30   31 2   
@<TRIPOS>SUBSTRUCTURE
     1 TDZ         1 TEMP              0 ****  ****    0 ROOT
