@<TRIPOS>MOLECULE
TDZ
   58    57     1     0     0
SMALL
bcc


@<TRIPOS>ATOM
      1 CAM        -1.2560    2.8320   -2.7470 c3        1 TDZ     -0.184000
      2 CAL         0.1300    2.8780   -2.7000 c3        1 TDZ     -0.117000
      3 CBB         0.7680    3.0440   -1.2810 c2        1 TDZ     -0.111000
      4 CAZ         2.1340    3.1240   -1.0900 c2        1 TDZ     -0.110000
      5 CAC         3.0760    3.1480   -2.2970 c3        1 TDZ     -0.183000
      6 CBA         2.6670    3.1610    0.2290 c1        1 TDZ      0.046000
      7 OAG         4.0680    3.1720    0.4240 o         1 TDZ     -0.259000
      8 CAX         1.7830    3.1150    1.3700 c2        1 TDZ     -0.061000
      9 CAA         2.3690    3.0230    2.7890 c3        1 TDZ     -0.174000
     10 CAY         0.3770    3.0330    1.1800 c1        1 TDZ     -0.063000
     11 CAB        -0.5620    3.1750    2.3820 c3        1 TDZ     -0.174000
     12 CBC        -0.1460    2.9970   -0.1030 c1        1 TDZ      0.057000
     13 OAR        -1.5990    2.5960   -0.3480 os        1 TDZ     -0.197000
     14 CBE        -1.9340    2.1660   -1.6180 c3        1 TDZ      0.085000
     15 CAD        -3.5100    2.3700   -1.8050 c3        1 TDZ     -0.203000
     16 CAN        -1.6330    0.6600   -1.7050 c3        1 TDZ     -0.045000
     17 OAQ        -2.6870   -0.0730   -1.0800 os        1 TDZ     -0.200000
     18 CAW        -2.2690   -1.3310   -0.5160 c2        1 TDZ      0.092000
     19 CAK        -1.8150   -1.3870    0.8040 c2        1 TDZ     -0.155000
     20 CAI        -1.3630   -2.5980    1.3370 c1        1 TDZ     -0.084000
     21 CAJ        -2.2720   -2.4800   -1.3010 c1        1 TDZ     -0.203000
     22 CAH        -1.8190   -3.6960   -0.7660 c1        1 TDZ     -0.087000
     23 CAV        -1.3660   -3.7530    0.5490 c1        1 TDZ     -0.130000
     24 CAO        -0.8020   -5.1010    1.1290 c3        1 TDZ     -0.101000
     25 CBD         0.6470   -5.0460    1.1590 c3        1 TDZ     -0.252000
     26 SAS         1.1490   -4.7680    2.6790 ss        1 TDZ      0.195000
     27 CAT         1.7670   -6.1310    3.2130 c2        1 TDZ      0.189000
     28 OAE         2.0470   -6.3830    4.3640 o         1 TDZ     -0.276000
     29 NAP         2.2190   -6.9070    1.9990 n         1 TDZ     -0.395000
     30 CAU         1.2650   -6.5480    0.8460 c2        1 TDZ      0.307000
     31 OAF         0.9340   -7.2830   -0.0640 o         1 TDZ     -0.298000
     32 HAM1       -1.5820    3.7610   -2.7790 hc        1 TDZ      0.100500
     33 HAM2       -1.5070    2.3480   -3.5670 hc        1 TDZ      0.100500
     34 HAL1        0.4640    2.0430   -3.0750 hc        1 TDZ      0.092000
     35 HAL2        0.4160    3.6370   -3.2400 hc        1 TDZ      0.092000
     36 HAC1        2.6090    2.7900   -3.0860 hc        1 TDZ      0.085333
     37 HAC2        3.3560    4.0680   -2.4740 hc        1 TDZ      0.085333
     38 HAC3        3.8720    2.5920   -2.1050 hc        1 TDZ      0.085333
     39 HOAG        4.3550    4.0050    0.4430 ho        1 TDZ      0.215000
     40 HAA1        1.8940    2.3310    3.2940 hc        1 TDZ      0.089667
     41 HAA2        2.2670    3.8820    3.2390 hc        1 TDZ      0.089667
     42 HAA3        3.3130    2.7960    2.7360 hc        1 TDZ      0.089667
     43 HAB1       -0.1650    3.7900    3.0360 hc        1 TDZ      0.090333
     44 HAB2       -1.4280    3.5310    2.0810 hc        1 TDZ      0.090333
     45 HAB3       -0.6960    2.2970    2.7980 hc        1 TDZ      0.090333
     46 HAD1       -3.7450    2.2500   -2.7500 hc        1 TDZ      0.094000
     47 HAD2       -3.9910    1.7120   -1.2630 hc        1 TDZ      0.094000
     48 HAD3       -3.7570    3.2690   -1.5210 hc        1 TDZ      0.094000
     49 HAN1       -0.7910    0.4700   -1.2510 h1        1 TDZ      0.092000
     50 HAN2       -1.5640    0.3970   -2.6400 h1        1 TDZ      0.092000
     51 HAK        -1.8120   -0.5870    1.3510 ha        1 TDZ      0.153000
     52 HAI        -1.0470   -2.6370    2.2540 ha        1 TDZ      0.140000
     53 HAJ        -2.5920   -2.4400   -2.2290 ha        1 TDZ      0.139000
     54 HAH        -1.8210   -4.5010   -1.3160 ha        1 TDZ      0.135000
     55 HAO1       -1.0880   -5.8430    0.5630 hc        1 TDZ      0.114000
     56 HAO2       -1.1450   -5.2340    2.0410 hc        1 TDZ      0.114000
     57 HBD         0.8190   -4.3480    0.5000 h1        1 TDZ      0.165000
     58 HNAP        2.9970   -7.3880    1.9260 hn        1 TDZ      0.268000
@<TRIPOS>BOND
     1    1    2 1   
     2    1   14 1   
     3    1   32 1   
     4    1   33 1   
     5    2    3 1   
     6    2   34 1   
     7    2   35 1   
     8    3    4 1   
     9    3   12 1   
    10    4    5 1   
    11    4    6 1   
    12    5   36 1   
    13    5   37 1   
    14    5   38 1   
    15    6    8 1   
    16    7   39 1   
    17    8    9 1   
    18    8   10 1   
    19    9   40 1   
    20    9   41 1   
    21    9   42 1   
    22   10   11 1   
    23   11   43 1   
    24   11   44 1   
    25   11   45 1   
    26   12   13 1   
    27   13   14 1   
    28   14   15 1   
    29   14   16 1   
    30   15   46 1   
    31   15   47 1   
    32   15   48 1   
    33   16   17 1   
    34   16   49 1   
    35   16   50 1   
    36   17   18 1   
    37   18   19 1   
    38   18   21 1   
    39   19   20 1   
    40   19   51 1   
    41   20   52 1   
    42   21   53 1   
    43   22   23 1   
    44   22   54 1   
    45   23   24 1   
    46   24   25 1   
    47   24   55 1   
    48   24   56 1   
    49   25   26 1   
    50   25   30 1   
    51   25   57 1   
    52   26   27 1   
    53   27   28 1   
    54   27   29 1   
    55   29   30 1   
    56   29   58 1   
    57   30   31 1   
@<TRIPOS>SUBSTRUCTURE
     1 TDZ         1 TEMP              0 ****  ****    0 ROOT
