@<TRIPOS>MOLECULE
TDZ
   58    61     1     0     0
SMALL
bcc


@<TRIPOS>ATOM
      1 CAM         0.1590   -0.1790   -0.1900 c3        1 TDZ     -0.104400
      2 CAL         1.6570   -0.0090   -0.0540 c3        1 TDZ     -0.027100
      3 CBB         2.1030   -0.0190    1.3640 ca        1 TDZ     -0.117300
      4 CAZ         3.4030    0.3930    1.6890 ca        1 TDZ     -0.068300
      5 CAC         4.3360    0.8460    0.6320 c3        1 TDZ     -0.047800
      6 CBA         3.7990    0.3810    3.0380 ca        1 TDZ      0.093100
      7 OAG         5.0780    0.8340    3.3000 oh        1 TDZ     -0.506100
      8 CAX         2.9280   -0.0310    4.0660 ca        1 TDZ     -0.122300
      9 CAA         3.3830    0.0110    5.4760 c3        1 TDZ     -0.058800
     10 CAY         1.6440   -0.4820    3.7350 ca        1 TDZ     -0.063300
     11 CAB         0.7100   -0.9660    4.7790 c3        1 TDZ     -0.049800
     12 CBC         1.2440   -0.4600    2.3820 ca        1 TDZ      0.104100
     13 OAR        -0.0640   -0.8540    2.1460 os        1 TDZ     -0.320900
     14 CBE        -0.3780   -1.2240    0.7880 c3        1 TDZ      0.157800
     15 CAD         0.1550   -2.6140    0.4860 c3        1 TDZ     -0.110100
     16 CAN        -1.9180   -1.1860    0.7350 c3        1 TDZ      0.130400
     17 OAQ        -2.3980   -2.3510    1.4120 os        1 TDZ     -0.317900
     18 CAW        -3.7650   -2.4180    1.5900 ca        1 TDZ      0.136100
     19 CAK        -4.2020   -3.5010    2.3770 ca        1 TDZ     -0.179000
     20 CAI        -5.5620   -3.6730    2.6020 ca        1 TDZ     -0.087000
     21 CAJ        -4.6880   -1.5210    1.0380 ca        1 TDZ     -0.179000
     22 CAH        -6.0470   -1.7120    1.2760 ca        1 TDZ     -0.087000
     23 CAV        -6.4950   -2.7820    2.0560 ca        1 TDZ     -0.138300
     24 CAO        -7.9510   -2.9880    2.2850 c3        1 TDZ     -0.015100
     25 CBD        -8.5430   -1.9160    3.1770 c3        1 TDZ     -0.075600
     26 SAS        -8.7800   -0.3510    2.3180 ss        1 TDZ     -0.186700
     27 CAT       -10.4980   -0.2570    2.6810 c         1 TDZ      0.716100
     28 OAE       -11.2810    0.6430    2.3610 o         1 TDZ     -0.551500
     29 NAP       -10.9040   -1.3820    3.4150 n         1 TDZ     -0.615500
     30 CAU        -9.9110   -2.3250    3.7030 c         1 TDZ      0.699500
     31 OAF       -10.1440   -3.3650    4.3290 o         1 TDZ     -0.570500
     32 HAM1       -0.3490    0.8000    0.0160 hc        1 TDZ      0.056200
     33 HAM2       -0.0940   -0.4880   -1.2360 hc        1 TDZ      0.056200
     34 HAL1        2.1860   -0.8350   -0.6060 hc        1 TDZ      0.057200
     35 HAL2        1.9620    0.9580   -0.5390 hc        1 TDZ      0.057200
     36 HAC1        4.0230    1.8500    0.2490 hc        1 TDZ      0.048367
     37 HAC2        5.3800    0.9300    1.0240 hc        1 TDZ      0.048367
     38 HAC3        4.3350    0.1280   -0.2260 hc        1 TDZ      0.048367
     39 HOAG        5.3620    0.4520    4.1430 ho        1 TDZ      0.417000
     40 HAA1        3.9820    0.9370    5.6710 hc        1 TDZ      0.047033
     41 HAA2        2.5200    0.0150    6.1860 hc        1 TDZ      0.047033
     42 HAA3        4.0200   -0.8810    5.7050 hc        1 TDZ      0.047033
     43 HAB1       -0.1730   -1.4810    4.3240 hc        1 TDZ      0.050367
     44 HAB2        1.2250   -1.6880    5.4600 hc        1 TDZ      0.050367
     45 HAB3        0.3360   -0.1060    5.3890 hc        1 TDZ      0.050367
     46 HAD1        1.2690   -2.6200    0.5470 hc        1 TDZ      0.054033
     47 HAD2       -0.2490   -3.3420    1.2310 hc        1 TDZ      0.054033
     48 HAD3       -0.1630   -2.9250   -0.5360 hc        1 TDZ      0.054033
     49 HAN1       -2.2550   -1.2140   -0.3340 h1        1 TDZ      0.054200
     50 HAN2       -2.2950   -0.2630    1.2470 h1        1 TDZ      0.054200
     51 HAK        -3.4620   -4.1940    2.8020 ha        1 TDZ      0.146500
     52 HAI        -5.9060   -4.5200    3.2160 ha        1 TDZ      0.140500
     53 HAJ        -4.3590   -0.6730    0.4220 ha        1 TDZ      0.146500
     54 HAH        -6.7790   -1.0070    0.8450 ha        1 TDZ      0.140500
     55 HAO1       -8.1290   -3.9870    2.7740 hc        1 TDZ      0.075200
     56 HAO2       -8.4880   -2.9970    1.2970 hc        1 TDZ      0.075200
     57 HBD        -7.8660   -1.7350    4.0540 h1        1 TDZ      0.128700
     58 HNAP      -11.8470   -1.5090    3.7050 hn        1 TDZ      0.354500
@<TRIPOS>BOND
     1    1    2 1   
     2    1   14 1   
     3    1   32 1   
     4    1   33 1   
     5    2    3 1   
     6    2   34 1   
     7    2   35 1   
     8    3    4 ar  
     9    3   12 ar  
    10    4    5 1   
    11    4    6 ar  
    12    5   36 1   
    13    5   37 1   
    14    5   38 1   
    15    6    7 1   
    16    6    8 ar  
    17    7   39 1   
    18    8    9 1   
    19    8   10 ar  
    20    9   40 1   
    21    9   41 1   
    22    9   42 1   
    23   10   11 1   
    24   10   12 ar  
    25   11   43 1   
    26   11   44 1   
    27   11   45 1   
    28   12   13 1   
    29   13   14 1   
    30   14   15 1   
    31   14   16 1   
    32   15   46 1   
    33   15   47 1   
    34   15   48 1   
    35   16   17 1   
    36   16   49 1   
    37   16   50 1   
    38   17   18 1   
    39   18   19 ar  
    40   18   21 ar  
    41   19   20 ar  
    42   19   51 1   
    43   20   23 ar  
    44   20   52 1   
    45   21   22 ar  
    46   21   53 1   
    47   22   23 ar  
    48   22   54 1   
    49   23   24 1   
    50   24   25 1   
    51   24   55 1   
    52   24   56 1   
    53   25   26 1   
    54   25   30 1   
    55   25   57 1   
    56   26   27 1   
    57   27   28 2   
    58   27   29 1   
    59   29   30 1   
    60   29   58 1   
    61   30   31 2   
@<TRIPOS>SUBSTRUCTURE
     1 TDZ         1 TEMP              0 ****  ****    0 ROOT
