@<TRIPOS>MOLECULE
TE1
   39    39     1     0     0
SMALL
bcc


@<TRIPOS>ATOM
      1 CAA         0.1910   -0.7300    0.0230 c3        1 TE1     -0.087600
      2 OAB         4.2910   -0.7270    0.6600 oh        1 TE1     -0.614800
      3 OAC         4.5590    2.6050    2.6240 os        1 TE1     -0.332900
      4 CAD         5.2260    3.7530    3.1240 c3        1 TE1      0.120700
      5 CAE         1.2840    1.4620   -0.3930 c3        1 TE1     -0.087600
      6 CAF         1.4990    0.0330    0.0580 c3        1 TE1     -0.067700
      7 CAG         2.1020   -0.0240    1.4540 c3        1 TE1     -0.113400
      8 CAH         3.6090    0.2430    1.4420 c3        1 TE1      0.204400
      9 CAI         4.1300    0.2830    2.8510 ca        1 TE1     -0.167300
     10 CAJ         4.6070    1.4740    3.4270 ca        1 TE1      0.140100
     11 CAK         5.0790    1.4920    4.7430 ca        1 TE1     -0.296000
     12 OAL         1.5600   -3.5780    5.0630 o         1 TE1     -0.836800
     13 OAM         3.0290   -3.7290    3.3940 o         1 TE1     -0.836800
     14 CAN         2.7360   -3.5130    4.6100 c         1 TE1      0.894800
     15 CAO         4.1330   -0.8830    3.6200 ca        1 TE1     -0.071000
     16 CAP         4.5860   -0.9090    4.9440 ca        1 TE1     -0.043800
     17 CAQ         5.0670    0.3040    5.4870 ca        1 TE1      0.131100
     18 OAR         5.5400    0.2800    6.7840 oh        1 TE1     -0.498100
     19 CAS         3.8440   -3.2180    5.5920 ce        1 TE1     -0.154200
     20 CAT         4.5980   -2.1230    5.7390 cf        1 TE1     -0.167200
     21 HAA        -0.5370   -0.2910    0.7460 hc        1 TE1      0.028033
     22 HAAA        0.3580   -1.8000    0.2980 hc        1 TE1      0.028033
     23 HAAB       -0.2550   -0.6890   -1.0000 hc        1 TE1      0.028033
     24 HOAB        4.1470   -1.5890    1.0740 ho        1 TE1      0.418000
     25 HAD         6.2950    3.5270    3.3590 h1        1 TE1      0.032367
     26 HADA        4.7050    4.1480    4.0300 h1        1 TE1      0.032367
     27 HADB        5.1570    4.4880    2.2820 h1        1 TE1      0.032367
     28 HAE         0.5580    1.9820    0.2790 hc        1 TE1      0.028033
     29 HAEA        0.8790    1.4840   -1.4330 hc        1 TE1      0.028033
     30 HAEB        2.2470    2.0270   -0.3760 hc        1 TE1      0.028033
     31 HAF         2.2240   -0.4620   -0.6510 hc        1 TE1      0.059700
     32 HAG         1.6060    0.7300    2.1160 hc        1 TE1      0.065700
     33 HAGA        1.9220   -1.0400    1.9000 hc        1 TE1      0.065700
     34 HAH         3.8330    1.2140    0.9140 h1        1 TE1      0.073700
     35 HAK         5.4520    2.4150    5.2030 ha        1 TE1      0.119000
     36 HAO         3.7550   -1.8310    3.1770 ha        1 TE1      0.212000
     37 HOAR        5.7750    1.1860    7.0260 ho        1 TE1      0.399000
     38 HAS         3.9940   -4.0540    6.2990 ha        1 TE1      0.100000
     39 HAT         5.3270   -2.0860    6.5710 ha        1 TE1      0.102000
@<TRIPOS>BOND
     1    1    6 1   
     2    1   21 1   
     3    1   22 1   
     4    1   23 1   
     5    2    8 1   
     6    2   24 1   
     7    3    4 1   
     8    3   10 1   
     9    4   25 1   
    10    4   26 1   
    11    4   27 1   
    12    5    6 1   
    13    5   28 1   
    14    5   29 1   
    15    5   30 1   
    16    6    7 1   
    17    6   31 1   
    18    7    8 1   
    19    7   32 1   
    20    7   33 1   
    21    8    9 1   
    22    8   34 1   
    23    9   10 ar  
    24    9   15 ar  
    25   10   11 ar  
    26   11   17 ar  
    27   11   35 1   
    28   12   14 1   
    29   13   14 1   
    30   14   19 1   
    31   15   16 ar  
    32   15   36 1   
    33   16   17 ar  
    34   16   20 1   
    35   17   18 1   
    36   18   37 1   
    37   19   20 2   
    38   19   38 1   
    39   20   39 1   
@<TRIPOS>SUBSTRUCTURE
     1 TE1         1 TEMP              0 ****  ****    0 ROOT
