@<TRIPOS>MOLECULE
TE1
   39    39     1     0     0
SMALL
bcc


@<TRIPOS>ATOM
      1 CAA         3.7240   -2.7040   -0.8050 c3        1 TE1     -0.087600
      2 OAB         1.8440   -0.4030    2.0940 oh        1 TE1     -0.613800
      3 OAC         1.4480    2.8990    0.1430 os        1 TE1     -0.333900
      4 CAD         1.2800    4.2720   -0.1740 c3        1 TE1      0.119700
      5 CAE         4.6500   -0.4140   -0.5370 c3        1 TE1     -0.087600
      6 CAF         3.5840   -1.3850   -0.0730 c3        1 TE1     -0.067700
      7 CAG         2.1880   -0.8180   -0.2790 c3        1 TE1     -0.117400
      8 CAH         1.8100    0.1950    0.8050 c3        1 TE1      0.204400
      9 CAI         0.4580    0.7750    0.5020 ca        1 TE1     -0.172300
     10 CAJ         0.2930    2.1300    0.1530 ca        1 TE1      0.140100
     11 CAK        -0.9660    2.6410   -0.1750 ca        1 TE1     -0.247000
     12 OAL        -2.2840   -3.0060   -1.7890 o         1 TE1     -0.832300
     13 OAM        -1.1460   -2.9920    0.1320 o         1 TE1     -0.832300
     14 CAN        -2.1160   -2.6270   -0.5970 c         1 TE1      0.898800
     15 CAO        -0.6690   -0.0470    0.5420 ca        1 TE1     -0.057000
     16 CAP        -1.9480    0.4280    0.2320 ca        1 TE1     -0.103800
     17 CAQ        -2.0740    1.7820   -0.1420 ca        1 TE1      0.142100
     18 OAR        -3.2790    2.3580   -0.4880 oh        1 TE1     -0.523100
     19 CAS        -3.1820   -1.7340   -0.0010 ce        1 TE1     -0.142200
     20 CAT        -3.1120   -0.4380    0.3190 cf        1 TE1     -0.194200
     21 HAA         4.7470   -3.1260   -0.6540 hc        1 TE1      0.028200
     22 HAAA        2.9730   -3.4390   -0.4260 hc        1 TE1      0.028200
     23 HAAB        3.5550   -2.5630   -1.8990 hc        1 TE1      0.028200
     24 HOAB        1.1950   -1.1180    2.0960 ho        1 TE1      0.410000
     25 HAD         2.3160    4.6900   -0.0960 h1        1 TE1      0.034367
     26 HADA        0.8860    4.3940   -1.2130 h1        1 TE1      0.034367
     27 HADB        0.6000    4.7710    0.5590 h1        1 TE1      0.034367
     28 HAE         4.5570    0.5570    0.0070 hc        1 TE1      0.028200
     29 HAEA        5.6670   -0.8330   -0.3450 hc        1 TE1      0.028200
     30 HAEB        4.5510   -0.2160   -1.6320 hc        1 TE1      0.028200
     31 HAF         3.7240   -1.5690    1.0310 hc        1 TE1      0.056700
     32 HAG         2.1220   -0.3170   -1.2780 hc        1 TE1      0.070200
     33 HAGA        1.4350   -1.6540   -0.2680 hc        1 TE1      0.070200
     34 HAH         2.5840    1.0120    0.8720 h1        1 TE1      0.075700
     35 HAK        -1.1150    3.6880   -0.4650 ha        1 TE1      0.136000
     36 HAO        -0.5600   -1.1230    0.7970 ha        1 TE1      0.205000
     37 HOAR       -3.9090    1.6400   -0.6530 ho        1 TE1      0.427000
     38 HAS        -4.1390   -2.2660    0.1410 ha        1 TE1      0.100000
     39 HAT        -4.0100    0.0650    0.7260 ha        1 TE1      0.082000
@<TRIPOS>BOND
     1    1    6 1   
     2    1   21 1   
     3    1   22 1   
     4    1   23 1   
     5    2    8 1   
     6    2   24 1   
     7    3    4 1   
     8    3   10 1   
     9    4   25 1   
    10    4   26 1   
    11    4   27 1   
    12    5    6 1   
    13    5   28 1   
    14    5   29 1   
    15    5   30 1   
    16    6    7 1   
    17    6   31 1   
    18    7    8 1   
    19    7   32 1   
    20    7   33 1   
    21    8    9 1   
    22    8   34 1   
    23    9   10 ar  
    24    9   15 ar  
    25   10   11 ar  
    26   11   17 ar  
    27   11   35 1   
    28   12   14 1   
    29   13   14 1   
    30   14   19 1   
    31   15   16 ar  
    32   15   36 1   
    33   16   17 ar  
    34   16   20 1   
    35   17   18 1   
    36   18   37 1   
    37   19   20 2   
    38   19   38 1   
    39   20   39 1   
@<TRIPOS>SUBSTRUCTURE
     1 TE1         1 TEMP              0 ****  ****    0 ROOT
