@<TRIPOS>MOLECULE
TE1
   39    39     1     0     0
SMALL
bcc


@<TRIPOS>ATOM
      1 CAA        -0.0260   -0.4750    0.0060 c3        1 TE1     -0.087100
      2 OAB         4.0070   -0.9320    0.8400 oh        1 TE1     -0.613800
      3 OAC         4.7390    2.4720    2.4950 os        1 TE1     -0.335900
      4 CAD         5.7980    3.3740    2.7780 c3        1 TE1      0.120700
      5 CAE         1.3180    1.5600   -0.4680 c3        1 TE1     -0.087100
      6 CAF         1.3570    0.1410    0.0600 c3        1 TE1     -0.069700
      7 CAG         1.9010    0.0920    1.4800 c3        1 TE1     -0.107400
      8 CAH         3.4300    0.1770    1.5110 c3        1 TE1      0.206400
      9 CAI         3.9130    0.2840    2.9290 ca        1 TE1     -0.167300
     10 CAJ         4.5910    1.4230    3.3940 ca        1 TE1      0.138100
     11 CAK         5.0440    1.4970    4.7160 ca        1 TE1     -0.292000
     12 OAL         4.8350   -4.6750    4.2820 o         1 TE1     -0.835800
     13 OAM         2.9700   -3.6910    3.5620 o         1 TE1     -0.835800
     14 CAN         3.8730   -3.8730    4.4350 c         1 TE1      0.896800
     15 CAO         3.6960   -0.7760    3.8140 ca        1 TE1     -0.075000
     16 CAP         4.1500   -0.7530    5.1370 ca        1 TE1     -0.042800
     17 CAQ         4.8210    0.4120    5.5730 ca        1 TE1      0.131100
     18 OAR         5.2390    0.4530    6.8880 oh        1 TE1     -0.497100
     19 CAS         3.7810   -3.1550    5.7600 ce        1 TE1     -0.154200
     20 CAT         3.9230   -1.8570    6.0510 cf        1 TE1     -0.167200
     21 HAA        -0.7250    0.0720    0.6840 hc        1 TE1      0.027033
     22 HAAA       -0.4320   -0.4280   -1.0330 hc        1 TE1      0.027033
     23 HAAB        0.0130   -1.5440    0.3260 hc        1 TE1      0.027033
     24 HOAB        3.8490   -1.7220    1.3780 ho        1 TE1      0.430000
     25 HAD         6.7460    2.8310    3.0110 h1        1 TE1      0.033033
     26 HADA        5.9040    3.9680    1.8350 h1        1 TE1      0.033033
     27 HADB        5.5180    4.0450    3.6270 h1        1 TE1      0.033033
     28 HAE         0.9590    1.5700   -1.5260 hc        1 TE1      0.027033
     29 HAEA        2.3360    2.0170   -0.4340 hc        1 TE1      0.027033
     30 HAEB        0.6280    2.1890    0.1440 hc        1 TE1      0.027033
     31 HAF         2.0470   -0.4680   -0.5930 hc        1 TE1      0.066700
     32 HAG         1.4780    0.9360    2.0810 hc        1 TE1      0.055200
     33 HAGA        1.5880   -0.8690    1.9670 hc        1 TE1      0.055200
     34 HAH         3.7810    1.0650    0.9110 h1        1 TE1      0.073700
     35 HAK         5.5700    2.3870    5.0840 ha        1 TE1      0.120000
     36 HAO         3.1560   -1.6820    3.4610 ha        1 TE1      0.215000
     37 HOAR        5.7340    1.2740    7.0120 ho        1 TE1      0.399000
     38 HAS         3.6120   -3.8600    6.5940 ha        1 TE1      0.100000
     39 HAT         3.8910   -1.5380    7.1110 ha        1 TE1      0.101000
@<TRIPOS>BOND
     1    1    6 1   
     2    1   21 1   
     3    1   22 1   
     4    1   23 1   
     5    2    8 1   
     6    2   24 1   
     7    3    4 1   
     8    3   10 1   
     9    4   25 1   
    10    4   26 1   
    11    4   27 1   
    12    5    6 1   
    13    5   28 1   
    14    5   29 1   
    15    5   30 1   
    16    6    7 1   
    17    6   31 1   
    18    7    8 1   
    19    7   32 1   
    20    7   33 1   
    21    8    9 1   
    22    8   34 1   
    23    9   10 ar  
    24    9   15 ar  
    25   10   11 ar  
    26   11   17 ar  
    27   11   35 1   
    28   12   14 1   
    29   13   14 1   
    30   14   19 1   
    31   15   16 ar  
    32   15   36 1   
    33   16   17 ar  
    34   16   20 1   
    35   17   18 1   
    36   18   37 1   
    37   19   20 2   
    38   19   38 1   
    39   20   39 1   
@<TRIPOS>SUBSTRUCTURE
     1 TE1         1 TEMP              0 ****  ****    0 ROOT
