@<TRIPOS>MOLECULE
TE4
   44    44     1     0     0
SMALL
bcc


@<TRIPOS>ATOM
      1 O2          1.2980    0.9430    0.7650 o         1 TE4     -0.635000
      2 C7          2.1200    0.1120    0.3380 c         1 TE4      0.690700
      3 O1          2.6780   -0.7060    1.3090 os        1 TE4     -0.443900
      4 C8          2.0100   -0.8060    2.5580 c3        1 TE4      0.123400
      5 C9          2.5740    0.1900    3.5750 c3        1 TE4      0.076800
      6 N1          2.1370    1.6070    3.3620 n4        1 TE4     -0.681400
      7 C14         0.7010    1.7950    3.6970 c3        1 TE4      0.084600
      8 C15         2.9880    2.5380    4.1440 c3        1 TE4      0.084600
      9 C4          2.6120   -0.0990   -1.0020 ca        1 TE4     -0.257600
     10 C5          3.5480   -1.1060   -1.3020 ca        1 TE4      0.003000
     11 C6          3.9940   -1.2930   -2.5930 ca        1 TE4     -0.241500
     12 C1          3.5120   -0.4700   -3.6590 ca        1 TE4      0.270600
     13 C2          2.5600    0.5450   -3.3400 ca        1 TE4     -0.241500
     14 C3          2.1260    0.7180   -2.0420 ca        1 TE4      0.003000
     15 N2          3.9690   -0.6640   -4.9300 nh        1 TE4     -0.755600
     16 C10         3.5030    0.1010   -6.0580 c3        1 TE4      0.207800
     17 C11         4.1380   -0.3320   -7.3790 c3        1 TE4     -0.095400
     18 C12         3.6000    0.5210   -8.5090 c3        1 TE4     -0.077400
     19 C13         4.2070    0.1200   -9.8290 c3        1 TE4     -0.096100
     20 H1          2.2670   -1.8440    2.9180 h1        1 TE4      0.099200
     21 H2          0.9000   -0.7020    2.4360 h1        1 TE4      0.099200
     22 H3          2.2570   -0.1240    4.6100 hx        1 TE4      0.107700
     23 H4          3.7010    0.1680    3.5130 hx        1 TE4      0.107700
     24 H6          0.0790    1.2240    2.9520 hx        1 TE4      0.102867
     25 H7          0.4450    2.8860    3.6230 hx        1 TE4      0.102867
     26 H8          0.4990    1.4290    4.7370 hx        1 TE4      0.102867
     27 H9          2.8900    2.3100    5.2390 hx        1 TE4      0.102867
     28 H10         2.6580    3.5930    3.9500 hx        1 TE4      0.102867
     29 H11         4.0600    2.4190    3.8300 hx        1 TE4      0.102867
     30 H12         3.9250   -1.7520   -0.4920 ha        1 TE4      0.149500
     31 H13         4.7260   -2.0870   -2.8040 ha        1 TE4      0.150000
     32 H14         2.1630    1.1960   -4.1330 ha        1 TE4      0.150000
     33 H15         1.3860    1.5020   -1.8070 ha        1 TE4      0.149500
     34 H16         4.6140   -1.4000   -5.1000 hn        1 TE4      0.445800
     35 H17         2.3810   -0.0020   -6.1390 h1        1 TE4      0.050700
     36 H18         3.7330    1.1930   -5.8800 h1        1 TE4      0.050700
     37 H19         5.2540   -0.2240   -7.3260 hc        1 TE4      0.053700
     38 H20         3.9120   -1.4110   -7.5820 hc        1 TE4      0.053700
     39 H21         2.4840    0.4160   -8.5610 hc        1 TE4      0.044700
     40 H22         3.8230    1.6010   -8.3050 hc        1 TE4      0.044700
     41 H23         5.3170    0.2410   -9.8070 hc        1 TE4      0.041033
     42 H24         3.7990    0.7580  -10.6500 hc        1 TE4      0.041033
     43 H25         3.9750   -0.9470  -10.0640 hc        1 TE4      0.041033
     44 H111        2.2460    1.8190    2.3510 hn        1 TE4      0.480800
@<TRIPOS>BOND
     1    1    2 2   
     2    2    3 1   
     3    2    9 1   
     4    3    4 1   
     5    4    5 1   
     6    4   20 1   
     7    4   21 1   
     8    5    6 1   
     9    5   22 1   
    10    5   23 1   
    11    6    7 1   
    12    6    8 1   
    13    6   44 1   
    14    7   24 1   
    15    7   25 1   
    16    7   26 1   
    17    8   27 1   
    18    8   28 1   
    19    8   29 1   
    20    9   10 ar  
    21    9   14 ar  
    22   10   11 ar  
    23   10   30 1   
    24   11   12 ar  
    25   11   31 1   
    26   12   13 ar  
    27   12   15 1   
    28   13   14 ar  
    29   13   32 1   
    30   14   33 1   
    31   15   16 1   
    32   15   34 1   
    33   16   17 1   
    34   16   35 1   
    35   16   36 1   
    36   17   18 1   
    37   17   37 1   
    38   17   38 1   
    39   18   19 1   
    40   18   39 1   
    41   18   40 1   
    42   19   41 1   
    43   19   42 1   
    44   19   43 1   
@<TRIPOS>SUBSTRUCTURE
     1 TE4         1 TEMP              0 ****  ****    0 ROOT
