@<TRIPOS>MOLECULE
TE4
   44    44     1     0     0
SMALL
bcc


@<TRIPOS>ATOM
      1 O2          1.3090    0.9360    0.7730 o         1 TE4     -0.635000
      2 C7          2.1320    0.1080    0.3410 c         1 TE4      0.690700
      3 O1          2.6970   -0.7080    1.3100 os        1 TE4     -0.443900
      4 C8          2.0350   -0.8120    2.5620 c3        1 TE4      0.123400
      5 C9          2.6000    0.1860    3.5770 c3        1 TE4      0.076800
      6 N1          2.1560    1.6010    3.3670 nx        1 TE4     -0.681400
      7 C14         0.7210    1.7830    3.7080 c3        1 TE4      0.084600
      8 C15         3.0070    2.5340    4.1460 c3        1 TE4      0.084600
      9 C4          2.6180   -0.1000   -1.0010 ca        1 TE4     -0.257600
     10 C5          3.5570   -1.1030   -1.3060 ca        1 TE4      0.003000
     11 C6          3.9980   -1.2870   -2.5990 ca        1 TE4     -0.241500
     12 C1          3.5070   -0.4650   -3.6620 ca        1 TE4      0.270600
     13 C2          2.5540    0.5450   -3.3380 ca        1 TE4     -0.241500
     14 C3          2.1250    0.7160   -2.0380 ca        1 TE4      0.003000
     15 N2          3.9590   -0.6570   -4.9360 nu        1 TE4     -0.755600
     16 C10         3.4850    0.1070   -6.0610 c3        1 TE4      0.207800
     17 C11         4.1150   -0.3240   -7.3850 c3        1 TE4     -0.095400
     18 C12         3.5670    0.5260   -8.5130 c3        1 TE4     -0.077400
     19 C13         4.1680    0.1280   -9.8360 c3        1 TE4     -0.096100
     20 H1          0.9240   -0.7130    2.4440 h1        1 TE4      0.099200
     21 H2          2.2990   -1.8490    2.9190 h1        1 TE4      0.099200
     22 H3          3.7270    0.1680    3.5090 hx        1 TE4      0.107700
     23 H4          2.2890   -0.1300    4.6120 hx        1 TE4      0.107700
     24 H6          0.0980    1.2100    2.9660 hx        1 TE4      0.102867
     25 H7          0.5250    1.4150    4.7490 hx        1 TE4      0.102867
     26 H8          0.4600    2.8730    3.6370 hx        1 TE4      0.102867
     27 H9          4.0780    2.4210    3.8270 hx        1 TE4      0.102867
     28 H10         2.9140    2.3050    5.2400 hx        1 TE4      0.102867
     29 H11         2.6710    3.5890    3.9540 hx        1 TE4      0.102867
     30 H12         3.9410   -1.7480   -0.4980 ha        1 TE4      0.149500
     31 H13         4.7320   -2.0790   -2.8140 ha        1 TE4      0.150000
     32 H14         2.1500    1.1960   -4.1290 ha        1 TE4      0.150000
     33 H15         1.3820    1.4960   -1.7990 ha        1 TE4      0.149500
     34 H16         4.6070   -1.3910   -5.1090 hn        1 TE4      0.445800
     35 H17         3.7120    1.1990   -5.8840 h1        1 TE4      0.050700
     36 H18         2.3630   -0.0010   -6.1360 h1        1 TE4      0.050700
     37 H19         3.8910   -1.4040   -7.5880 hc        1 TE4      0.053700
     38 H20         5.2300   -0.2120   -7.3390 hc        1 TE4      0.053700
     39 H21         3.7870    1.6080   -8.3090 hc        1 TE4      0.044700
     40 H22         2.4510    0.4170   -8.5580 hc        1 TE4      0.044700
     41 H23         3.7530    0.7640  -10.6540 hc        1 TE4      0.041033
     42 H24         3.9390   -0.9400  -10.0690 hc        1 TE4      0.041033
     43 H25         5.2780    0.2530   -9.8200 hc        1 TE4      0.041033
     44 H111        2.2600    1.8140    2.3550 hn        1 TE4      0.480800
@<TRIPOS>BOND
     1    1    2 2   
     2    2    3 1   
     3    2    9 1   
     4    3    4 1   
     5    4    5 1   
     6    4   20 1   
     7    4   21 1   
     8    5    6 1   
     9    5   22 1   
    10    5   23 1   
    11    6    7 1   
    12    6    8 1   
    13    6   44 1   
    14    7   24 1   
    15    7   25 1   
    16    7   26 1   
    17    8   27 1   
    18    8   28 1   
    19    8   29 1   
    20    9   10 ar  
    21    9   14 ar  
    22   10   11 ar  
    23   10   30 1   
    24   11   12 ar  
    25   11   31 1   
    26   12   13 ar  
    27   12   15 1   
    28   13   14 ar  
    29   13   32 1   
    30   14   33 1   
    31   15   16 1   
    32   15   34 1   
    33   16   17 1   
    34   16   35 1   
    35   16   36 1   
    36   17   18 1   
    37   17   37 1   
    38   17   38 1   
    39   18   19 1   
    40   18   39 1   
    41   18   40 1   
    42   19   41 1   
    43   19   42 1   
    44   19   43 1   
@<TRIPOS>SUBSTRUCTURE
     1 TE4         1 TEMP              0 ****  ****    0 ROOT
