@<TRIPOS>MOLECULE
TE7
   47    50     1     0     0
SMALL
bcc


@<TRIPOS>ATOM
      1 CAA         2.0950   -1.8510   -0.6000 c3        1 TE7      0.102700
      2 CAB        10.7640    1.0070    0.3510 c3        1 TE7      0.081100
      3 CAC        10.1950   -1.1110    1.4280 c3        1 TE7      0.081100
      4 OAD         7.2110    0.6090    2.3260 o         1 TE7     -0.711100
      5 CAE         2.5010   -1.2620    2.1320 ca        1 TE7     -0.115000
      6 CAF         7.7000    1.7770    6.5210 ca        1 TE7     -0.125000
      7 CAG         6.6410    1.4800    7.3960 ca        1 TE7     -0.001000
      8 CAH         2.7460   -0.9340    3.4590 ca        1 TE7     -0.108000
      9 CAI         3.5580   -0.0650    6.4130 cc        1 TE7      0.515700
     10 CAJ         4.7220   -0.4690    1.5180 ca        1 TE7     -0.081000
     11 CAK         9.6840    0.7120    4.0120 c3        1 TE7      0.089800
     12 CAL        10.6020    0.9020    2.7960 c3        1 TE7      0.079800
     13 NAM         4.2660    0.4450    7.4300 nd        1 TE7     -0.508100
     14 NAN         8.7540    1.8570    4.2630 n4        1 TE7     -0.630400
     15 OAO         3.3530   -1.3190   -0.1770 os        1 TE7     -0.311900
     16 CAP         3.4860   -1.0310    1.1570 ca        1 TE7      0.135100
     17 CAQ         7.6450    1.4750    5.1500 ca        1 TE7     -0.007400
     18 CAR         6.2960    0.4490    3.1710 c         1 TE7      0.653300
     19 CAS         5.5020    0.8690    6.8840 ca        1 TE7      0.131400
     20 CAT         4.9890   -0.1350    2.8500 ca        1 TE7     -0.172600
     21 CAU         3.9780   -0.3700    3.8380 ca        1 TE7      0.027800
     22 CAV         6.5190    0.8390    4.5720 ca        1 TE7     -0.176600
     23 CAW         5.4850    0.5680    5.4590 ca        1 TE7     -0.043200
     24 NAX        10.0620    0.3710    1.5040 n4        1 TE7     -0.690400
     25 NAY         4.2590   -0.0220    5.1680 na        1 TE7     -0.080400
     26 HAA         1.9050   -2.8380   -0.1120 h1        1 TE7      0.067033
     27 HAAA        2.2350   -1.9740   -1.7050 h1        1 TE7      0.067033
     28 HAAB        1.2710   -1.1290   -0.3820 h1        1 TE7      0.067033
     29 HAB        11.8670    0.8080    0.4210 hx        1 TE7      0.115200
     30 HABA       10.3660    0.5670   -0.6050 hx        1 TE7      0.115200
     31 HABB       10.5750    2.1140    0.3570 hx        1 TE7      0.115200
     32 HAC         9.6690   -1.5820    2.3000 hx        1 TE7      0.115200
     33 HACA       11.2820   -1.3980    1.4360 hx        1 TE7      0.115200
     34 HACB        9.7220   -1.4710    0.4730 hx        1 TE7      0.115200
     35 HAE         1.5270   -1.7010    1.8550 ha        1 TE7      0.179000
     36 HAF         8.5870    2.2750    6.9520 ha        1 TE7      0.166000
     37 HAG         6.7190    1.7370    8.4680 ha        1 TE7      0.205000
     38 HAH         1.9610   -1.1200    4.2120 ha        1 TE7      0.167000
     39 HAI         2.5400   -0.4840    6.4900 h5        1 TE7      0.116800
     40 HAJ         5.4810   -0.2860    0.7400 ha        1 TE7      0.171000
     41 HAK        10.3340    0.5890    4.9300 hx        1 TE7      0.140200
     42 HAKA        9.0490   -0.2190    3.9060 hx        1 TE7      0.140200
     43 HAL        10.8610    1.9920    2.6470 hx        1 TE7      0.130200
     44 HALA       11.5690    0.3540    3.0150 hx        1 TE7      0.130200
     45 HNAN        8.3350    2.1580    3.3650 hn        1 TE7      0.469300
     46 HAN2        9.2660    2.6450    4.6810 hn        1 TE7      0.469300
     47 HAX1        9.0540    0.6020    1.4340 hn        1 TE7      0.484800
@<TRIPOS>BOND
     1    1   15 1   
     2    1   26 1   
     3    1   27 1   
     4    1   28 1   
     5    2   24 1   
     6    2   29 1   
     7    2   30 1   
     8    2   31 1   
     9    3   24 1   
    10    3   32 1   
    11    3   33 1   
    12    3   34 1   
    13    4   18 2   
    14    5    8 ar  
    15    5   16 ar  
    16    5   35 1   
    17    6    7 ar  
    18    6   17 ar  
    19    6   36 1   
    20    7   19 ar  
    21    7   37 1   
    22    8   21 ar  
    23    8   38 1   
    24    9   13 2   
    25    9   25 1   
    26    9   39 1   
    27   10   16 ar  
    28   10   20 ar  
    29   10   40 1   
    30   11   12 1   
    31   11   14 1   
    32   11   41 1   
    33   11   42 1   
    34   12   24 1   
    35   12   43 1   
    36   12   44 1   
    37   13   19 1   
    38   14   17 1   
    39   14   45 1   
    40   14   46 1   
    41   15   16 1   
    42   17   22 ar  
    43   18   20 1   
    44   18   22 1   
    45   19   23 ar  
    46   20   21 ar  
    47   21   25 1   
    48   22   23 ar  
    49   23   25 1   
    50   24   47 1   
@<TRIPOS>SUBSTRUCTURE
     1 TE7         1 TEMP              0 ****  ****    0 ROOT
