@<TRIPOS>MOLECULE
TE7
   46    49     1     0     0
SMALL
bcc


@<TRIPOS>ATOM
      1 CAA         1.4110   -0.1690   -0.7380 c3        1 TE7      0.107700
      2 CAB        10.6190   -1.5870    1.4780 c3        1 TE7      0.082600
      3 CAC        11.8510    0.5200    1.5640 c3        1 TE7      0.082600
      4 OAD         6.9550    1.0480    2.1260 o         1 TE7     -0.621100
      5 CAE         2.1500   -0.4940    1.9570 ca        1 TE7     -0.138000
      6 CAF         7.8880    1.0710    6.4260 ca        1 TE7     -0.166000
      7 CAG         6.9420    0.4950    7.2760 ca        1 TE7     -0.008000
      8 CAH         2.5540   -0.5990    3.2830 ca        1 TE7     -0.127000
      9 CAI         3.7310   -0.7170    6.2300 cc        1 TE7      0.461700
     10 CAJ         4.3310    0.4120    1.3600 ca        1 TE7     -0.080000
     11 CAK         9.8470    1.2670    3.9070 c3        1 TE7      0.175800
     12 CAL         9.6680    0.3200    2.6920 c3        1 TE7      0.042800
     13 NAM         4.5600   -0.5370    7.2650 nd        1 TE7     -0.527100
     14 NAN         8.6460    1.9640    4.2760 nh        1 TE7     -0.690600
     15 OAO         2.7440    0.1470   -0.3440 os        1 TE7     -0.317900
     16 CAP         3.0360    0.0100    0.9960 ca        1 TE7      0.109100
     17 CAQ         7.6870    1.2340    5.0320 ca        1 TE7      0.152600
     18 CAR         6.1320    0.7490    3.0140 c         1 TE7      0.619300
     19 CAS         5.7340    0.0540    6.7350 ca        1 TE7      0.063400
     20 CAT         4.7540    0.3140    2.6870 ca        1 TE7     -0.167600
     21 CAU         3.8470   -0.1990    3.6670 ca        1 TE7      0.034800
     22 CAV         6.4950    0.7550    4.4370 ca        1 TE7     -0.218600
     23 CAW         5.5560    0.2100    5.3120 ca        1 TE7     -0.043200
     24 NAX        10.9300   -0.3860    2.2980 n4        1 TE7     -0.671400
     25 NAY         4.2890   -0.2850    4.9920 na        1 TE7     -0.093400
     26 HAA         1.1960   -1.2500   -0.5580 h1        1 TE7      0.054700
     27 HAAA        0.6760    0.4770   -0.1990 h1        1 TE7      0.054700
     28 HAAB        1.4090    0.0580   -1.8350 h1        1 TE7      0.054700
     29 HAB        11.5770   -2.0800    1.1610 hx        1 TE7      0.105200
     30 HABA       10.0340   -1.2780    0.5700 hx        1 TE7      0.105200
     31 HABB       10.0080   -2.3060    2.0870 hx        1 TE7      0.105200
     32 HAC        12.8020   -0.0280    1.3270 hx        1 TE7      0.105200
     33 HACA       12.0800    1.4150    2.2020 hx        1 TE7      0.105200
     34 HACB       11.3650    0.8570    0.6090 hx        1 TE7      0.105200
     35 HAE         1.1320   -0.8090    1.6780 ha        1 TE7      0.159000
     36 HAF         8.8240    1.4460    6.8730 ha        1 TE7      0.153000
     37 HAG         7.1430    0.4060    8.3560 ha        1 TE7      0.169000
     38 HAH         1.8480   -0.9930    4.0310 ha        1 TE7      0.152000
     39 HAI         2.7230   -1.1510    6.2840 h5        1 TE7      0.089800
     40 HAJ         5.0160    0.8110    0.5930 ha        1 TE7      0.175000
     41 HAK        10.6120    2.0550    3.6500 h1        1 TE7      0.069700
     42 HAKA       10.2200    0.6780    4.7920 h1        1 TE7      0.069700
     43 HAL         9.2880    0.8990    1.8000 hx        1 TE7      0.120200
     44 HALA        8.8920   -0.4600    2.9430 hx        1 TE7      0.120200
     45 HNAN        8.2160    2.4100    3.4820 hn        1 TE7      0.416800
     46 HAX1       11.4020   -0.6950    3.1580 hn        1 TE7      0.445800
@<TRIPOS>BOND
     1    1   15 1   
     2    1   26 1   
     3    1   27 1   
     4    1   28 1   
     5    2   24 1   
     6    2   29 1   
     7    2   30 1   
     8    2   31 1   
     9    3   24 1   
    10    3   32 1   
    11    3   33 1   
    12    3   34 1   
    13    4   18 2   
    14    5    8 ar  
    15    5   16 ar  
    16    5   35 1   
    17    6    7 ar  
    18    6   17 ar  
    19    6   36 1   
    20    7   19 ar  
    21    7   37 1   
    22    8   21 ar  
    23    8   38 1   
    24    9   13 2   
    25    9   25 1   
    26    9   39 1   
    27   10   16 ar  
    28   10   20 ar  
    29   10   40 1   
    30   11   12 1   
    31   11   14 1   
    32   11   41 1   
    33   11   42 1   
    34   12   24 1   
    35   12   43 1   
    36   12   44 1   
    37   13   19 1   
    38   14   17 1   
    39   14   45 1   
    40   15   16 1   
    41   17   22 ar  
    42   18   20 1   
    43   18   22 1   
    44   19   23 ar  
    45   20   21 ar  
    46   21   25 1   
    47   22   23 ar  
    48   23   25 1   
    49   24   46 1   
@<TRIPOS>SUBSTRUCTURE
     1 TE7         1 TEMP              0 ****  ****    0 ROOT
