@<TRIPOS>MOLECULE
TE7
   46    49     1     0     0
SMALL
bcc


@<TRIPOS>ATOM
      1 CAA         1.4180   -0.0600   -0.7560 c3        1 TE7      0.107700
      2 CAB        10.6380   -1.4890    1.4200 c3        1 TE7      0.082600
      3 CAC        11.8480    0.6260    1.5870 c3        1 TE7      0.082600
      4 OAD         6.9480    1.0870    2.1640 o         1 TE7     -0.621100
      5 CAE         2.1570   -0.4880    1.9250 ca        1 TE7     -0.138000
      6 CAF         7.8750    0.9450    6.4630 ca        1 TE7     -0.167000
      7 CAG         6.9340    0.3270    7.2870 ca        1 TE7     -0.008000
      8 CAH         2.5600   -0.6430    3.2460 ca        1 TE7     -0.127000
      9 CAI         3.7340   -0.8700    6.1870 cc        1 TE7      0.461700
     10 CAJ         4.3300    0.4610    1.3680 ca        1 TE7     -0.080000
     11 CAK         9.8360    1.2600    3.9580 c3        1 TE7      0.175800
     12 CAL         9.6680    0.3590    2.7060 c3        1 TE7      0.041800
     13 NAM         4.5600   -0.7260    7.2310 nd        1 TE7     -0.527100
     14 NAN         8.6280    1.9300    4.3520 nu        1 TE7     -0.690600
     15 OAO         2.7480    0.2520   -0.3480 os        1 TE7     -0.317900
     16 CAP         3.0390    0.0630    0.9860 ca        1 TE7      0.109100
     17 CAQ         7.6750    1.1630    5.0760 ca        1 TE7      0.152600
     18 CAR         6.1270    0.7450    3.0380 c         1 TE7      0.619300
     19 CAS         5.7300   -0.1030    6.7270 ca        1 TE7      0.063400
     20 CAT         4.7530    0.3120    2.6910 ca        1 TE7     -0.167600
     21 CAU         3.8500   -0.2480    3.6470 ca        1 TE7      0.034800
     22 CAV         6.4880    0.6970    4.4600 ca        1 TE7     -0.218600
     23 CAW         5.5530    0.1090    5.3110 ca        1 TE7     -0.043200
     24 NAX        10.9360   -0.3170    2.2850 nx        1 TE7     -0.671400
     25 NAY         4.2900   -0.3840    4.9690 na        1 TE7     -0.093400
     26 HAA         0.6770    0.5570   -0.1920 h1        1 TE7      0.054700
     27 HAAA        1.2120   -1.1490   -0.6210 h1        1 TE7      0.054700
     28 HAAB        1.4150    0.2120   -1.8430 h1        1 TE7      0.054700
     29 HAB        10.0500   -1.1510    0.5240 hx        1 TE7      0.105200
     30 HABA       10.0350   -2.2380    2.0010 hx        1 TE7      0.105200
     31 HABB       11.6010   -1.9590    1.0840 hx        1 TE7      0.105200
     32 HAC        11.3590    0.9940    0.6450 hx        1 TE7      0.105200
     33 HACA       12.8050    0.0980    1.3310 hx        1 TE7      0.105200
     34 HACB       12.0670    1.4990    2.2590 hx        1 TE7      0.105200
     35 HAE         1.1420   -0.8000    1.6310 ha        1 TE7      0.159000
     36 HAF         8.8070    1.3100    6.9260 ha        1 TE7      0.153000
     37 HAG         7.1340    0.1960    8.3630 ha        1 TE7      0.169000
     38 HAH         1.8570   -1.0730    3.9770 ha        1 TE7      0.152000
     39 HAI         2.7300   -1.3150    6.2220 h5        1 TE7      0.089800
     40 HAJ         5.0130    0.8960    0.6200 ha        1 TE7      0.175000
     41 HAK        10.5940    2.0650    3.7330 h1        1 TE7      0.069700
     42 HAKA       10.2130    0.6400    4.8190 h1        1 TE7      0.069700
     43 HAL         9.2810    0.9700    1.8370 hx        1 TE7      0.120200
     44 HALA        8.8980   -0.4380    2.9250 hx        1 TE7      0.120200
     45 HNAN        8.1950    2.4050    3.5750 hn        1 TE7      0.416800
     46 HAX1       11.4120   -0.6540    3.1330 hn        1 TE7      0.445800
@<TRIPOS>BOND
     1    1   15 1   
     2    1   26 1   
     3    1   27 1   
     4    1   28 1   
     5    2   24 1   
     6    2   29 1   
     7    2   30 1   
     8    2   31 1   
     9    3   24 1   
    10    3   32 1   
    11    3   33 1   
    12    3   34 1   
    13    4   18 2   
    14    5    8 ar  
    15    5   16 ar  
    16    5   35 1   
    17    6    7 ar  
    18    6   17 ar  
    19    6   36 1   
    20    7   19 ar  
    21    7   37 1   
    22    8   21 ar  
    23    8   38 1   
    24    9   13 2   
    25    9   25 1   
    26    9   39 1   
    27   10   16 ar  
    28   10   20 ar  
    29   10   40 1   
    30   11   12 1   
    31   11   14 1   
    32   11   41 1   
    33   11   42 1   
    34   12   24 1   
    35   12   43 1   
    36   12   44 1   
    37   13   19 1   
    38   14   17 1   
    39   14   45 1   
    40   15   16 1   
    41   17   22 ar  
    42   18   20 1   
    43   18   22 1   
    44   19   23 ar  
    45   20   21 ar  
    46   21   25 1   
    47   22   23 ar  
    48   23   25 1   
    49   24   46 1   
@<TRIPOS>SUBSTRUCTURE
     1 TE7         1 TEMP              0 ****  ****    0 ROOT
