@<TRIPOS>MOLECULE
TE7
   45    48     1     0     0
SMALL
bcc


@<TRIPOS>ATOM
      1 CAA         6.1330   -3.0070    0.1620 c3        1 TE7      0.111700
      2 CAB        -6.7260   -2.3920   -0.7230 c3        1 TE7      0.158600
      3 CAC        -6.6480   -1.0220    1.2590 c3        1 TE7      0.158600
      4 OAD        -0.0630   -1.7490    0.0880 o         1 TE7     -0.593100
      5 CAE         4.8170   -0.5320    0.0320 ca        1 TE7     -0.152000
      6 CAF        -2.1180    2.1890   -0.1240 ca        1 TE7     -0.256000
      7 CAG        -1.3050    3.3050   -0.1820 ca        1 TE7      0.024000
      8 CAH         4.1170    0.6670   -0.0330 ca        1 TE7     -0.141000
      9 CAI         2.2850    3.2410   -0.1720 cc        1 TE7      0.412700
     10 CAJ         2.7130   -1.7580    0.0930 ca        1 TE7     -0.078000
     11 CAK        -3.9060   -0.0870   -0.0150 c3        1 TE7      0.211800
     12 CAL        -4.6180   -1.4620    0.0150 c3        1 TE7      0.158800
     13 NAM         1.1940    4.0150   -0.2150 nd        1 TE7     -0.526100
     14 NAN        -2.4760   -0.2270    0.0120 nh        1 TE7     -0.765600
     15 OAO         4.7100   -2.9890    0.1610 os        1 TE7     -0.320900
     16 CAP         4.1170   -1.7420    0.0940 ca        1 TE7      0.092100
     17 CAQ        -1.6220    0.8390   -0.0500 ca        1 TE7      0.303600
     18 CAR         0.5050   -0.6420    0.0310 c         1 TE7      0.615300
     19 CAS         0.0860    3.1350   -0.1700 ca        1 TE7     -0.011600
     20 CAT         1.9940   -0.5640    0.0290 ca        1 TE7     -0.154600
     21 CAU         2.7100    0.6700   -0.0350 ca        1 TE7      0.038800
     22 CAV        -0.2100    0.6280   -0.0360 ca        1 TE7     -0.276600
     23 CAW         0.5730    1.7850   -0.0970 ca        1 TE7     -0.000200
     24 NAX        -6.0640   -1.3080   -0.0320 n3        1 TE7     -0.743600
     25 NAY         1.9700    1.8530   -0.0980 na        1 TE7     -0.092400
     26 HAA         6.5350   -2.5630   -0.7800 h1        1 TE7      0.045700
     27 HAAA        6.5340   -2.4670    1.0540 h1        1 TE7      0.045700
     28 HAAB        6.3770   -4.0990    0.2200 h1        1 TE7      0.045700
     29 HAB        -7.8240   -2.1680   -0.7740 h1        1 TE7      0.033700
     30 HABA       -6.3250   -2.4580   -1.7680 h1        1 TE7      0.033700
     31 HABB       -6.5880   -3.3890   -0.2210 h1        1 TE7      0.033700
     32 HAC        -6.5600   -1.8780    1.9850 h1        1 TE7      0.033700
     33 HACA       -6.1390   -0.1280    1.7030 h1        1 TE7      0.033700
     34 HACB       -7.7350   -0.7850    1.1180 h1        1 TE7      0.033700
     35 HAE         5.9170   -0.5130    0.0320 ha        1 TE7      0.144000
     36 HAF        -3.2080    2.3460   -0.1350 ha        1 TE7      0.141000
     37 HAG        -1.7420    4.3140   -0.2380 ha        1 TE7      0.150000
     38 HAH         4.6750    1.6150   -0.0820 ha        1 TE7      0.141000
     39 HAI         3.3230    3.5900   -0.1890 h5        1 TE7      0.072800
     40 HAJ         2.1730   -2.7190    0.1430 ha        1 TE7      0.179000
     41 HAK        -4.2140    0.4670   -0.9490 h1        1 TE7      0.050700
     42 HAKA       -4.2350    0.5280    0.8730 h1        1 TE7      0.050700
     43 HAL        -4.2810   -2.0550   -0.8830 h1        1 TE7      0.043200
     44 HALA       -4.2890   -2.0250    0.9360 h1        1 TE7      0.043200
     45 HNAN       -2.0880   -1.1460    0.0560 hn        1 TE7      0.468800
@<TRIPOS>BOND
     1    1   15 1   
     2    1   26 1   
     3    1   27 1   
     4    1   28 1   
     5    2   24 1   
     6    2   29 1   
     7    2   30 1   
     8    2   31 1   
     9    3   24 1   
    10    3   32 1   
    11    3   33 1   
    12    3   34 1   
    13    4   18 2   
    14    5    8 ar  
    15    5   16 ar  
    16    5   35 1   
    17    6    7 ar  
    18    6   17 ar  
    19    6   36 1   
    20    7   19 ar  
    21    7   37 1   
    22    8   21 ar  
    23    8   38 1   
    24    9   13 2   
    25    9   25 1   
    26    9   39 1   
    27   10   16 ar  
    28   10   20 ar  
    29   10   40 1   
    30   11   12 1   
    31   11   14 1   
    32   11   41 1   
    33   11   42 1   
    34   12   24 1   
    35   12   43 1   
    36   12   44 1   
    37   13   19 1   
    38   14   17 1   
    39   14   45 1   
    40   15   16 1   
    41   17   22 ar  
    42   18   20 1   
    43   18   22 1   
    44   19   23 ar  
    45   20   21 ar  
    46   21   25 1   
    47   22   23 ar  
    48   23   25 1   
@<TRIPOS>SUBSTRUCTURE
     1 TE7         1 TEMP              0 ****  ****    0 ROOT
