@<TRIPOS>MOLECULE
TEA
   23    22     1     0     0
SMALL
bcc


@<TRIPOS>ATOM
      1 N           0.1350    0.0510   -0.0230 n4        1 TEA     -0.690400
      2 C11         1.6180    0.0930    0.2070 c3        1 TEA      0.109800
      3 C12         2.0700   -0.1680    1.6270 c3        1 TEA     -0.131433
      4 C21        -0.4870   -1.2220    0.4710 c3        1 TEA      0.109800
      5 C22         0.0610   -2.4670   -0.1940 c3        1 TEA     -0.131433
      6 C31        -0.5630    1.2400    0.5720 c3        1 TEA      0.109800
      7 C32        -0.3600    2.5170   -0.2180 c3        1 TEA     -0.131433
      8 HN         -0.0030    0.0880   -1.0440 hn        1 TEA      0.444800
      9 H111        1.9710    1.1150   -0.1210 hx        1 TEA      0.102033
     10 H112        2.0760   -0.6800   -0.4770 hx        1 TEA      0.102033
     11 H121        3.1810   -0.0220    1.6620 hc        1 TEA      0.077700
     12 H122        1.8500   -1.2170    1.9440 hc        1 TEA      0.077700
     13 H123        1.6070    0.5370    2.3580 hc        1 TEA      0.077700
     14 H211       -0.3280   -1.2700    1.5860 hx        1 TEA      0.102033
     15 H212       -1.5970   -1.1510    0.2720 hx        1 TEA      0.102033
     16 H221       -0.5460   -3.3410    0.1580 hc        1 TEA      0.077700
     17 H222       -0.0180   -2.4160   -1.3070 hc        1 TEA      0.077700
     18 H223        1.1270   -2.6510    0.0880 hc        1 TEA      0.077700
     19 H311       -1.6660    1.0040    0.6160 hx        1 TEA      0.102033
     20 H312       -0.1870    1.3680    1.6270 hx        1 TEA      0.102033
     21 H321       -0.7010    2.4090   -1.2770 hc        1 TEA      0.077700
     22 H322       -0.9750    3.3200    0.2640 hc        1 TEA      0.077700
     23 H323        0.7060    2.8500   -0.2120 hc        1 TEA      0.077700
@<TRIPOS>BOND
     1    1    2 1   
     2    1    4 1   
     3    1    6 1   
     4    1    8 1   
     5    2    3 1   
     6    2    9 1   
     7    2   10 1   
     8    3   11 1   
     9    3   12 1   
    10    3   13 1   
    11    4    5 1   
    12    4   14 1   
    13    4   15 1   
    14    5   16 1   
    15    5   17 1   
    16    5   18 1   
    17    6    7 1   
    18    6   19 1   
    19    6   20 1   
    20    7   21 1   
    21    7   22 1   
    22    7   23 1   
@<TRIPOS>SUBSTRUCTURE
     1 TEA         1 TEMP              0 ****  ****    0 ROOT
