@<TRIPOS>MOLECULE
TEA
   23    22     1     0     0
SMALL
bcc


@<TRIPOS>ATOM
      1 N           0.4050   -0.1190   -1.9950 n4        1 TEA     -0.690400
      2 C11         0.9030   -0.3760   -0.6020 c3        1 TEA      0.109800
      3 C12         2.1280    0.4090   -0.1880 c3        1 TEA     -0.131433
      4 C21         0.1760    1.3390   -2.2640 c3        1 TEA      0.109800
      5 C22        -0.8450    1.9760   -1.3450 c3        1 TEA     -0.131433
      6 C31         1.3130   -0.7080   -3.0370 c3        1 TEA      0.109800
      7 C32         1.2020   -2.2130   -3.1520 c3        1 TEA     -0.131433
      8 HN         -0.5050   -0.5950   -2.0720 hn        1 TEA      0.444800
      9 H111        0.0510   -0.1330    0.0990 hx        1 TEA      0.102033
     10 H112        1.1200   -1.4820   -0.5310 hx        1 TEA      0.102033
     11 H121        2.4300    0.0550    0.8320 hc        1 TEA      0.077700
     12 H122        2.9920    0.2480   -0.8770 hc        1 TEA      0.077700
     13 H123        1.9150    1.5040   -0.1230 hc        1 TEA      0.077700
     14 H211        1.1700    1.8640   -2.1700 hx        1 TEA      0.102033
     15 H212       -0.1750    1.4310   -3.3330 hx        1 TEA      0.102033
     16 H221       -1.0240    3.0230   -1.7030 hc        1 TEA      0.077700
     17 H222       -1.8200    1.4320   -1.3630 hc        1 TEA      0.077700
     18 H223       -0.4770    2.0290   -0.2910 hc        1 TEA      0.077700
     19 H311        1.0450   -0.2400   -4.0290 hx        1 TEA      0.102033
     20 H312        2.3700   -0.4110   -2.7810 hx        1 TEA      0.102033
     21 H321        1.8600   -2.5420   -3.9980 hc        1 TEA      0.077700
     22 H322        1.5480   -2.7330   -2.2260 hc        1 TEA      0.077700
     23 H323        0.1570   -2.5370   -3.3820 hc        1 TEA      0.077700
@<TRIPOS>BOND
     1    1    2 1   
     2    1    4 1   
     3    1    6 1   
     4    1    8 1   
     5    2    3 1   
     6    2    9 1   
     7    2   10 1   
     8    3   11 1   
     9    3   12 1   
    10    3   13 1   
    11    4    5 1   
    12    4   14 1   
    13    4   15 1   
    14    5   16 1   
    15    5   17 1   
    16    5   18 1   
    17    6    7 1   
    18    6   19 1   
    19    6   20 1   
    20    7   21 1   
    21    7   22 1   
    22    7   23 1   
@<TRIPOS>SUBSTRUCTURE
     1 TEA         1 TEMP              0 ****  ****    0 ROOT
