@<TRIPOS>MOLECULE
TEA
   23    22     1     0     0
SMALL
bcc


@<TRIPOS>ATOM
      1 N           0.1330    0.0460   -0.0220 n4        1 TEA     -0.690400
      2 C11         1.6170    0.0860    0.1960 c3        1 TEA      0.109800
      3 C12         2.0800   -0.1560    1.6160 c3        1 TEA     -0.131433
      4 C21        -0.4910   -1.2160    0.4970 c3        1 TEA      0.109800
      5 C22         0.0460   -2.4740   -0.1520 c3        1 TEA     -0.131433
      6 C31        -0.5550    1.2480    0.5600 c3        1 TEA      0.109800
      7 C32        -0.3550    2.5100   -0.2530 c3        1 TEA     -0.131433
      8 HN         -0.0140    0.0680   -1.0410 hn        1 TEA      0.444800
      9 H111        2.0670   -0.7000   -0.4800 hx        1 TEA      0.102033
     10 H112        1.9720    1.1000   -0.1500 hx        1 TEA      0.102033
     11 H121        3.1920   -0.0140    1.6400 hc        1 TEA      0.077700
     12 H122        1.6250    0.5620    2.3400 hc        1 TEA      0.077700
     13 H123        1.8580   -1.1990    1.9510 hc        1 TEA      0.077700
     14 H211       -1.6020   -1.1430    0.3070 hx        1 TEA      0.102033
     15 H212       -0.3230   -1.2470    1.6120 hx        1 TEA      0.102033
     16 H221       -0.0420   -2.4400   -1.2650 hc        1 TEA      0.077700
     17 H222       -0.5620   -3.3390    0.2190 hc        1 TEA      0.077700
     18 H223        1.1130   -2.6580    0.1240 hc        1 TEA      0.077700
     19 H311       -1.6590    1.0160    0.6180 hx        1 TEA      0.102033
     20 H312       -0.1700    1.3910    1.6090 hx        1 TEA      0.102033
     21 H321       -0.7070    2.3860   -1.3060 hc        1 TEA      0.077700
     22 H322       -0.9620    3.3240    0.2230 hc        1 TEA      0.077700
     23 H323        0.7120    2.8380   -0.2630 hc        1 TEA      0.077700
@<TRIPOS>BOND
     1    1    2 1   
     2    1    4 1   
     3    1    6 1   
     4    1    8 1   
     5    2    3 1   
     6    2    9 1   
     7    2   10 1   
     8    3   11 1   
     9    3   12 1   
    10    3   13 1   
    11    4    5 1   
    12    4   14 1   
    13    4   15 1   
    14    5   16 1   
    15    5   17 1   
    16    5   18 1   
    17    6    7 1   
    18    6   19 1   
    19    6   20 1   
    20    7   21 1   
    21    7   22 1   
    22    7   23 1   
@<TRIPOS>SUBSTRUCTURE
     1 TEA         1 TEMP              0 ****  ****    0 ROOT
