@<TRIPOS>MOLECULE
TEA
   23    22     1     0     0
SMALL
bcc


@<TRIPOS>ATOM
      1 N           0.1270    0.0350   -0.0200 nx        1 TEA     -0.690400
      2 C11         1.6130    0.1120    0.1820 c3        1 TEA      0.109800
      3 C12         2.0950   -0.1000    1.6010 c3        1 TEA     -0.131433
      4 C21        -0.4610   -1.2350    0.5210 c3        1 TEA      0.109800
      5 C22         0.0990   -2.4880   -0.1180 c3        1 TEA     -0.131433
      6 C31        -0.5830    1.2270    0.5540 c3        1 TEA      0.109800
      7 C32        -0.4190    2.4840   -0.2750 c3        1 TEA     -0.131433
      8 HN         -0.0300    0.0400   -1.0380 hn        1 TEA      0.444800
      9 H111        2.0740   -0.6720   -0.4880 hx        1 TEA      0.102033
     10 H112        1.9400    1.1300   -0.1810 hx        1 TEA      0.102033
     11 H121        3.2030    0.0680    1.6110 hc        1 TEA      0.077700
     12 H122        1.6310    0.6180    2.3200 hc        1 TEA      0.077700
     13 H123        1.9000   -1.1430    1.9510 hc        1 TEA      0.077700
     14 H211       -1.5750   -1.1910    0.3410 hx        1 TEA      0.102033
     15 H212       -0.2810   -1.2480    1.6340 hx        1 TEA      0.102033
     16 H221       -0.0010   -2.4700   -1.2300 hc        1 TEA      0.077700
     17 H222       -0.4850   -3.3620    0.2700 hc        1 TEA      0.077700
     18 H223        1.1730   -2.6430    0.1500 hc        1 TEA      0.077700
     19 H311       -1.6810    0.9710    0.6240 hx        1 TEA      0.102033
     20 H312       -0.1920    1.3920    1.5980 hx        1 TEA      0.102033
     21 H321       -0.7760    2.3400   -1.3240 hc        1 TEA      0.077700
     22 H322       -1.0410    3.2890    0.1950 hc        1 TEA      0.077700
     23 H323        0.6400    2.8370   -0.2980 hc        1 TEA      0.077700
@<TRIPOS>BOND
     1    1    2 1   
     2    1    4 1   
     3    1    6 1   
     4    1    8 1   
     5    2    3 1   
     6    2    9 1   
     7    2   10 1   
     8    3   11 1   
     9    3   12 1   
    10    3   13 1   
    11    4    5 1   
    12    4   14 1   
    13    4   15 1   
    14    5   16 1   
    15    5   17 1   
    16    5   18 1   
    17    6    7 1   
    18    6   19 1   
    19    6   20 1   
    20    7   21 1   
    21    7   22 1   
    22    7   23 1   
@<TRIPOS>SUBSTRUCTURE
     1 TEA         1 TEMP              0 ****  ****    0 ROOT
