@<TRIPOS>MOLECULE
TEB
   47    49     1     0     0
SMALL
bcc


@<TRIPOS>ATOM
      1 C7         -0.6630   -0.4570   -0.4060 c         1 TEB      0.573900
      2 O14         0.2390   -1.0920   -0.9600 o         1 TEB     -0.557100
      3 C6         -0.7880   -0.4140    1.0980 c3        1 TEB     -0.202700
      4 C8         -1.7020   -1.5540    1.5740 c3        1 TEB      0.149100
      5 O15        -1.5000   -1.6550    2.9830 oh        1 TEB     -0.600800
      6 C9         -1.3650   -2.8740    0.9040 c3        1 TEB     -0.134100
      7 C5         -1.3050    0.9360    1.6230 c3        1 TEB      0.178500
      8 C1         -0.3040    2.1300    1.4450 c3        1 TEB     -0.004500
      9 C10         1.0870    1.7640    1.0020 c3        1 TEB     -0.090100
     10 N4         -2.5610    1.4050    1.0210 nh        1 TEB     -0.708000
     11 C3         -2.2740    2.5310    0.2120 ce        1 TEB      0.083800
     12 C11        -3.3400    2.9320   -0.8140 c         1 TEB      0.927800
     13 O13        -3.7180    1.9960   -1.5710 o         1 TEB     -0.809800
     14 O12        -3.7730    4.1110   -0.8250 o         1 TEB     -0.809800
     15 C2         -1.0230    3.0340    0.4600 c2        1 TEB     -0.210600
     16 S16        -0.1980    4.3610   -0.1320 ss        1 TEB     -0.176700
     17 C17        -1.2860    5.7180    0.0370 cy        1 TEB     -0.085600
     18 C20        -0.9260    6.8750   -0.9310 cy        1 TEB      0.178300
     19 N19        -0.7300    7.7830    0.2270 nh        1 TEB     -0.667600
     20 C18        -0.9960    6.6990    1.2050 cy        1 TEB      0.178300
     21 C21         0.4110    8.5660    0.3470 c2        1 TEB      0.665100
     22 N25         1.1490    9.0480   -0.6240 n2        1 TEB     -0.660900
     23 C24         2.1600    9.9690   -0.1710 c3        1 TEB      0.117800
     24 C23         2.1680   10.1350    1.3600 c3        1 TEB     -0.038300
     25 S22         0.8570    9.1190    1.9980 ss        1 TEB     -0.334300
     26 H7         -1.4150    0.1190   -0.9930 h4        1 TEB      0.047200
     27 H6          0.2280   -0.5890    1.5540 hc        1 TEB      0.090700
     28 H8         -2.7820   -1.3000    1.3750 h1        1 TEB      0.042700
     29 HO15       -2.1430   -2.2960    3.3050 ho        1 TEB      0.393000
     30 H9         -0.2740   -3.0920    1.0040 hc        1 TEB      0.044700
     31 H9A        -1.6180   -2.8290   -0.1830 hc        1 TEB      0.044700
     32 H9B        -1.9420   -3.7050    1.3760 hc        1 TEB      0.044700
     33 H5         -1.5030    0.7880    2.7250 h1        1 TEB      0.068700
     34 H1         -0.2340    2.6530    2.4380 hc        1 TEB      0.048700
     35 H10         1.6770    2.7000    0.8310 hc        1 TEB      0.035033
     36 H10A        1.6040    1.1560    1.7830 hc        1 TEB      0.035033
     37 H10B        1.0760    1.1850    0.0470 hc        1 TEB      0.035033
     38 HN4        -3.1110    0.7110    0.5570 hn        1 TEB      0.400800
     39 H17        -2.3570    5.3950   -0.0240 h1        1 TEB      0.169700
     40 H20        -1.7730    7.2270   -1.5680 h1        1 TEB      0.071700
     41 H20A       -0.0210    6.6920   -1.5590 h1        1 TEB      0.071700
     42 H18        -0.1290    6.4180    1.8510 h1        1 TEB      0.071700
     43 H18A       -1.8840    6.9500    1.8330 h1        1 TEB      0.071700
     44 H24         3.1610    9.5900   -0.5200 h1        1 TEB      0.058200
     45 H24A        1.9810   10.9660   -0.6610 h1        1 TEB      0.058200
     46 H23         3.1390    9.8060    1.7940 h1        1 TEB      0.067200
     47 H23A        1.9930   11.1960    1.6490 h1        1 TEB      0.067200
@<TRIPOS>BOND
     1    1    2 2   
     2    1    3 1   
     3    1   26 1   
     4    3    4 1   
     5    3    7 1   
     6    3   27 1   
     7    4    5 1   
     8    4    6 1   
     9    4   28 1   
    10    5   29 1   
    11    6   30 1   
    12    6   31 1   
    13    6   32 1   
    14    7    8 1   
    15    7   10 1   
    16    7   33 1   
    17    8    9 1   
    18    8   15 1   
    19    8   34 1   
    20    9   35 1   
    21    9   36 1   
    22    9   37 1   
    23   10   11 1   
    24   10   38 1   
    25   11   12 1   
    26   11   15 2   
    27   12   13 1   
    28   12   14 1   
    29   15   16 1   
    30   16   17 1   
    31   17   18 1   
    32   17   20 1   
    33   17   39 1   
    34   18   19 1   
    35   18   40 1   
    36   18   41 1   
    37   19   20 1   
    38   19   21 1   
    39   20   42 1   
    40   20   43 1   
    41   21   22 2   
    42   21   25 1   
    43   22   23 1   
    44   23   24 1   
    45   23   44 1   
    46   23   45 1   
    47   24   25 1   
    48   24   46 1   
    49   24   47 1   
@<TRIPOS>SUBSTRUCTURE
     1 TEB         1 TEMP              0 ****  ****    0 ROOT
