@<TRIPOS>MOLECULE
TEB
   47    49     1     0     0
SMALL
bcc


@<TRIPOS>ATOM
      1 C7         -0.6080   -0.4660   -0.3870 c         1 TEB      0.573900
      2 O14         0.3100   -1.0940   -0.9210 o         1 TEB     -0.557100
      3 C6         -0.7620   -0.4180    1.1150 c3        1 TEB     -0.203700
      4 C8         -1.6730   -1.5660    1.5780 c3        1 TEB      0.149100
      5 O15        -1.4960   -1.6590    2.9910 oh        1 TEB     -0.600800
      6 C9         -1.3100   -2.8850    0.9200 c3        1 TEB     -0.134100
      7 C5         -1.3020    0.9280    1.6250 c3        1 TEB      0.178500
      8 C1         -0.3100    2.1320    1.4590 c3        1 TEB     -0.004500
      9 C10         1.0930    1.7780    1.0450 c3        1 TEB     -0.090100
     10 N4         -2.5520    1.3820    0.9970 nh        1 TEB     -0.708000
     11 C3         -2.2610    2.5070    0.1890 ce        1 TEB      0.082800
     12 C11        -3.3120    2.8920   -0.8590 c         1 TEB      0.927800
     13 O13        -3.6660    1.9490   -1.6190 o         1 TEB     -0.809800
     14 O12        -3.7560    4.0670   -0.8830 o         1 TEB     -0.809800
     15 C2         -1.0200    3.0230    0.4570 c2        1 TEB     -0.210600
     16 S16        -0.1970    4.3570   -0.1260 ss        1 TEB     -0.176700
     17 C17        -1.3020    5.7030    0.0160 cy        1 TEB     -0.085600
     18 C20        -0.9360    6.8580   -0.9530 cy        1 TEB      0.178300
     19 N19        -0.7700    7.7750    0.2030 nh        1 TEB     -0.667600
     20 C18        -1.0420    6.6940    1.1830 cy        1 TEB      0.178300
     21 C21         0.3610    8.5690    0.3380 c2        1 TEB      0.665100
     22 N25         1.1110    9.0540   -0.6220 n2        1 TEB     -0.660900
     23 C24         2.1050    9.9870   -0.1570 c3        1 TEB      0.117800
     24 C23         2.0850   10.1630    1.3730 c3        1 TEB     -0.038300
     25 S22         0.7720    9.1370    1.9930 ss        1 TEB     -0.334300
     26 H7         -1.3550    0.1000   -0.9900 h4        1 TEB      0.047200
     27 H6          0.2470   -0.5810    1.5910 hc        1 TEB      0.090700
     28 H8         -2.7520   -1.3230    1.3580 h1        1 TEB      0.042700
     29 HO15       -2.1390   -2.3050    3.3040 ho        1 TEB      0.393000
     30 H9         -0.2190   -3.0910    1.0420 hc        1 TEB      0.044700
     31 H9A        -1.8880   -3.7200    1.3850 hc        1 TEB      0.044700
     32 H9B        -1.5430   -2.8470   -0.1710 hc        1 TEB      0.044700
     33 H5         -1.5190    0.7830    2.7240 h1        1 TEB      0.068700
     34 H1         -0.2640    2.6600    2.4520 hc        1 TEB      0.048700
     35 H10         1.6760    2.7200    0.8800 hc        1 TEB      0.035033
     36 H10A        1.1060    1.1950    0.0920 hc        1 TEB      0.035033
     37 H10B        1.6010    1.1790    1.8380 hc        1 TEB      0.035033
     38 HN4        -3.0860    0.6800    0.5270 hn        1 TEB      0.400800
     39 H17        -2.3690    5.3690   -0.0620 h1        1 TEB      0.169700
     40 H20        -0.0180    6.6810   -1.5640 h1        1 TEB      0.071700
     41 H20A       -1.7760    7.1980   -1.6060 h1        1 TEB      0.071700
     42 H18        -0.1840    6.4250    1.8460 h1        1 TEB      0.071700
     43 H18A       -1.9430    6.9400    1.7940 h1        1 TEB      0.071700
     44 H24         1.9240   10.9790   -0.6570 h1        1 TEB      0.058200
     45 H24A        3.1150    9.6170   -0.4870 h1        1 TEB      0.058200
     46 H23         3.0510    9.8450    1.8250 h1        1 TEB      0.067200
     47 H23A        1.8940   11.2230    1.6520 h1        1 TEB      0.067200
@<TRIPOS>BOND
     1    1    2 2   
     2    1    3 1   
     3    1   26 1   
     4    3    4 1   
     5    3    7 1   
     6    3   27 1   
     7    4    5 1   
     8    4    6 1   
     9    4   28 1   
    10    5   29 1   
    11    6   30 1   
    12    6   31 1   
    13    6   32 1   
    14    7    8 1   
    15    7   10 1   
    16    7   33 1   
    17    8    9 1   
    18    8   15 1   
    19    8   34 1   
    20    9   35 1   
    21    9   36 1   
    22    9   37 1   
    23   10   11 1   
    24   10   38 1   
    25   11   12 1   
    26   11   15 2   
    27   12   13 1   
    28   12   14 1   
    29   15   16 1   
    30   16   17 1   
    31   17   18 1   
    32   17   20 1   
    33   17   39 1   
    34   18   19 1   
    35   18   40 1   
    36   18   41 1   
    37   19   20 1   
    38   19   21 1   
    39   20   42 1   
    40   20   43 1   
    41   21   22 2   
    42   21   25 1   
    43   22   23 1   
    44   23   24 1   
    45   23   44 1   
    46   23   45 1   
    47   24   25 1   
    48   24   46 1   
    49   24   47 1   
@<TRIPOS>SUBSTRUCTURE
     1 TEB         1 TEMP              0 ****  ****    0 ROOT
