@<TRIPOS>MOLECULE
TEB
   47    46     1     0     0
SMALL
bcc


@<TRIPOS>ATOM
      1 C7          0.1840   -3.1790   -2.5090 c1        1 TEB      0.192000
      2 O14         1.2360   -3.2610   -1.9030 o         1 TEB     -0.318000
      3 C6         -1.1790   -3.1100   -1.7160 c2        1 TEB     -0.193000
      4 C8         -2.1510   -4.2040   -2.2600 c3        1 TEB      0.038000
      5 O15        -3.3140   -4.2120   -1.4990 oh        1 TEB     -0.328000
      6 C9         -1.4910   -5.5440   -2.1760 c3        1 TEB     -0.252000
      7 C5         -1.7400   -1.8830   -1.8870 c3        1 TEB     -0.020000
      8 C1         -1.6640   -1.0330   -0.5290 c3        1 TEB     -0.048000
      9 C10        -1.1630   -1.9300    0.6280 c3        1 TEB     -0.208000
     10 N4         -0.9120   -1.0330   -2.9410 n3        1 TEB     -0.262000
     11 C3         -0.6460    0.0280   -2.3300 c2        1 TEB      0.017000
     12 C11         0.3550    1.0030   -2.9090 c2        1 TEB      0.378000
     13 O13         1.5700    0.6820   -2.9940 o         1 TEB     -0.545000
     14 O12        -0.0290    2.1300   -3.3190 o         1 TEB     -0.545000
     15 C2         -0.8120   -0.0730   -0.9000 c1        1 TEB     -0.447000
     16 S16         0.5090    0.4070    0.1810 s         1 TEB      0.256000
     17 C17         0.3640    2.1350    0.5620 cy        1 TEB     -0.310000
     18 C20         1.6550    2.7680    0.8090 cy        1 TEB     -0.057500
     19 N19         1.2790    3.0130    2.1940 n3        1 TEB     -0.201000
     20 C18        -0.0210    2.3720    1.9290 cy        1 TEB     -0.057500
     21 C21         1.9640    3.4510    3.3570 c2        1 TEB      0.002000
     22 N25         3.3840    3.8300    3.2760 n1        1 TEB     -0.245000
     23 C24         3.6910    5.1840    3.8410 c2        1 TEB     -0.086000
     24 C23         2.2630    5.4640    4.7790 c3        1 TEB     -0.299000
     25 S22         1.2420    4.1430    4.4050 ss        1 TEB      0.069000
     26 H7          0.1830   -3.1590   -3.4870 ha        1 TEB      0.141000
     27 H6         -1.0130   -3.2630   -0.7690 ha        1 TEB      0.130000
     28 H8         -2.3740   -4.0090   -3.1920 h1        1 TEB      0.082000
     29 HO15       -3.8970   -4.7810   -1.8530 ho        1 TEB      0.192000
     30 H9         -0.9720   -5.6010   -1.3470 hc        1 TEB      0.084000
     31 H9A        -0.8950   -5.6630   -2.9440 hc        1 TEB      0.084000
     32 H9B        -2.1750   -6.2460   -2.1820 hc        1 TEB      0.084000
     33 H5         -2.6680   -1.9720   -2.1790 h1        1 TEB      0.108000
     34 H1         -2.4910   -0.6660   -0.1540 hc        1 TEB      0.088000
     35 H10        -0.2550   -2.2430    0.4290 hc        1 TEB      0.074667
     36 H10A       -1.7600   -2.7020    0.7250 hc        1 TEB      0.074667
     37 H10B       -1.1550   -1.4150    1.4610 hc        1 TEB      0.074667
     38 HN4        -0.9280   -1.1410   -3.8490 hn        1 TEB      0.195000
     39 H17        -0.1840    2.6310   -0.0760 h1        1 TEB      0.207000
     40 H20         2.4040    2.1440    0.7260 h1        1 TEB      0.110250
     41 H20A        1.7750    3.5930    0.2980 h1        1 TEB      0.110250
     42 H18        -0.1440    1.5450    2.4360 h1        1 TEB      0.110250
     43 H18A       -0.7720    2.9950    2.0070 h1        1 TEB      0.110250
     44 H24         3.9510    5.8660    3.1900 ha        1 TEB      0.098000
     45 H24A        4.4770    5.1590    4.4230 ha        1 TEB      0.098000
     46 H23         1.8410    6.3070    4.5150 h1        1 TEB      0.106500
     47 H23A        2.4770    5.4710    5.7330 h1        1 TEB      0.106500
@<TRIPOS>BOND
     1    1    2 1   
     2    1   26 1   
     3    3    4 1   
     4    3    7 1   
     5    3   27 1   
     6    4    5 1   
     7    4    6 1   
     8    4   28 1   
     9    5   29 1   
    10    6   30 1   
    11    6   31 1   
    12    6   32 1   
    13    7    8 1   
    14    7   10 1   
    15    7   33 1   
    16    8    9 1   
    17    8   15 1   
    18    8   34 1   
    19    9   35 1   
    20    9   36 1   
    21    9   37 1   
    22   10   11 1   
    23   10   38 1   
    24   11   12 1   
    25   11   15 1   
    26   12   13 1   
    27   12   14 1   
    28   16   17 1   
    29   17   18 1   
    30   17   20 1   
    31   17   39 1   
    32   18   19 1   
    33   18   40 1   
    34   18   41 1   
    35   19   20 1   
    36   19   21 1   
    37   20   42 1   
    38   20   43 1   
    39   21   22 1   
    40   21   25 1   
    41   23   24 1   
    42   23   44 1   
    43   23   45 1   
    44   24   25 1   
    45   24   46 1   
    46   24   47 1   
@<TRIPOS>SUBSTRUCTURE
     1 TEB         1 TEMP              0 ****  ****    0 ROOT
