@<TRIPOS>MOLECULE
TEB
   47    49     1     0     0
SMALL
bcc


@<TRIPOS>ATOM
      1 C7          3.9860    0.6230   -1.3500 c         1 TEB      0.577900
      2 O14         4.2580    1.1580   -2.4280 o         1 TEB     -0.558100
      3 C6          3.9860    1.4130   -0.0620 c3        1 TEB     -0.240700
      4 C8          5.3590    1.2980    0.6220 c3        1 TEB      0.145100
      5 O15         5.4500    2.2030    1.7140 oh        1 TEB     -0.595800
      6 C9          6.4890    1.5460   -0.3610 c3        1 TEB     -0.135100
      7 C5          2.8700    0.9890    0.9080 c3        1 TEB      0.180500
      8 C1          1.4220    1.3650    0.4360 c3        1 TEB     -0.005500
      9 C10         1.3320    2.2910   -0.7470 c3        1 TEB     -0.090100
     10 N4          2.8080   -0.4510    1.1950 nh        1 TEB     -0.705000
     11 C3          1.6530   -0.9780    0.5690 ce        1 TEB      0.084800
     12 C11         1.6100   -2.4970    0.3650 c         1 TEB      0.928800
     13 O13         2.6200   -2.9730   -0.2230 o         1 TEB     -0.808800
     14 O12         0.6260   -3.1500    0.7930 o         1 TEB     -0.808800
     15 C2          0.7870    0.0110    0.1800 c2        1 TEB     -0.211600
     16 S16        -0.7310   -0.0250   -0.5200 ss        1 TEB     -0.176700
     17 C17        -1.6800   -1.1270    0.4490 cy        1 TEB     -0.085600
     18 C20        -2.8940   -1.6890   -0.3360 cy        1 TEB      0.178300
     19 N19        -3.8140   -1.1110    0.6750 nh        1 TEB     -0.667600
     20 C18        -2.6990   -0.4880    1.4300 cy        1 TEB      0.178300
     21 C21        -4.9130   -0.3480    0.3000 c2        1 TEB      0.665100
     22 N25        -5.6030   -0.4410   -0.8100 n2        1 TEB     -0.660900
     23 C24        -6.7920    0.3730   -0.8160 c3        1 TEB      0.117800
     24 C23        -6.9490    1.2030    0.4710 c3        1 TEB     -0.038300
     25 S22        -5.5730    0.7960    1.5200 ss        1 TEB     -0.334300
     26 H7          3.7260   -0.4580   -1.2820 h4        1 TEB      0.052200
     27 H6          3.8230    2.5000   -0.3120 hc        1 TEB      0.071700
     28 H8          5.4800    0.2870    1.1070 h1        1 TEB      0.086700
     29 HO15        5.3050    3.0900    1.3630 ho        1 TEB      0.392000
     30 H9          6.3170    2.4920   -0.9280 hc        1 TEB      0.045367
     31 H9A         7.4570    1.6250    0.1880 hc        1 TEB      0.045367
     32 H9B         6.5510    0.7050   -1.0930 hc        1 TEB      0.045367
     33 H5          3.0880    1.5110    1.8850 h1        1 TEB      0.065700
     34 H1          0.9070    1.8520    1.3100 hc        1 TEB      0.047700
     35 H10         0.2580    2.4080   -1.0400 hc        1 TEB      0.034700
     36 H10A        1.7420    3.2980   -0.4950 hc        1 TEB      0.034700
     37 H10B        1.8880    1.8870   -1.6280 hc        1 TEB      0.034700
     38 HN4         3.6400   -0.9720    1.0120 hn        1 TEB      0.403800
     39 H17        -1.0380   -1.9180    0.9160 h1        1 TEB      0.169700
     40 H20        -3.0050   -1.2890   -1.3730 h1        1 TEB      0.071950
     41 H20A       -2.9660   -2.8030   -0.3420 h1        1 TEB      0.071950
     42 H18        -2.6590   -0.8930    2.4700 h1        1 TEB      0.071950
     43 H18A       -2.7000    0.6280    1.4480 h1        1 TEB      0.071950
     44 H24        -6.7450    1.0550   -1.7100 h1        1 TEB      0.058200
     45 H24A       -7.6850   -0.3010   -0.9470 h1        1 TEB      0.058200
     46 H23        -6.9370    2.2940    0.2480 h1        1 TEB      0.067200
     47 H23A       -7.9010    0.9580    0.9920 h1        1 TEB      0.067200
@<TRIPOS>BOND
     1    1    2 2   
     2    1    3 1   
     3    1   26 1   
     4    3    4 1   
     5    3    7 1   
     6    3   27 1   
     7    4    5 1   
     8    4    6 1   
     9    4   28 1   
    10    5   29 1   
    11    6   30 1   
    12    6   31 1   
    13    6   32 1   
    14    7    8 1   
    15    7   10 1   
    16    7   33 1   
    17    8    9 1   
    18    8   15 1   
    19    8   34 1   
    20    9   35 1   
    21    9   36 1   
    22    9   37 1   
    23   10   11 1   
    24   10   38 1   
    25   11   12 1   
    26   11   15 2   
    27   12   13 1   
    28   12   14 1   
    29   15   16 1   
    30   16   17 1   
    31   17   18 1   
    32   17   20 1   
    33   17   39 1   
    34   18   19 1   
    35   18   40 1   
    36   18   41 1   
    37   19   20 1   
    38   19   21 1   
    39   20   42 1   
    40   20   43 1   
    41   21   22 2   
    42   21   25 1   
    43   22   23 1   
    44   23   24 1   
    45   23   44 1   
    46   23   45 1   
    47   24   25 1   
    48   24   46 1   
    49   24   47 1   
@<TRIPOS>SUBSTRUCTURE
     1 TEB         1 TEMP              0 ****  ****    0 ROOT
