@<TRIPOS>MOLECULE
TEB
   47    49     1     0     0
SMALL
bcc


@<TRIPOS>ATOM
      1 C7         -0.6010   -0.4660   -0.3890 c         1 TEB      0.573900
      2 O14         0.3260   -1.0970   -0.9060 o         1 TEB     -0.557100
      3 C6         -0.7820   -0.4180    1.1100 c3        1 TEB     -0.203700
      4 C8         -1.7050   -1.5620    1.5570 c3        1 TEB      0.149100
      5 O15        -1.5530   -1.6560    2.9730 oh        1 TEB     -0.600800
      6 C9         -1.3340   -2.8830    0.9050 c3        1 TEB     -0.134100
      7 C5         -1.3270    0.9310    1.6100 c3        1 TEB      0.178500
      8 C1         -0.3290    2.1310    1.4630 c3        1 TEB     -0.004500
      9 C10         1.0810    1.7740    1.0740 c3        1 TEB     -0.090100
     10 N4         -2.5640    1.3880    0.9600 nu        1 TEB     -0.708000
     11 C3         -2.2550    2.5120    0.1570 ce        1 TEB      0.082800
     12 C11        -3.2850    2.9010   -0.9100 c         1 TEB      0.927800
     13 O13        -3.6280    1.9590   -1.6770 o         1 TEB     -0.809800
     14 O12        -3.7250    4.0770   -0.9420 o         1 TEB     -0.809800
     15 C2         -1.0180    3.0250    0.4480 c2        1 TEB     -0.210600
     16 S16        -0.1800    4.3560   -0.1190 ss        1 TEB     -0.176700
     17 C17        -1.2830    5.7060    0.0030 cy        1 TEB     -0.085600
     18 C20        -0.8970    6.8600   -0.9590 cy        1 TEB      0.178300
     19 N19        -0.7500    7.7760    0.2000 nh        1 TEB     -0.667600
     20 C18        -1.0430    6.6960    1.1740 cy        1 TEB      0.178300
     21 C21         0.3800    8.5670    0.3570 c2        1 TEB      0.665100
     22 N25         1.1500    9.0500   -0.5890 n2        1 TEB     -0.660900
     23 C24         2.1370    9.9810   -0.1050 c3        1 TEB      0.117800
     24 C23         2.0880   10.1560    1.4240 c3        1 TEB     -0.038300
     25 S22         0.7620    9.1340    2.0190 ss        1 TEB     -0.334300
     26 H7         -1.3350    0.1020   -1.0050 h4        1 TEB      0.047200
     27 H6          0.2170   -0.5830    1.6050 hc        1 TEB      0.090700
     28 H8         -2.7780   -1.3170    1.3180 h1        1 TEB      0.042700
     29 HO15       -2.2040   -2.3010    3.2730 ho        1 TEB      0.393000
     30 H9         -0.2460   -3.0920    1.0460 hc        1 TEB      0.044700
     31 H9A        -1.5480   -2.8430   -0.1900 hc        1 TEB      0.044700
     32 H9B        -1.9220   -3.7160    1.3590 hc        1 TEB      0.044700
     33 H5         -1.5650    0.7860    2.7050 h1        1 TEB      0.068700
     34 H1         -0.3000    2.6590    2.4570 hc        1 TEB      0.048700
     35 H10         1.1090    1.1900    0.1220 hc        1 TEB      0.035033
     36 H10A        1.6690    2.7130    0.9210 hc        1 TEB      0.035033
     37 H10B        1.5720    1.1720    1.8770 hc        1 TEB      0.035033
     38 HN4        -3.0910    0.6880    0.4790 hn        1 TEB      0.400800
     39 H17        -2.3500    5.3740   -0.0950 h1        1 TEB      0.169700
     40 H20        -1.7230    7.2020   -1.6280 h1        1 TEB      0.071700
     41 H20A        0.0320    6.6810   -1.5530 h1        1 TEB      0.071700
     42 H18        -1.9550    6.9440    1.7690 h1        1 TEB      0.071700
     43 H18A       -0.1980    6.4240    1.8530 h1        1 TEB      0.071700
     44 H24         1.9680   10.9730   -0.6080 h1        1 TEB      0.058200
     45 H24A        3.1520    9.6080   -0.4160 h1        1 TEB      0.058200
     46 H23         1.8950   11.2170    1.7000 h1        1 TEB      0.067200
     47 H23A        3.0460    9.8360    1.8950 h1        1 TEB      0.067200
@<TRIPOS>BOND
     1    1    2 2   
     2    1    3 1   
     3    1   26 1   
     4    3    4 1   
     5    3    7 1   
     6    3   27 1   
     7    4    5 1   
     8    4    6 1   
     9    4   28 1   
    10    5   29 1   
    11    6   30 1   
    12    6   31 1   
    13    6   32 1   
    14    7    8 1   
    15    7   10 1   
    16    7   33 1   
    17    8    9 1   
    18    8   15 1   
    19    8   34 1   
    20    9   35 1   
    21    9   36 1   
    22    9   37 1   
    23   10   11 1   
    24   10   38 1   
    25   11   12 1   
    26   11   15 2   
    27   12   13 1   
    28   12   14 1   
    29   15   16 1   
    30   16   17 1   
    31   17   18 1   
    32   17   20 1   
    33   17   39 1   
    34   18   19 1   
    35   18   40 1   
    36   18   41 1   
    37   19   20 1   
    38   19   21 1   
    39   20   42 1   
    40   20   43 1   
    41   21   22 2   
    42   21   25 1   
    43   22   23 1   
    44   23   24 1   
    45   23   44 1   
    46   23   45 1   
    47   24   25 1   
    48   24   46 1   
    49   24   47 1   
@<TRIPOS>SUBSTRUCTURE
     1 TEB         1 TEMP              0 ****  ****    0 ROOT
