@<TRIPOS>MOLECULE
TEC
   54    54     1     0     0
SMALL
bcc


@<TRIPOS>ATOM
      1 CAV        -0.0030   -0.0480    0.4260 c3        1 TEC     -0.092100
      2 CAU         1.4820   -0.2980    0.3920 c3        1 TEC     -0.080400
      3 CAT         2.1310    0.0220    1.7220 c3        1 TEC     -0.079400
      4 CAS         3.6230   -0.2300    1.6820 c3        1 TEC     -0.079400
      5 CAR         4.2700    0.0900    3.0130 c3        1 TEC     -0.079400
      6 CAQ         5.7610   -0.1620    2.9720 c3        1 TEC     -0.079400
      7 CAP         6.4080    0.1590    4.3030 c3        1 TEC     -0.078400
      8 CAO         7.8990   -0.1000    4.2600 c3        1 TEC     -0.079400
      9 CAN         8.5410    0.2420    5.5870 c3        1 TEC     -0.127400
     10 CAM         9.9890   -0.1400    5.5980 c         1 TEC      0.640100
     11 OAW        10.5370   -1.1160    5.0850 o         1 TEC     -0.536000
     12 O6         10.7520    0.7670    6.2870 os        1 TEC     -0.441900
     13 C6         12.1390    0.4890    6.4860 c3        1 TEC      0.135400
     14 C5         12.3860    0.3050    7.9850 c3        1 TEC      0.134100
     15 O5         11.9510   -1.0140    8.3140 os        1 TEC     -0.443600
     16 C1         12.1220   -1.3350    9.6850 c3        1 TEC      0.305900
     17 O1         11.5880   -2.6280    9.7760 oh        1 TEC     -0.597800
     18 C2         13.6250   -1.3110   10.0840 c3        1 TEC      0.076500
     19 N2         13.8720   -1.7050   11.4530 n3        1 TEC     -0.901800
     20 C3         14.1680    0.0990    9.7690 c3        1 TEC      0.115100
     21 O3         15.5780    0.1740    9.9010 oh        1 TEC     -0.610800
     22 C4         13.8850    0.4510    8.2950 c3        1 TEC      0.117100
     23 O4         14.2320    1.8000    8.0390 oh        1 TEC     -0.598800
     24 H1         -0.4610   -0.2900   -0.5630 hc        1 TEC      0.032700
     25 H2         -0.2180    1.0220    0.6620 hc        1 TEC      0.032700
     26 H3         -0.4910   -0.6820    1.2050 hc        1 TEC      0.032700
     27 H4          1.9510    0.3290   -0.4120 hc        1 TEC      0.038700
     28 H5          1.6790   -1.3710    0.1290 hc        1 TEC      0.038700
     29 H6          1.6650   -0.6050    2.5270 hc        1 TEC      0.039700
     30 H7          1.9370    1.0950    1.9850 hc        1 TEC      0.039700
     31 H8          4.0890    0.3970    0.8770 hc        1 TEC      0.040200
     32 H9          3.8160   -1.3030    1.4190 hc        1 TEC      0.040200
     33 H10         4.0760    1.1630    3.2760 hc        1 TEC      0.039700
     34 H11         3.8030   -0.5370    3.8180 hc        1 TEC      0.039700
     35 H12         5.9550   -1.2360    2.7100 hc        1 TEC      0.042700
     36 H13         6.2280    0.4640    2.1660 hc        1 TEC      0.042700
     37 H14         5.9400   -0.4660    5.1090 hc        1 TEC      0.041200
     38 H15         6.2180    1.2340    4.5640 hc        1 TEC      0.041200
     39 H16         8.3670    0.5150    3.4460 hc        1 TEC      0.057700
     40 H17         8.0950   -1.1770    4.0160 hc        1 TEC      0.057700
     41 H18         8.0430   -0.3240    6.4200 hc        1 TEC      0.079200
     42 H19         8.4380    1.3370    5.8060 hc        1 TEC      0.079200
     43 H20        12.6790    1.4130    6.1410 h1        1 TEC      0.087700
     44 H21        12.4700   -0.4130    5.9120 h1        1 TEC      0.087700
     45 H22        11.7920    1.0560    8.5750 h1        1 TEC      0.071700
     46 H23        11.4970   -0.6730   10.3470 h2        1 TEC      0.070700
     47 H24        11.7940   -3.0990    8.9550 ho        1 TEC      0.432000
     48 H25        14.1710   -2.0450    9.4200 h1        1 TEC      0.085700
     49 H26        13.5970   -2.6600   11.5830 hn        1 TEC      0.359800
     50 H27        13.3530   -1.1290   12.0870 hn        1 TEC      0.359800
     51 H29        13.6920    0.8660   10.4420 h1        1 TEC      0.049700
     52 H30        15.8130   -0.1940   10.7620 ho        1 TEC      0.431000
     53 H31        14.4870   -0.2300    7.6310 h1        1 TEC      0.063700
     54 H32        15.1510    1.9050    8.3230 ho        1 TEC      0.428000
@<TRIPOS>BOND
     1    1    2 1   
     2    1   24 1   
     3    1   25 1   
     4    1   26 1   
     5    2    3 1   
     6    2   27 1   
     7    2   28 1   
     8    3    4 1   
     9    3   29 1   
    10    3   30 1   
    11    4    5 1   
    12    4   31 1   
    13    4   32 1   
    14    5    6 1   
    15    5   33 1   
    16    5   34 1   
    17    6    7 1   
    18    6   35 1   
    19    6   36 1   
    20    7    8 1   
    21    7   37 1   
    22    7   38 1   
    23    8    9 1   
    24    8   39 1   
    25    8   40 1   
    26    9   10 1   
    27    9   41 1   
    28    9   42 1   
    29   10   11 2   
    30   10   12 1   
    31   12   13 1   
    32   13   14 1   
    33   13   43 1   
    34   13   44 1   
    35   14   15 1   
    36   14   22 1   
    37   14   45 1   
    38   15   16 1   
    39   16   17 1   
    40   16   18 1   
    41   16   46 1   
    42   17   47 1   
    43   18   19 1   
    44   18   20 1   
    45   18   48 1   
    46   19   49 1   
    47   19   50 1   
    48   20   21 1   
    49   20   22 1   
    50   20   51 1   
    51   21   52 1   
    52   22   23 1   
    53   22   53 1   
    54   23   54 1   
@<TRIPOS>SUBSTRUCTURE
     1 TEC         1 TEMP              0 ****  ****    0 ROOT
