@<TRIPOS>MOLECULE
TEC
   55    55     1     0     0
SMALL
bcc


@<TRIPOS>ATOM
      1 CAV         0.2030    0.6630    0.2550 c3        1 TEC     -0.093100
      2 CAU         1.4040   -0.1640    0.6350 c3        1 TEC     -0.079400
      3 CAT         2.3240    0.5900    1.5710 c3        1 TEC     -0.079400
      4 CAS         3.5280   -0.2450    1.9500 c3        1 TEC     -0.079400
      5 CAR         4.4460    0.5110    2.8870 c3        1 TEC     -0.079400
      6 CAQ         5.6500   -0.3260    3.2660 c3        1 TEC     -0.079400
      7 CAP         6.5660    0.4310    4.2040 c3        1 TEC     -0.079400
      8 CAO         7.7660   -0.4110    4.5840 c3        1 TEC     -0.080400
      9 CAN         8.6850    0.3600    5.5110 c3        1 TEC     -0.125400
     10 CAM         9.8020   -0.5070    5.9920 c         1 TEC      0.639100
     11 OAW         9.8030   -1.6750    6.3730 o         1 TEC     -0.525000
     12 O6         11.0140    0.1610    6.0300 os        1 TEC     -0.463900
     13 C6         12.1850   -0.6010    6.3030 c3        1 TEC      0.140400
     14 C5         12.3320   -0.8000    7.8170 c3        1 TEC      0.077100
     15 O5         13.3830   -1.7670    7.9710 os        1 TEC     -0.417600
     16 C1         13.6300   -2.1090    9.3140 c3        1 TEC      0.349900
     17 O1         14.6660   -3.0450    9.2650 oh        1 TEC     -0.618800
     18 C2         14.1510   -0.8410   10.0610 c3        1 TEC      0.047500
     19 N2         14.5960   -1.1560   11.4480 n4        1 TEC     -0.818600
     20 C3         13.0320    0.2170   10.0230 c3        1 TEC      0.131100
     21 O3         13.5320    1.3560   10.6940 oh        1 TEC     -0.624800
     22 C4         12.7060    0.5030    8.5420 c3        1 TEC      0.093100
     23 O4         11.6190    1.4050    8.5840 oh        1 TEC     -0.597800
     24 H1         -0.4610    0.0890   -0.4350 hc        1 TEC      0.034700
     25 H2         -0.3870    0.9420    1.1620 hc        1 TEC      0.034700
     26 H3          0.5180    1.6030   -0.2600 hc        1 TEC      0.034700
     27 H4          1.9690   -0.4550   -0.2900 hc        1 TEC      0.039700
     28 H5          1.0670   -1.1140    1.1270 hc        1 TEC      0.039700
     29 H6          2.6630    1.5400    1.0800 hc        1 TEC      0.040200
     30 H7          1.7600    0.8810    2.4970 hc        1 TEC      0.040200
     31 H8          4.0910   -0.5340    1.0240 hc        1 TEC      0.041200
     32 H9          3.1880   -1.1940    2.4410 hc        1 TEC      0.041200
     33 H10         3.8820    0.8010    3.8130 hc        1 TEC      0.041200
     34 H11         4.7870    1.4600    2.3960 hc        1 TEC      0.041200
     35 H12         6.2140   -0.6150    2.3400 hc        1 TEC      0.044700
     36 H13         5.3090   -1.2750    3.7570 hc        1 TEC      0.044700
     37 H14         6.0010    0.7220    5.1280 hc        1 TEC      0.044200
     38 H15         6.9100    1.3790    3.7120 hc        1 TEC      0.044200
     39 H16         8.3270   -0.7100    3.6600 hc        1 TEC      0.061200
     40 H17         7.4280   -1.3550    5.0900 hc        1 TEC      0.061200
     41 H18         8.1180    0.7120    6.4160 hc        1 TEC      0.085700
     42 H19         9.1000    1.2630    4.9900 hc        1 TEC      0.085700
     43 H20        12.1420   -1.6010    5.7970 h1        1 TEC      0.092700
     44 H21        13.0220    0.0210    5.8880 h1        1 TEC      0.092700
     45 H22        11.3710   -1.2160    8.2350 h1        1 TEC      0.096700
     46 H23        12.7250   -2.5480    9.8200 h2        1 TEC      0.084700
     47 H24        14.8100   -3.3220    8.3430 ho        1 TEC      0.477000
     48 H25        15.0580   -0.4430    9.5090 hx        1 TEC      0.137700
     49 H26        15.3380   -1.8660   11.4050 hn        1 TEC      0.470133
     50 H27        14.9440   -0.2950   11.8880 hn        1 TEC      0.470133
     51 H29        12.1040   -0.1490   10.5480 h1        1 TEC      0.077700
     52 H30        12.9700    2.1090   10.4500 ho        1 TEC      0.469000
     53 H31        13.5920    0.9870    8.0430 h1        1 TEC      0.074700
     54 H32        11.3600    1.5920    7.6680 ho        1 TEC      0.452000
     55 H231       13.8130   -1.5190   11.9990 hn        1 TEC      0.470133
@<TRIPOS>BOND
     1    1    2 1   
     2    1   24 1   
     3    1   25 1   
     4    1   26 1   
     5    2    3 1   
     6    2   27 1   
     7    2   28 1   
     8    3    4 1   
     9    3   29 1   
    10    3   30 1   
    11    4    5 1   
    12    4   31 1   
    13    4   32 1   
    14    5    6 1   
    15    5   33 1   
    16    5   34 1   
    17    6    7 1   
    18    6   35 1   
    19    6   36 1   
    20    7    8 1   
    21    7   37 1   
    22    7   38 1   
    23    8    9 1   
    24    8   39 1   
    25    8   40 1   
    26    9   10 1   
    27    9   41 1   
    28    9   42 1   
    29   10   11 2   
    30   10   12 1   
    31   12   13 1   
    32   13   14 1   
    33   13   43 1   
    34   13   44 1   
    35   14   15 1   
    36   14   22 1   
    37   14   45 1   
    38   15   16 1   
    39   16   17 1   
    40   16   18 1   
    41   16   46 1   
    42   17   47 1   
    43   18   19 1   
    44   18   20 1   
    45   18   48 1   
    46   19   49 1   
    47   19   50 1   
    48   19   55 1   
    49   20   21 1   
    50   20   22 1   
    51   20   51 1   
    52   21   52 1   
    53   22   23 1   
    54   22   53 1   
    55   23   54 1   
@<TRIPOS>SUBSTRUCTURE
     1 TEC         1 TEMP              0 ****  ****    0 ROOT
