@<TRIPOS>MOLECULE
TEC
   55    55     1     0     0
SMALL
bcc


@<TRIPOS>ATOM
      1 CAV         0.2680    0.6910    0.1540 c3        1 TEC     -0.093100
      2 CAU         1.4460   -0.1520    0.5680 c3        1 TEC     -0.079400
      3 CAT         2.3680    0.6050    1.5020 c3        1 TEC     -0.079400
      4 CAS         3.5500   -0.2450    1.9160 c3        1 TEC     -0.079400
      5 CAR         4.4700    0.5120    2.8490 c3        1 TEC     -0.079400
      6 CAQ         5.6520   -0.3390    3.2620 c3        1 TEC     -0.079400
      7 CAP         6.5710    0.4210    4.1950 c3        1 TEC     -0.079400
      8 CAO         7.7480   -0.4360    4.6100 c3        1 TEC     -0.079400
      9 CAN         8.6730    0.3390    5.5280 c3        1 TEC     -0.125400
     10 CAM         9.7660   -0.5390    6.0430 c         1 TEC      0.639100
     11 OAW         9.7330   -1.6890    6.4770 o         1 TEC     -0.525000
     12 O6         10.9980    0.0910    6.0450 os        1 TEC     -0.463900
     13 C6         12.1470   -0.6930    6.3460 c3        1 TEC      0.139400
     14 C5         12.2980   -0.8270    7.8670 c3        1 TEC      0.077100
     15 O5         13.3200   -1.8170    8.0590 os        1 TEC     -0.417600
     16 C1         13.5660   -2.1040    9.4160 c3        1 TEC      0.349900
     17 O1         14.5740   -3.0730    9.4040 oh        1 TEC     -0.618800
     18 C2         14.1320   -0.8200   10.1000 c3        1 TEC      0.047500
     19 N2         14.5770   -1.0840   11.4970 nz        1 TEC     -0.818600
     20 C3         13.0450    0.2700   10.0200 c3        1 TEC      0.131100
     21 O3         13.5850    1.4220   10.6340 oh        1 TEC     -0.624800
     22 C4         12.7170    0.4970    8.5290 c3        1 TEC      0.093100
     23 O4         11.6580    1.4320    8.5350 oh        1 TEC     -0.597800
     24 H1         -0.3290    1.0000    1.0450 hc        1 TEC      0.034700
     25 H2          0.6080    1.6130   -0.3770 hc        1 TEC      0.034700
     26 H3         -0.3980    0.1140   -0.5330 hc        1 TEC      0.034700
     27 H4          2.0180   -0.4740   -0.3420 hc        1 TEC      0.039700
     28 H5          1.0830   -1.0840    1.0760 hc        1 TEC      0.039700
     29 H6          2.7330    1.5360    0.9950 hc        1 TEC      0.040700
     30 H7          1.7980    0.9260    2.4130 hc        1 TEC      0.040700
     31 H8          3.1840   -1.1770    2.4220 hc        1 TEC      0.041700
     32 H9          4.1200   -0.5670    1.0040 hc        1 TEC      0.041700
     33 H10         3.9000    0.8340    3.7600 hc        1 TEC      0.041200
     34 H11         4.8360    1.4440    2.3410 hc        1 TEC      0.041200
     35 H12         6.2210   -0.6600    2.3510 hc        1 TEC      0.044200
     36 H13         5.2850   -1.2700    3.7700 hc        1 TEC      0.044200
     37 H14         6.0000    0.7450    5.1050 hc        1 TEC      0.044200
     38 H15         6.9410    1.3500    3.6850 hc        1 TEC      0.044200
     39 H16         7.3850   -1.3600    5.1350 hc        1 TEC      0.061200
     40 H17         8.3130   -0.7700    3.7000 hc        1 TEC      0.061200
     41 H18         8.1030    0.7240    6.4180 hc        1 TEC      0.085700
     42 H19         9.1120    1.2200    4.9900 hc        1 TEC      0.085700
     43 H20        12.9990   -0.1170    5.8980 h1        1 TEC      0.092700
     44 H21        12.0700   -1.7140    5.8870 h1        1 TEC      0.092700
     45 H22        11.3290   -1.1930    8.3090 h1        1 TEC      0.096700
     46 H23        12.6520   -2.4910    9.9470 h2        1 TEC      0.084700
     47 H24        14.7020   -3.3970    8.4950 ho        1 TEC      0.477000
     48 H25        15.0460   -0.4760    9.5250 hx        1 TEC      0.137700
     49 H26        14.9550   -0.2150   11.8950 hn        1 TEC      0.470133
     50 H27        13.7880   -1.3970   12.0690 hn        1 TEC      0.470133
     51 H29        12.1100   -0.0430   10.5660 h1        1 TEC      0.077700
     52 H30        13.0440    2.1800   10.3590 ho        1 TEC      0.469000
     53 H31        13.6140    0.9290    8.0030 h1        1 TEC      0.074700
     54 H32        11.3980    1.5850    7.6130 ho        1 TEC      0.452000
     55 H231       15.2960   -1.8170   11.4830 hn        1 TEC      0.470133
@<TRIPOS>BOND
     1    1    2 1   
     2    1   24 1   
     3    1   25 1   
     4    1   26 1   
     5    2    3 1   
     6    2   27 1   
     7    2   28 1   
     8    3    4 1   
     9    3   29 1   
    10    3   30 1   
    11    4    5 1   
    12    4   31 1   
    13    4   32 1   
    14    5    6 1   
    15    5   33 1   
    16    5   34 1   
    17    6    7 1   
    18    6   35 1   
    19    6   36 1   
    20    7    8 1   
    21    7   37 1   
    22    7   38 1   
    23    8    9 1   
    24    8   39 1   
    25    8   40 1   
    26    9   10 1   
    27    9   41 1   
    28    9   42 1   
    29   10   11 2   
    30   10   12 1   
    31   12   13 1   
    32   13   14 1   
    33   13   43 1   
    34   13   44 1   
    35   14   15 1   
    36   14   22 1   
    37   14   45 1   
    38   15   16 1   
    39   16   17 1   
    40   16   18 1   
    41   16   46 1   
    42   17   47 1   
    43   18   19 1   
    44   18   20 1   
    45   18   48 1   
    46   19   49 1   
    47   19   50 1   
    48   19   55 1   
    49   20   21 1   
    50   20   22 1   
    51   20   51 1   
    52   21   52 1   
    53   22   23 1   
    54   22   53 1   
    55   23   54 1   
@<TRIPOS>SUBSTRUCTURE
     1 TEC         1 TEMP              0 ****  ****    0 ROOT
