@<TRIPOS>MOLECULE
TEE
   10     9     1     0     0
SMALL
bcc


@<TRIPOS>ATOM
      1 N           0.2890    0.3230    0.2090 nz        1 TEE     -0.697400
      2 CB          2.4960   -0.6700    0.8210 c2        1 TEE     -0.045400
      3 CA          1.1720   -0.7660    0.5780 c2        1 TEE     -0.227000
      4 SG          3.6370    0.5000    0.8370 sh        1 TEE      0.021600
      5 HN1        -0.4560    0.4070    0.9140 hn        1 TEE      0.458467
      6 HN2        -0.1420    0.1140   -0.7020 hn        1 TEE      0.458467
      7 HB2         2.9650   -1.6540    1.0900 h4        1 TEE      0.225000
      8 HA          0.6320   -1.7320    0.6440 hx        1 TEE      0.212000
      9 HS          2.9440    1.5680    0.5100 hs        1 TEE      0.135800
     10 HN3         0.7830    1.2170    0.1420 hn        1 TEE      0.458467
@<TRIPOS>BOND
     1    1    3 1   
     2    1    5 1   
     3    1    6 1   
     4    1   10 1   
     5    2    3 2   
     6    2    4 1   
     7    2    7 1   
     8    3    8 1   
     9    4    9 1   
@<TRIPOS>SUBSTRUCTURE
     1 TEE         1 TEMP              0 ****  ****    0 ROOT
