@<TRIPOS>MOLECULE
TEE
    9     7     1     0     0
SMALL
bcc


@<TRIPOS>ATOM
      1 N          -1.1950   -0.0000   -0.8610 n3        1 TEE     -0.310000
      2 CB          0.8980   -0.0000    0.3060 c1        1 TEE     -0.379000
      3 CA          0.2240   -0.0000   -0.8610 c2        1 TEE     -0.069000
      4 SG          0.0110   -0.0000    1.8410 s         1 TEE      0.123000
      5 HN1        -1.6500    0.7900   -0.8790 hn        1 TEE      0.156000
      6 HN2        -1.6500   -0.7900   -0.8790 hn        1 TEE      0.156000
      7 HB2         1.8740   -0.0000    0.3060 ha        1 TEE      0.145000
      8 HA          0.7120   -0.0000   -1.7070 h4        1 TEE      0.150000
      9 HS          0.7770    0.0000    2.7360 hs        1 TEE      0.028000
@<TRIPOS>BOND
     1    1    3 1   
     2    1    5 1   
     3    1    6 1   
     4    2    3 1   
     5    2    7 1   
     6    3    8 1   
     7    4    9 1   
@<TRIPOS>SUBSTRUCTURE
     1 TEE         1 TEMP              0 ****  ****    0 ROOT
