@<TRIPOS>MOLECULE
TEE
    9     8     1     0     0
SMALL
bcc


@<TRIPOS>ATOM
      1 N           2.1110   -1.7370    0.2750 nh        1 TEE     -0.839600
      2 CB          0.9840    0.3960   -0.0210 c2        1 TEE     -0.217400
      3 CA          2.0180   -0.3660    0.4040 c2        1 TEE      0.099000
      4 SG          1.1250    2.0780   -0.0700 sh        1 TEE     -0.302400
      5 HN1         1.2720   -2.2270    0.0650 hn        1 TEE      0.399800
      6 HN2         2.7070   -2.1950    0.9220 hn        1 TEE      0.399800
      7 HB2         0.0630   -0.0520   -0.4150 h4        1 TEE      0.135000
      8 HA          2.9300    0.1120    0.8190 h4        1 TEE      0.146000
      9 HS         -0.0420    2.4020    0.4620 hs        1 TEE      0.180800
@<TRIPOS>BOND
     1    1    3 1   
     2    1    5 1   
     3    1    6 1   
     4    2    3 2   
     5    2    4 1   
     6    2    7 1   
     7    3    8 1   
     8    4    9 1   
@<TRIPOS>SUBSTRUCTURE
     1 TEE         1 TEMP              0 ****  ****    0 ROOT
