@<TRIPOS>MOLECULE
TEE
   10     9     1     0     0
SMALL
bcc


@<TRIPOS>ATOM
      1 N           0.2740    0.3470    0.3230 n4        1 TEE     -0.697400
      2 CB          2.5160   -0.6960    0.6630 c2        1 TEE     -0.045400
      3 CA          1.1890   -0.7720    0.4290 c2        1 TEE     -0.227000
      4 SG          3.6310    0.4720    0.9130 sh        1 TEE      0.021600
      5 HN1        -0.4580    0.2550    1.0400 hn        1 TEE      0.458467
      6 HN2        -0.1710    0.3330   -0.6050 hn        1 TEE      0.458467
      7 HB2         3.0130   -1.7020    0.7020 h4        1 TEE      0.225000
      8 HA          0.6720   -1.7430    0.2930 hx        1 TEE      0.212000
      9 HS          2.9070    1.5670    0.8390 hs        1 TEE      0.135800
     10 HN3         0.7460    1.2470    0.4470 hn        1 TEE      0.458467
@<TRIPOS>BOND
     1    1    3 1   
     2    1    5 1   
     3    1    6 1   
     4    1   10 1   
     5    2    3 2   
     6    2    4 1   
     7    2    7 1   
     8    3    8 1   
     9    4    9 1   
@<TRIPOS>SUBSTRUCTURE
     1 TEE         1 TEMP              0 ****  ****    0 ROOT
