@<TRIPOS>MOLECULE
TEF
   27    28     1     0     0
SMALL
bcc


@<TRIPOS>ATOM
      1 CA          3.0630   -0.1380   -0.4010 c3        1 TEF      0.021500
      2 N           2.9670   -1.4580   -1.0080 n3        1 TEF     -0.887800
      3 OXT         4.6610    1.4370    0.5090 o         1 TEF     -0.836800
      4 CB          2.2350   -0.0090    0.8840 c3        1 TEF     -0.043100
      5 N2         -3.4240    0.1270   -0.0580 na        1 TEF      0.303800
      6 O           5.4760   -0.4170   -0.4450 o         1 TEF     -0.836800
      7 CG          0.7720    0.0090    0.6260 ca        1 TEF     -0.004300
      8 N3         -4.1380    1.2680   -0.1370 nc        1 TEF     -0.487800
      9 CD1        -0.0430   -1.0660    0.9980 ca        1 TEF     -0.130500
     10 N4         -5.4060   -0.5940   -0.4020 nd        1 TEF     -0.391000
     11 CE1        -1.4170   -1.0400    0.7790 ca        1 TEF     -0.112000
     12 N5         -4.2080   -0.9760   -0.2220 nc        1 TEF     -0.154800
     13 CZ         -1.9980    0.0860    0.1680 ca        1 TEF     -0.030200
     14 C7         -5.4050    0.8260   -0.3570 cd        1 TEF      0.446900
     15 CE2        -1.1890    1.1710   -0.2230 ca        1 TEF     -0.112000
     16 CD2         0.1790    1.1230    0.0130 ca        1 TEF     -0.130500
     17 C           4.5250    0.3290   -0.0790 c         1 TEF      0.888600
     18 HA          2.6560    0.5970   -1.1550 h1        1 TEF      0.043700
     19 H           3.6300   -1.4830   -1.7660 hn        1 TEF      0.332800
     20 H2          3.2850   -2.1380   -0.3390 hn        1 TEF      0.332800
     21 HB2         2.4940   -0.8390    1.5930 hc        1 TEF      0.066700
     22 HB3         2.5440    0.9610    1.3680 hc        1 TEF      0.066700
     23 HD1         0.4110   -1.9550    1.4630 ha        1 TEF      0.147000
     24 HE1        -2.0280   -1.9040    1.0820 ha        1 TEF      0.142500
     25 H7         -6.2950    1.4450   -0.4820 h5        1 TEF      0.075100
     26 HE2        -1.6220    2.0580   -0.7090 ha        1 TEF      0.142500
     27 HD2         0.8180    1.9670   -0.2930 ha        1 TEF      0.147000
@<TRIPOS>BOND
     1    1    2 1   
     2    1    4 1   
     3    1   17 1   
     4    1   18 1   
     5    2   19 1   
     6    2   20 1   
     7    3   17 1   
     8    4    7 1   
     9    4   21 1   
    10    4   22 1   
    11    5    8 1   
    12    5   12 1   
    13    5   13 1   
    14    6   17 1   
    15    7    9 ar  
    16    7   16 ar  
    17    8   14 2   
    18    9   11 ar  
    19    9   23 1   
    20   10   12 2   
    21   10   14 1   
    22   11   13 ar  
    23   11   24 1   
    24   13   15 ar  
    25   14   25 1   
    26   15   16 ar  
    27   15   26 1   
    28   16   27 1   
@<TRIPOS>SUBSTRUCTURE
     1 TEF         1 TEMP              0 ****  ****    0 ROOT
