@<TRIPOS>MOLECULE
TEG
   22    21     1     0     0
SMALL
bcc


@<TRIPOS>ATOM
      1 CAB         0.4650    1.2010   -0.6140 c         1 TEG      0.924600
      2 CAC         1.1540   -0.0860   -0.0820 c3        1 TEG      0.003400
      3 CAF         2.3380   -0.9200    1.7790 c3        1 TEG      0.128400
      4 CAG         2.8450   -0.4550    3.1400 c3        1 TEG      0.127400
      5 CAI         3.8540   -1.3150    5.0990 c3        1 TEG      0.091400
      6 CAJ         4.4130   -2.6200    5.6540 c3        1 TEG      0.132400
      7 OAA        -0.7540    1.3600   -0.3400 o         1 TEG     -0.830800
      8 OAD         1.1560    1.9680   -1.3380 o         1 TEG     -0.830800
      9 OAE         1.6970    0.2080    1.2030 os        1 TEG     -0.398600
     10 OAH         3.3950   -1.6070    3.7840 os        1 TEG     -0.444600
     11 OAK         5.5470   -3.0570    4.9340 oh        1 TEG     -0.611800
     12 H1          0.4060   -0.9150    0.0090 h1        1 TEG      0.004700
     13 H2          1.9800   -0.3980   -0.7720 h1        1 TEG      0.004700
     14 H3          1.6140   -1.7690    1.8980 h1        1 TEG      0.021200
     15 H4          3.1920   -1.2600    1.1350 h1        1 TEG      0.021200
     16 H5          2.0020   -0.0410    3.7520 h1        1 TEG      0.040200
     17 H6          3.6390    0.3270    3.0230 h1        1 TEG      0.040200
     18 H7          3.0030   -0.9510    5.7320 h1        1 TEG      0.034700
     19 H8          4.6510   -0.5270    5.0560 h1        1 TEG      0.034700
     20 H9          4.7730   -2.4670    6.7060 h1        1 TEG      0.044200
     21 H10         3.6210   -3.4160    5.6330 h1        1 TEG      0.044200
     22 H12         5.3040   -3.0480    3.9980 ho        1 TEG      0.419000
@<TRIPOS>BOND
     1    1    2 1   
     2    1    7 1   
     3    1    8 1   
     4    2    9 1   
     5    2   12 1   
     6    2   13 1   
     7    3    4 1   
     8    3    9 1   
     9    3   14 1   
    10    3   15 1   
    11    4   10 1   
    12    4   16 1   
    13    4   17 1   
    14    5    6 1   
    15    5   10 1   
    16    5   18 1   
    17    5   19 1   
    18    6   11 1   
    19    6   20 1   
    20    6   21 1   
    21   11   22 1   
@<TRIPOS>SUBSTRUCTURE
     1 TEG         1 TEMP              0 ****  ****    0 ROOT
