@<TRIPOS>MOLECULE
TEI
   37    38     1     0     0
SMALL
bcc


@<TRIPOS>ATOM
      1 S1          0.1100   -0.2440   -0.0830 ss        1 TEI     -0.052300
      2 C2          1.7880   -0.0070    0.1920 cc        1 TEI      0.334900
      3 N3          2.1080    0.1790    1.4850 nd        1 TEI     -0.644000
      4 C4          0.9630    0.1150    2.2640 cd        1 TEI      0.319600
      5 C5         -0.2220   -0.1130    1.5510 cc        1 TEI     -0.179000
      6 C6          2.7520   -0.0140   -0.8930 ca        1 TEI     -0.106500
      7 C7          2.3120    0.0670   -2.2220 ca        1 TEI     -0.072000
      8 C8          3.2230    0.0520   -3.2830 ca        1 TEI     -0.054000
      9 C9          4.6060   -0.0400   -3.0070 ca        1 TEI      0.144100
     10 C10         5.0510   -0.1170   -1.6810 ca        1 TEI     -0.217000
     11 C11         4.1300   -0.1040   -0.6380 ca        1 TEI     -0.054000
     12 C12         2.7580    0.1330   -4.6220 cg        1 TEI      0.267800
     13 N13         2.3840    0.1980   -5.7220 n1        1 TEI     -0.398800
     14 O14         5.4350   -0.0450   -4.1110 os        1 TEI     -0.326900
     15 C15         6.8380   -0.1470   -3.8390 c3        1 TEI      0.131400
     16 C16         7.5330   -0.1430   -5.1990 c3        1 TEI     -0.071700
     17 C17         9.0050    0.1540   -5.0110 c3        1 TEI     -0.091100
     18 C18         7.3320   -1.4650   -5.9070 c3        1 TEI     -0.091100
     19 C19         1.0310    0.2860    3.7360 c3        1 TEI     -0.125400
     20 C20        -1.6280   -0.2290    2.1090 c         1 TEI      0.935200
     21 O21        -2.5710    0.1800    1.3770 o         1 TEI     -0.808800
     22 O22        -1.7760   -0.7330    3.2540 o         1 TEI     -0.808800
     23 H7          1.2320    0.1440   -2.4370 ha        1 TEI      0.155000
     24 H10         6.1230   -0.1870   -1.4510 ha        1 TEI      0.134000
     25 H11         4.4900   -0.1640    0.4020 ha        1 TEI      0.161000
     26 H151        7.1620    0.7330   -3.2240 h1        1 TEI      0.040200
     27 H152        7.0470   -1.0980   -3.2830 h1        1 TEI      0.040200
     28 H16         7.0690    0.6720   -5.8240 hc        1 TEI      0.069700
     29 H171        9.4800   -0.6120   -4.3510 hc        1 TEI      0.036700
     30 H172        9.5260    0.1420   -5.9980 hc        1 TEI      0.036700
     31 H173        9.1470    1.1600   -4.5460 hc        1 TEI      0.036700
     32 H181        7.7760   -1.4270   -6.9300 hc        1 TEI      0.036700
     33 H182        6.2400   -1.6850   -5.9950 hc        1 TEI      0.036700
     34 H183        7.8180   -2.2950   -5.3400 hc        1 TEI      0.036700
     35 H191        0.0330    0.0350    4.1810 hc        1 TEI      0.050033
     36 H192        1.8070   -0.3870    4.1780 hc        1 TEI      0.050033
     37 H193        1.2950    1.3430    3.9900 hc        1 TEI      0.050033
@<TRIPOS>BOND
     1    1    2 1   
     2    1    5 1   
     3    2    3 2   
     4    2    6 1   
     5    3    4 1   
     6    4    5 2   
     7    4   19 1   
     8    5   20 1   
     9    6    7 ar  
    10    6   11 ar  
    11    7    8 ar  
    12    7   23 1   
    13    8    9 ar  
    14    8   12 1   
    15    9   10 ar  
    16    9   14 1   
    17   10   11 ar  
    18   10   24 1   
    19   11   25 1   
    20   12   13 3   
    21   14   15 1   
    22   15   16 1   
    23   15   26 1   
    24   15   27 1   
    25   16   17 1   
    26   16   18 1   
    27   16   28 1   
    28   17   29 1   
    29   17   30 1   
    30   17   31 1   
    31   18   32 1   
    32   18   33 1   
    33   18   34 1   
    34   19   35 1   
    35   19   36 1   
    36   19   37 1   
    37   20   21 1   
    38   20   22 1   
@<TRIPOS>SUBSTRUCTURE
     1 TEI         1 TEMP              0 ****  ****    0 ROOT
