@<TRIPOS>MOLECULE
TEI
   37    38     1     0     0
SMALL
bcc


@<TRIPOS>ATOM
      1 S1          0.1140   -0.2580   -0.0740 ss        1 TEI     -0.052300
      2 C2          1.7900   -0.0060    0.1950 cc        1 TEI      0.334900
      3 N3          2.1110    0.1930    1.4850 nd        1 TEI     -0.644000
      4 C4          0.9680    0.1280    2.2680 cd        1 TEI      0.319600
      5 C5         -0.2160   -0.1160    1.5590 cc        1 TEI     -0.179000
      6 C6          2.7530   -0.0160   -0.8920 ca        1 TEI     -0.106500
      7 C7          2.3090    0.0470   -2.2210 ca        1 TEI     -0.072000
      8 C8          3.2180    0.0300   -3.2840 ca        1 TEI     -0.054000
      9 C9          4.6030   -0.0470   -3.0090 ca        1 TEI      0.144100
     10 C10         5.0510   -0.1060   -1.6840 ca        1 TEI     -0.217000
     11 C11         4.1320   -0.0910   -0.6390 ca        1 TEI     -0.054000
     12 C12         2.7500    0.0920   -4.6220 cg        1 TEI      0.267800
     13 N13         2.3730    0.1430   -5.7220 n1        1 TEI     -0.398800
     14 O14         5.4290   -0.0560   -4.1150 os        1 TEI     -0.326900
     15 C15         6.8340   -0.1430   -3.8450 c3        1 TEI      0.131400
     16 C16         7.5260   -0.1460   -5.2070 c3        1 TEI     -0.071700
     17 C17         8.9950    0.1670   -5.0240 c3        1 TEI     -0.091100
     18 C18         7.3360   -1.4770   -5.9000 c3        1 TEI     -0.091100
     19 C19         1.0390    0.3120    3.7370 c3        1 TEI     -0.125400
     20 C20        -1.6200   -0.2370    2.1210 c         1 TEI      0.935200
     21 O21        -2.5670    0.1590    1.3870 o         1 TEI     -0.808800
     22 O22        -1.7620   -0.7320    3.2700 o         1 TEI     -0.808800
     23 H7          1.2280    0.1120   -2.4340 ha        1 TEI      0.155000
     24 H10         6.1230   -0.1650   -1.4550 ha        1 TEI      0.134000
     25 H11         4.4950   -0.1380    0.4010 ha        1 TEI      0.161000
     26 H151        7.1510    0.7470   -3.2400 h1        1 TEI      0.040200
     27 H152        7.0520   -1.0860   -3.2800 h1        1 TEI      0.040200
     28 H16         7.0530    0.6580   -5.8390 hc        1 TEI      0.069700
     29 H171        9.4790   -0.5880   -4.3570 hc        1 TEI      0.036700
     30 H172        9.5150    0.1490   -6.0120 hc        1 TEI      0.036700
     31 H173        9.1290    1.1780   -4.5700 hc        1 TEI      0.036700
     32 H181        7.7780   -1.4460   -6.9250 hc        1 TEI      0.036700
     33 H182        6.2460   -1.7080   -5.9840 hc        1 TEI      0.036700
     34 H183        7.8300   -2.2970   -5.3250 hc        1 TEI      0.036700
     35 H191        0.0430    0.0580    4.1870 hc        1 TEI      0.050033
     36 H192        1.8200   -0.3510    4.1840 hc        1 TEI      0.050033
     37 H193        1.2950    1.3730    3.9820 hc        1 TEI      0.050033
@<TRIPOS>BOND
     1    1    2 1   
     2    1    5 1   
     3    2    3 2   
     4    2    6 1   
     5    3    4 1   
     6    4    5 2   
     7    4   19 1   
     8    5   20 1   
     9    6    7 ar  
    10    6   11 ar  
    11    7    8 ar  
    12    7   23 1   
    13    8    9 ar  
    14    8   12 1   
    15    9   10 ar  
    16    9   14 1   
    17   10   11 ar  
    18   10   24 1   
    19   11   25 1   
    20   12   13 3   
    21   14   15 1   
    22   15   16 1   
    23   15   26 1   
    24   15   27 1   
    25   16   17 1   
    26   16   18 1   
    27   16   28 1   
    28   17   29 1   
    29   17   30 1   
    30   17   31 1   
    31   18   32 1   
    32   18   33 1   
    33   18   34 1   
    34   19   35 1   
    35   19   36 1   
    36   19   37 1   
    37   20   21 1   
    38   20   22 1   
@<TRIPOS>SUBSTRUCTURE
     1 TEI         1 TEMP              0 ****  ****    0 ROOT
