@<TRIPOS>MOLECULE
TEI
   37    38     1     0     0
SMALL
bcc


@<TRIPOS>ATOM
      1 S1          0.1030   -0.1890   -0.0590 ss        1 TEI     -0.052300
      2 C2          1.7870   -0.0050    0.2110 cc        1 TEI      0.334900
      3 N3          2.1190    0.1330    1.5080 nd        1 TEI     -0.644000
      4 C4          0.9770    0.0770    2.2920 cd        1 TEI      0.319600
      5 C5         -0.2170   -0.0980    1.5790 cc        1 TEI     -0.179000
      6 C6          2.7460   -0.0060   -0.8790 ca        1 TEI     -0.106500
      7 C7          2.3000    0.1270   -2.2020 ca        1 TEI     -0.072000
      8 C8          3.2050    0.1200   -3.2690 ca        1 TEI     -0.054000
      9 C9          4.5870   -0.0180   -3.0030 ca        1 TEI      0.144100
     10 C10         5.0360   -0.1470   -1.6840 ca        1 TEI     -0.217000
     11 C11         4.1220   -0.1410   -0.6350 ca        1 TEI     -0.054000
     12 C12         2.7360    0.2530   -4.6010 cg        1 TEI      0.267800
     13 N13         2.3580    0.3620   -5.6960 n1        1 TEI     -0.398800
     14 O14         5.4090   -0.0130   -4.1120 os        1 TEI     -0.326900
     15 C15         6.8110   -0.1600   -3.8520 c3        1 TEI      0.131400
     16 C16         7.4990   -0.1320   -5.2160 c3        1 TEI     -0.071700
     17 C17         8.9790    0.1210   -5.0270 c3        1 TEI     -0.091100
     18 C18         7.2590   -1.4260   -5.9620 c3        1 TEI     -0.091100
     19 C19         1.0580    0.2020    3.7670 c3        1 TEI     -0.125400
     20 C20        -1.6230   -0.1920    2.1420 c         1 TEI      0.935200
     21 O21        -2.5580    0.2630    1.4280 o         1 TEI     -0.808800
     22 O22        -1.7780   -0.7260    3.2730 o         1 TEI     -0.808800
     23 H7          1.2220    0.2390   -2.4080 ha        1 TEI      0.155000
     24 H10         6.1070   -0.2540   -1.4620 ha        1 TEI      0.134000
     25 H11         4.4860   -0.2430    0.4000 ha        1 TEI      0.161000
     26 H151        6.9970   -1.1320   -3.3260 h1        1 TEI      0.040200
     27 H152        7.1610    0.6930   -3.2130 h1        1 TEI      0.040200
     28 H16         7.0530    0.7130   -5.8130 hc        1 TEI      0.069700
     29 H171        9.4940    0.1250   -6.0170 hc        1 TEI      0.036700
     30 H172        9.1490    1.1080   -4.5330 hc        1 TEI      0.036700
     31 H173        9.4370   -0.6760   -4.3930 hc        1 TEI      0.036700
     32 H181        7.7260   -2.2850   -5.4230 hc        1 TEI      0.036700
     33 H182        6.1620   -1.6150   -6.0500 hc        1 TEI      0.036700
     34 H183        7.6990   -1.3690   -6.9860 hc        1 TEI      0.036700
     35 H191        1.8170   -0.5040    4.1850 hc        1 TEI      0.050033
     36 H192        1.3520    1.2430    4.0510 hc        1 TEI      0.050033
     37 H193        0.0550   -0.0340    4.2110 hc        1 TEI      0.050033
@<TRIPOS>BOND
     1    1    2 1   
     2    1    5 1   
     3    2    3 2   
     4    2    6 1   
     5    3    4 1   
     6    4    5 2   
     7    4   19 1   
     8    5   20 1   
     9    6    7 ar  
    10    6   11 ar  
    11    7    8 ar  
    12    7   23 1   
    13    8    9 ar  
    14    8   12 1   
    15    9   10 ar  
    16    9   14 1   
    17   10   11 ar  
    18   10   24 1   
    19   11   25 1   
    20   12   13 3   
    21   14   15 1   
    22   15   16 1   
    23   15   26 1   
    24   15   27 1   
    25   16   17 1   
    26   16   18 1   
    27   16   28 1   
    28   17   29 1   
    29   17   30 1   
    30   17   31 1   
    31   18   32 1   
    32   18   33 1   
    33   18   34 1   
    34   19   35 1   
    35   19   36 1   
    36   19   37 1   
    37   20   21 1   
    38   20   22 1   
@<TRIPOS>SUBSTRUCTURE
     1 TEI         1 TEMP              0 ****  ****    0 ROOT
