@<TRIPOS>MOLECULE
TEI
   37    38     1     0     0
SMALL
bcc


@<TRIPOS>ATOM
      1 S1         -0.9010   -0.3680   -2.6910 ss        1 TEI     -0.052300
      2 C2          0.4500   -0.0480   -1.6830 cc        1 TEI      0.334900
      3 N3          1.5850    0.2110   -2.3570 nd        1 TEI     -0.644000
      4 C4          1.3460    0.1360   -3.7210 cd        1 TEI      0.319600
      5 C5          0.0250   -0.1760   -4.0700 cc        1 TEI     -0.179000
      6 C6          0.3500   -0.0640   -0.2340 ca        1 TEI     -0.106500
      7 C7         -0.9110   -0.0640    0.3800 ca        1 TEI     -0.072000
      8 C8         -1.0320   -0.0870    1.7730 ca        1 TEI     -0.054000
      9 C9          0.1370   -0.1070    2.5690 ca        1 TEI      0.144100
     10 C10         1.3970   -0.1050    1.9600 ca        1 TEI     -0.217000
     11 C11         1.4980   -0.0840    0.5730 ca        1 TEI     -0.054000
     12 C12        -2.3160   -0.0880    2.3770 cg        1 TEI      0.267800
     13 N13        -3.3660   -0.0880    2.8780 n1        1 TEI     -0.398800
     14 O14        -0.0730   -0.1340    3.9330 os        1 TEI     -0.326900
     15 C15         1.1060   -0.1150    4.7470 c3        1 TEI      0.131400
     16 C16         0.6200   -0.1160    6.1950 c3        1 TEI     -0.071700
     17 C17         1.7640   -0.5010    7.1090 c3        1 TEI     -0.091100
     18 C18         0.0560    1.2360    6.5710 c3        1 TEI     -0.091100
     19 C19         2.4330    0.3780   -4.7000 c3        1 TEI     -0.125400
     20 C20        -0.5510   -0.3250   -5.4650 c         1 TEI      0.935200
     21 O21        -1.7570    0.0090   -5.6270 o         1 TEI     -0.808800
     22 O22         0.1950   -0.7810   -6.3730 o         1 TEI     -0.808800
     23 H7         -1.8230   -0.0430   -0.2420 ha        1 TEI      0.155000
     24 H10         2.3140   -0.1200    2.5650 ha        1 TEI      0.134000
     25 H11         2.4960   -0.0810    0.1030 ha        1 TEI      0.161000
     26 H151        1.7060    0.8050    4.5240 h1        1 TEI      0.040200
     27 H152        1.7190   -1.0310    4.5330 h1        1 TEI      0.040200
     28 H16        -0.2000   -0.8840    6.2860 hc        1 TEI      0.069700
     29 H171        1.4230   -0.4870    8.1720 hc        1 TEI      0.036700
     30 H172        2.1320   -1.5270    6.8670 hc        1 TEI      0.036700
     31 H173        2.6130    0.2160    7.0000 hc        1 TEI      0.036700
     32 H181        0.8510    2.0200    6.5360 hc        1 TEI      0.036700
     33 H182       -0.7550    1.5200    5.8560 hc        1 TEI      0.036700
     34 H183       -0.3670    1.2060    7.6030 hc        1 TEI      0.036700
     35 H191        2.7320    1.4550   -4.6870 hc        1 TEI      0.050033
     36 H192        3.3320   -0.2400   -4.4560 hc        1 TEI      0.050033
     37 H193        2.0700    0.1060   -5.7260 hc        1 TEI      0.050033
@<TRIPOS>BOND
     1    1    2 1   
     2    1    5 1   
     3    2    3 2   
     4    2    6 1   
     5    3    4 1   
     6    4    5 2   
     7    4   19 1   
     8    5   20 1   
     9    6    7 ar  
    10    6   11 ar  
    11    7    8 ar  
    12    7   23 1   
    13    8    9 ar  
    14    8   12 1   
    15    9   10 ar  
    16    9   14 1   
    17   10   11 ar  
    18   10   24 1   
    19   11   25 1   
    20   12   13 3   
    21   14   15 1   
    22   15   16 1   
    23   15   26 1   
    24   15   27 1   
    25   16   17 1   
    26   16   18 1   
    27   16   28 1   
    28   17   29 1   
    29   17   30 1   
    30   17   31 1   
    31   18   32 1   
    32   18   33 1   
    33   18   34 1   
    34   19   35 1   
    35   19   36 1   
    36   19   37 1   
    37   20   21 1   
    38   20   22 1   
@<TRIPOS>SUBSTRUCTURE
     1 TEI         1 TEMP              0 ****  ****    0 ROOT
