@<TRIPOS>MOLECULE
TEJ
   69    72     1     0     0
SMALL
bcc


@<TRIPOS>ATOM
      1 O21         0.6830    0.0160    1.0390 o         1 TEJ     -0.565500
      2 C17         1.8920   -0.1000    0.8790 c         1 TEJ      0.715800
      3 C18         3.0200   -0.2800    1.8210 ce        1 TEJ     -0.203400
      4 C20         2.9070   -0.3660    3.1440 c2        1 TEJ     -0.122000
      5 C19         4.2680   -0.3430    1.0020 c3        1 TEJ     -0.075200
      6 C15         3.7880   -0.2250   -0.4590 c3        1 TEJ      0.135100
      7 O16         2.3440   -0.0640   -0.4260 os        1 TEJ     -0.409900
      8 C12         4.3940    0.9690   -1.1790 c3        1 TEJ     -0.088400
      9 C10         4.1050    0.9430   -2.6730 c3        1 TEJ     -0.058700
     10 C11         5.0590   -0.0310   -3.3470 c3        1 TEJ     -0.094100
     11 C7          4.2350    2.3190   -3.3240 c3        1 TEJ     -0.050700
     12 C8          4.0160    2.2020   -4.8480 c3        1 TEJ     -0.078400
     13 C9          3.2440    3.4360   -5.3120 c3        1 TEJ     -0.075400
     14 C5          3.2800    4.3750   -4.1190 c3        1 TEJ     -0.034500
     15 C6          3.2520    3.4310   -2.8810 c3        1 TEJ     -0.039000
     16 C22         1.8690    2.8500   -2.6450 c3        1 TEJ     -0.088100
     17 C4          2.2850    5.4710   -3.9870 c2        1 TEJ     -0.082400
     18 C3          2.5460    6.3040   -2.7740 c3        1 TEJ     -0.043200
     19 C2          2.7700    5.4840   -1.5160 c3        1 TEJ     -0.074400
     20 C1          3.6850    4.2840   -1.6960 c3        1 TEJ     -0.064400
     21 C23         1.3280    5.7170   -4.8970 ce        1 TEJ     -0.147000
     22 C24         0.3320    6.7600   -4.8110 ce        1 TEJ     -0.108000
     23 C25        -0.3150    7.3010   -5.8640 cf        1 TEJ     -0.074200
     24 C26        -1.3560    8.3480   -5.6460 c3        1 TEJ     -0.035200
     25 C27        -2.6140    8.0420   -6.4550 c3        1 TEJ      0.146100
     26 O34        -3.5020    9.1330   -6.2450 oh        1 TEJ     -0.599800
     27 C73        -2.2800    7.8900   -7.9340 c3        1 TEJ     -0.146400
     28 C29        -1.2600    6.7770   -8.1520 c3        1 TEJ      0.186300
     29 O32        -1.8170    5.4940   -7.8780 oh        1 TEJ     -0.588800
     30 C30        -0.0560    6.9420   -7.2580 cf        1 TEJ     -0.069200
     31 C31         1.1770    6.7810   -7.7530 c2        1 TEJ     -0.193000
     32 H31         2.0760    6.9190   -7.1380 ha        1 TEJ      0.119500
     33 H20         1.9290   -0.3060    3.6460 ha        1 TEJ      0.133000
     34 H20A        3.7770   -0.5010    3.8000 ha        1 TEJ      0.133000
     35 H19         4.8090   -1.3080    1.1600 hc        1 TEJ      0.069700
     36 H51         4.9630    0.4940    1.2660 hc        1 TEJ      0.069700
     37 H15         3.9670   -1.1790   -1.0230 h1        1 TEJ      0.072700
     38 H12         5.5020    0.9700   -1.0050 hc        1 TEJ      0.056200
     39 H12A        3.9700    1.8990   -0.7240 hc        1 TEJ      0.056200
     40 H10         3.0490    0.5750   -2.8170 hc        1 TEJ      0.073700
     41 H11         4.7570   -0.2210   -4.4040 hc        1 TEJ      0.033367
     42 H11A        5.0620   -1.0100   -2.8100 hc        1 TEJ      0.033367
     43 H11B        6.0990    0.3750   -3.3460 hc        1 TEJ      0.033367
     44 H7          5.2780    2.6930   -3.1310 hc        1 TEJ      0.042700
     45 H8          3.4260    1.2820   -5.0930 hc        1 TEJ      0.042200
     46 H8A         5.0020    2.1250   -5.3680 hc        1 TEJ      0.042200
     47 H9          2.1930    3.1600   -5.5780 hc        1 TEJ      0.046700
     48 H9A         3.7150    3.9010   -6.2120 hc        1 TEJ      0.046700
     49 H5          4.2970    4.8750   -4.1300 hc        1 TEJ      0.050700
     50 H22         1.1100    3.6630   -2.5490 hc        1 TEJ      0.043700
     51 H22A        1.5720    2.1990   -3.5030 hc        1 TEJ      0.043700
     52 H22B        1.8610    2.2350   -1.7120 hc        1 TEJ      0.043700
     53 H3          3.4630    6.9230   -2.9780 hc        1 TEJ      0.046200
     54 H3A         1.7020    7.0200   -2.5880 hc        1 TEJ      0.046200
     55 H2          1.7770    5.1270   -1.1330 hc        1 TEJ      0.041700
     56 H2A         3.2060    6.1540   -0.7280 hc        1 TEJ      0.041700
     57 H1          4.7400    4.6310   -1.8540 hc        1 TEJ      0.037700
     58 H1A         3.6630    3.6970   -0.7430 hc        1 TEJ      0.037700
     59 H23         1.2560    5.0780   -5.7990 ha        1 TEJ      0.138000
     60 H24         0.0700    7.1020   -3.7930 ha        1 TEJ      0.125000
     61 H26        -1.6330    8.4260   -4.5620 hc        1 TEJ      0.062200
     62 H26A       -0.9520    9.3480   -5.9610 hc        1 TEJ      0.062200
     63 H27        -3.0870    7.0900   -6.0800 h1        1 TEJ      0.049700
     64 HO34       -4.3080    8.9310   -6.7320 ho        1 TEJ      0.398000
     65 H73        -3.2140    7.6640   -8.5100 hc        1 TEJ      0.052700
     66 H73A       -1.8630    8.8550   -8.3220 hc        1 TEJ      0.052700
     67 H29        -0.9340    6.7960   -9.2340 h1        1 TEJ      0.034700
     68 HO32       -2.6270    5.4300   -8.3980 ho        1 TEJ      0.396000
     69 H31A        1.3580    6.5080   -8.8010 ha        1 TEJ      0.119500
@<TRIPOS>BOND
     1    1    2 2   
     2    2    3 1   
     3    2    7 1   
     4    3    4 2   
     5    3    5 1   
     6    4   33 1   
     7    4   34 1   
     8    5    6 1   
     9    5   35 1   
    10    5   36 1   
    11    6    7 1   
    12    6    8 1   
    13    6   37 1   
    14    8    9 1   
    15    8   38 1   
    16    8   39 1   
    17    9   10 1   
    18    9   11 1   
    19    9   40 1   
    20   10   41 1   
    21   10   42 1   
    22   10   43 1   
    23   11   12 1   
    24   11   15 1   
    25   11   44 1   
    26   12   13 1   
    27   12   45 1   
    28   12   46 1   
    29   13   14 1   
    30   13   47 1   
    31   13   48 1   
    32   14   15 1   
    33   14   17 1   
    34   14   49 1   
    35   15   16 1   
    36   15   20 1   
    37   16   50 1   
    38   16   51 1   
    39   16   52 1   
    40   17   18 1   
    41   17   21 2   
    42   18   19 1   
    43   18   53 1   
    44   18   54 1   
    45   19   20 1   
    46   19   55 1   
    47   19   56 1   
    48   20   57 1   
    49   20   58 1   
    50   21   22 1   
    51   21   59 1   
    52   22   23 2   
    53   22   60 1   
    54   23   24 1   
    55   23   30 1   
    56   24   25 1   
    57   24   61 1   
    58   24   62 1   
    59   25   26 1   
    60   25   27 1   
    61   25   63 1   
    62   26   64 1   
    63   27   28 1   
    64   27   65 1   
    65   27   66 1   
    66   28   29 1   
    67   28   30 1   
    68   28   67 1   
    69   29   68 1   
    70   30   31 2   
    71   31   32 1   
    72   31   69 1   
@<TRIPOS>SUBSTRUCTURE
     1 TEJ         1 TEMP              0 ****  ****    0 ROOT
