@<TRIPOS>MOLECULE
TEJ
   69    72     1     0     0
SMALL
bcc


@<TRIPOS>ATOM
      1 O21         0.6450   -0.0080    1.0070 o         1 TEJ     -0.565500
      2 C17         1.8570   -0.1170    0.8590 c         1 TEJ      0.715800
      3 C18         2.9760   -0.2950    1.8130 ce        1 TEJ     -0.203400
      4 C20         2.8490   -0.3840    3.1340 c2        1 TEJ     -0.122000
      5 C19         4.2320   -0.3500    1.0070 c3        1 TEJ     -0.075200
      6 C15         3.7670   -0.2310   -0.4590 c3        1 TEJ      0.135100
      7 O16         2.3220   -0.0770   -0.4410 os        1 TEJ     -0.409900
      8 C12         4.3750    0.9670   -1.1700 c3        1 TEJ     -0.088400
      9 C10         4.1000    0.9440   -2.6670 c3        1 TEJ     -0.058700
     10 C11         5.0620   -0.0280   -3.3340 c3        1 TEJ     -0.094100
     11 C7          4.2340    2.3210   -3.3140 c3        1 TEJ     -0.050700
     12 C8          4.0250    2.2070   -4.8400 c3        1 TEJ     -0.078400
     13 C9          3.2550    3.4410   -5.3070 c3        1 TEJ     -0.075400
     14 C5          3.2830    4.3780   -4.1120 c3        1 TEJ     -0.034500
     15 C6          3.2480    3.4310   -2.8760 c3        1 TEJ     -0.039000
     16 C22         1.8640    2.8500   -2.6500 c3        1 TEJ     -0.088100
     17 C4          2.2860    5.4730   -3.9840 c2        1 TEJ     -0.082400
     18 C3          2.5390    6.3030   -2.7680 c3        1 TEJ     -0.043200
     19 C2          2.7570    5.4820   -1.5100 c3        1 TEJ     -0.074400
     20 C1          3.6740    4.2830   -1.6860 c3        1 TEJ     -0.064400
     21 C23         1.3340    5.7190   -4.8990 ce        1 TEJ     -0.147000
     22 C24         0.3370    6.7610   -4.8170 ce        1 TEJ     -0.108000
     23 C25        -0.3060    7.3020   -5.8730 cf        1 TEJ     -0.074200
     24 C26        -1.3490    8.3490   -5.6590 c3        1 TEJ     -0.035200
     25 C27        -2.6030    8.0410   -6.4740 c3        1 TEJ      0.146100
     26 O34        -3.4930    9.1320   -6.2670 oh        1 TEJ     -0.599800
     27 C73        -2.2610    7.8910   -7.9510 c3        1 TEJ     -0.146400
     28 C29        -1.2390    6.7790   -8.1650 c3        1 TEJ      0.186300
     29 O32        -1.7960    5.4950   -7.8940 oh        1 TEJ     -0.588800
     30 C30        -0.0400    6.9450   -7.2650 cf        1 TEJ     -0.069200
     31 C31         1.1960    6.7860   -7.7550 c2        1 TEJ     -0.193000
     32 H31         2.0920    6.9240   -7.1360 ha        1 TEJ      0.119500
     33 H20         1.8670   -0.3290    3.6260 ha        1 TEJ      0.133000
     34 H20A        3.7140   -0.5160    3.7980 ha        1 TEJ      0.133000
     35 H19         4.7770   -1.3130    1.1680 hc        1 TEJ      0.069700
     36 H51         4.9200    0.4890    1.2790 hc        1 TEJ      0.069700
     37 H15         3.9560   -1.1840   -1.0230 h1        1 TEJ      0.072700
     38 H12         5.4810    0.9720   -0.9860 hc        1 TEJ      0.056200
     39 H12A        3.9430    1.8940   -0.7170 hc        1 TEJ      0.056200
     40 H10         3.0460    0.5740   -2.8220 hc        1 TEJ      0.073700
     41 H11         4.7720   -0.2130   -4.3960 hc        1 TEJ      0.033367
     42 H11A        6.1020    0.3790   -3.3200 hc        1 TEJ      0.033367
     43 H11B        5.0600   -1.0090   -2.8010 hc        1 TEJ      0.033367
     44 H7          5.2760    2.6950   -3.1140 hc        1 TEJ      0.042700
     45 H8          5.0150    2.1330   -5.3540 hc        1 TEJ      0.042200
     46 H8A         3.4390    1.2870   -5.0910 hc        1 TEJ      0.042200
     47 H9          2.2050    3.1640   -5.5800 hc        1 TEJ      0.046700
     48 H9A         3.7300    3.9080   -6.2030 hc        1 TEJ      0.046700
     49 H5          4.2990    4.8790   -4.1160 hc        1 TEJ      0.050700
     50 H22         1.5730    2.2000   -3.5110 hc        1 TEJ      0.043700
     51 H22A        1.8510    2.2330   -1.7170 hc        1 TEJ      0.043700
     52 H22B        1.1040    3.6620   -2.5560 hc        1 TEJ      0.043700
     53 H3          3.4570    6.9240   -2.9660 hc        1 TEJ      0.046200
     54 H3A         1.6940    7.0180   -2.5860 hc        1 TEJ      0.046200
     55 H2          1.7620    5.1240   -1.1330 hc        1 TEJ      0.041700
     56 H2A         3.1880    6.1510   -0.7180 hc        1 TEJ      0.041700
     57 H1          4.7300    4.6310   -1.8390 hc        1 TEJ      0.037700
     58 H1A         3.6480    3.6940   -0.7350 hc        1 TEJ      0.037700
     59 H23         1.2680    5.0820   -5.8020 ha        1 TEJ      0.138000
     60 H24         0.0690    7.1020   -3.8000 ha        1 TEJ      0.125000
     61 H26        -0.9450    9.3490   -5.9720 hc        1 TEJ      0.062200
     62 H26A       -1.6310    8.4260   -4.5760 hc        1 TEJ      0.062200
     63 H27        -3.0770    7.0890   -6.1010 h1        1 TEJ      0.049700
     64 HO34       -4.2970    8.9290   -6.7580 ho        1 TEJ      0.398000
     65 H73        -1.8440    8.8560   -8.3370 hc        1 TEJ      0.052700
     66 H73A       -3.1920    7.6640   -8.5320 hc        1 TEJ      0.052700
     67 H29        -0.9080    6.7990   -9.2460 h1        1 TEJ      0.034700
     68 HO32       -2.6040    5.4300   -8.4170 ho        1 TEJ      0.396000
     69 H31A        1.3820    6.5130   -8.8020 ha        1 TEJ      0.119500
@<TRIPOS>BOND
     1    1    2 2   
     2    2    3 1   
     3    2    7 1   
     4    3    4 2   
     5    3    5 1   
     6    4   33 1   
     7    4   34 1   
     8    5    6 1   
     9    5   35 1   
    10    5   36 1   
    11    6    7 1   
    12    6    8 1   
    13    6   37 1   
    14    8    9 1   
    15    8   38 1   
    16    8   39 1   
    17    9   10 1   
    18    9   11 1   
    19    9   40 1   
    20   10   41 1   
    21   10   42 1   
    22   10   43 1   
    23   11   12 1   
    24   11   15 1   
    25   11   44 1   
    26   12   13 1   
    27   12   45 1   
    28   12   46 1   
    29   13   14 1   
    30   13   47 1   
    31   13   48 1   
    32   14   15 1   
    33   14   17 1   
    34   14   49 1   
    35   15   16 1   
    36   15   20 1   
    37   16   50 1   
    38   16   51 1   
    39   16   52 1   
    40   17   18 1   
    41   17   21 2   
    42   18   19 1   
    43   18   53 1   
    44   18   54 1   
    45   19   20 1   
    46   19   55 1   
    47   19   56 1   
    48   20   57 1   
    49   20   58 1   
    50   21   22 1   
    51   21   59 1   
    52   22   23 2   
    53   22   60 1   
    54   23   24 1   
    55   23   30 1   
    56   24   25 1   
    57   24   61 1   
    58   24   62 1   
    59   25   26 1   
    60   25   27 1   
    61   25   63 1   
    62   26   64 1   
    63   27   28 1   
    64   27   65 1   
    65   27   66 1   
    66   28   29 1   
    67   28   30 1   
    68   28   67 1   
    69   29   68 1   
    70   30   31 2   
    71   31   32 1   
    72   31   69 1   
@<TRIPOS>SUBSTRUCTURE
     1 TEJ         1 TEMP              0 ****  ****    0 ROOT
