@<TRIPOS>MOLECULE
TEJ
   69    72     1     0     0
SMALL
bcc


@<TRIPOS>ATOM
      1 O21         4.8210   -3.2540    0.8950 o         1 TEJ     -0.566500
      2 C17         5.3660   -2.1770    0.6840 c         1 TEJ      0.715800
      3 C18         6.6030   -1.5540    1.2080 ce        1 TEJ     -0.203400
      4 C20         7.4320   -2.1160    2.0830 c2        1 TEJ     -0.121000
      5 C19         6.7180   -0.2080    0.5700 c3        1 TEJ     -0.075200
      6 C15         5.5020   -0.1130   -0.3740 c3        1 TEJ      0.136100
      7 O16         4.7400   -1.3410   -0.2210 os        1 TEJ     -0.410900
      8 C12         4.5990    1.0660   -0.0520 c3        1 TEJ     -0.089400
      9 C10         3.5170    1.2530   -1.1130 c3        1 TEJ     -0.058700
     10 C11         4.0520    2.1630   -2.2060 c3        1 TEJ     -0.092100
     11 C7          2.2400    1.8190   -0.5020 c3        1 TEJ     -0.051700
     12 C8          1.2970    2.4210   -1.5620 c3        1 TEJ     -0.077400
     13 C9         -0.1380    2.2160   -1.0720 c3        1 TEJ     -0.073400
     14 C5          0.0080    1.6420    0.3300 c3        1 TEJ     -0.037500
     15 C6          1.3330    0.8300    0.2710 c3        1 TEJ     -0.038000
     16 C22         1.1630   -0.4670   -0.5030 c3        1 TEJ     -0.090100
     17 C4         -1.0880    0.8470    0.9440 c2        1 TEJ     -0.074400
     18 C3         -0.7390    0.4130    2.3300 c3        1 TEJ     -0.045200
     19 C2          0.6350   -0.2270    2.4340 c3        1 TEJ     -0.074400
     20 C1          1.7360    0.5230    1.7060 c3        1 TEJ     -0.066400
     21 C23        -2.2710    0.6280    0.3440 ce        1 TEJ     -0.153000
     22 C24        -3.3650   -0.1400    0.8910 ce        1 TEJ     -0.114000
     23 C25        -4.6550   -0.0320    0.5100 cf        1 TEJ     -0.070200
     24 C26        -5.6990   -0.9010    1.1250 c3        1 TEJ     -0.074200
     25 C27        -6.6100   -1.5170    0.0640 c3        1 TEJ      0.145100
     26 O34        -7.6920   -2.2050    0.6790 oh        1 TEJ     -0.600800
     27 C73        -7.2270   -0.4420   -0.8210 c3        1 TEJ     -0.070400
     28 C29        -6.1410    0.3960   -1.4870 c3        1 TEJ      0.183300
     29 O32        -5.5270   -0.4300   -2.4730 oh        1 TEJ     -0.596800
     30 C30        -5.1420    0.9220   -0.4860 cf        1 TEJ     -0.120200
     31 C31        -4.7620    2.2050   -0.5130 c2        1 TEJ     -0.194000
     32 H31        -5.1460    2.9160   -1.2570 ha        1 TEJ      0.120500
     33 H20         7.2480   -3.1200    2.4920 ha        1 TEJ      0.133000
     34 H20A        8.3390   -1.6090    2.4400 ha        1 TEJ      0.133000
     35 H19         6.6940    0.6040    1.3390 hc        1 TEJ      0.070200
     36 H51         7.6700   -0.1130   -0.0080 hc        1 TEJ      0.070200
     37 H15         5.8210   -0.0920   -1.4500 h1        1 TEJ      0.072700
     38 H12         4.1360    0.9090    0.9550 hc        1 TEJ      0.055200
     39 H12A        5.2340    1.9900    0.0120 hc        1 TEJ      0.055200
     40 H10         3.2880    0.2490   -1.5700 hc        1 TEJ      0.073700
     41 H11         4.0880    3.2220   -1.8540 hc        1 TEJ      0.033700
     42 H11A        5.0860    1.8490   -2.4940 hc        1 TEJ      0.033700
     43 H11B        3.4120    2.1140   -3.1180 hc        1 TEJ      0.033700
     44 H7          2.5370    2.6380    0.2130 hc        1 TEJ      0.042700
     45 H8          1.5260    3.5040   -1.7100 hc        1 TEJ      0.042700
     46 H8A         1.4310    1.9040   -2.5450 hc        1 TEJ      0.042700
     47 H9         -0.7080    3.1760   -1.0600 hc        1 TEJ      0.044200
     48 H9A        -0.6770    1.5040   -1.7460 hc        1 TEJ      0.044200
     49 H5          0.1850    2.5170    1.0260 hc        1 TEJ      0.052700
     50 H22         2.0730   -1.1070   -0.3890 hc        1 TEJ      0.043700
     51 H22A        0.2790   -1.0340   -0.1250 hc        1 TEJ      0.043700
     52 H22B        1.0040   -0.2570   -1.5890 hc        1 TEJ      0.043700
     53 H3         -0.7720    1.3240    2.9900 hc        1 TEJ      0.046700
     54 H3A        -1.4980   -0.3090    2.7310 hc        1 TEJ      0.046700
     55 H2          0.9090   -0.3070    3.5200 hc        1 TEJ      0.043700
     56 H2A         0.5810   -1.2730    2.0290 hc        1 TEJ      0.043700
     57 H1          2.6580   -0.1160    1.7180 hc        1 TEJ      0.041700
     58 H1A         1.9700    1.4790    2.2440 hc        1 TEJ      0.041700
     59 H23        -2.4540    1.0520   -0.6620 ha        1 TEJ      0.127000
     60 H24        -3.0990   -0.8920    1.6570 ha        1 TEJ      0.126000
     61 H26        -5.2300   -1.7220    1.7290 hc        1 TEJ      0.053700
     62 H26A       -6.3240   -0.2840    1.8270 hc        1 TEJ      0.053700
     63 H27        -6.0190   -2.2330   -0.5760 h1        1 TEJ      0.054700
     64 HO34       -7.3050   -2.9180    1.2000 ho        1 TEJ      0.399000
     65 H73        -7.8570   -0.9300   -1.6080 hc        1 TEJ      0.066700
     66 H73A       -7.8830    0.2250   -0.2060 hc        1 TEJ      0.066700
     67 H29        -6.6280    1.2650   -2.0230 h1        1 TEJ      0.038700
     68 HO32       -4.6830   -0.0230   -2.7000 ho        1 TEJ      0.404000
     69 H31A       -4.0530    2.6220    0.2160 ha        1 TEJ      0.120500
@<TRIPOS>BOND
     1    1    2 2   
     2    2    3 1   
     3    2    7 1   
     4    3    4 2   
     5    3    5 1   
     6    4   33 1   
     7    4   34 1   
     8    5    6 1   
     9    5   35 1   
    10    5   36 1   
    11    6    7 1   
    12    6    8 1   
    13    6   37 1   
    14    8    9 1   
    15    8   38 1   
    16    8   39 1   
    17    9   10 1   
    18    9   11 1   
    19    9   40 1   
    20   10   41 1   
    21   10   42 1   
    22   10   43 1   
    23   11   12 1   
    24   11   15 1   
    25   11   44 1   
    26   12   13 1   
    27   12   45 1   
    28   12   46 1   
    29   13   14 1   
    30   13   47 1   
    31   13   48 1   
    32   14   15 1   
    33   14   17 1   
    34   14   49 1   
    35   15   16 1   
    36   15   20 1   
    37   16   50 1   
    38   16   51 1   
    39   16   52 1   
    40   17   18 1   
    41   17   21 2   
    42   18   19 1   
    43   18   53 1   
    44   18   54 1   
    45   19   20 1   
    46   19   55 1   
    47   19   56 1   
    48   20   57 1   
    49   20   58 1   
    50   21   22 1   
    51   21   59 1   
    52   22   23 2   
    53   22   60 1   
    54   23   24 1   
    55   23   30 1   
    56   24   25 1   
    57   24   61 1   
    58   24   62 1   
    59   25   26 1   
    60   25   27 1   
    61   25   63 1   
    62   26   64 1   
    63   27   28 1   
    64   27   65 1   
    65   27   66 1   
    66   28   29 1   
    67   28   30 1   
    68   28   67 1   
    69   29   68 1   
    70   30   31 2   
    71   31   32 1   
    72   31   69 1   
@<TRIPOS>SUBSTRUCTURE
     1 TEJ         1 TEMP              0 ****  ****    0 ROOT
