@<TRIPOS>MOLECULE
TEM
   22    20     1     0     0
SMALL
bcc


@<TRIPOS>ATOM
      1 O1         -1.6020   -0.6430   -1.1610 oh        1 TEM     -0.329000
      2 C2         -0.2210   -0.5530   -1.1880 c3        1 TEM      0.029000
      3 C3          0.3140   -0.5700    0.2290 c3        1 TEM     -0.072000
      4 N4         -0.0570    0.6460    0.8990 n3        1 TEM     -0.329000
      5 C5         -0.4910    0.6040    2.2770 c2        1 TEM      0.054000
      6 C6         -0.1040    1.5840    3.1470 c1        1 TEM     -0.370000
      7 C7          0.7690    2.6990    2.6770 c1        1 TEM      0.225000
      8 O8          1.9580    2.6360    2.8300 o         1 TEM     -0.302000
      9 C9          0.3570   -1.7460   -1.9610 c3        1 TEM     -0.234000
     10 C10        -0.0040   -1.6310   -3.4080 c2        1 TEM      0.187000
     11 O11        -0.8860   -2.3500   -3.8820 o         1 TEM     -0.286000
     12 HO1        -1.9550    0.0150   -1.6680 ho        1 TEM      0.217000
     13 H2          0.0420    0.2730   -1.6230 h1        1 TEM      0.083000
     14 H31         1.3050   -0.6460    0.2080 h1        1 TEM      0.097000
     15 H32        -0.0630   -1.3350    0.7100 h1        1 TEM      0.097000
     16 HN4        -0.0470    1.4320    0.4500 hn        1 TEM      0.214000
     17 H5         -1.0710   -0.1380    2.5910 h4        1 TEM      0.143000
     18 H6         -0.3980    1.5530    4.0820 ha        1 TEM      0.158000
     19 H7          0.3760    3.4700    2.2350 ha        1 TEM      0.061000
     20 H91         1.3400   -1.7510   -1.8680 hc        1 TEM      0.122000
     21 H92        -0.0110   -2.5800   -1.5970 hc        1 TEM      0.122000
     22 H10         0.4500   -0.9670   -3.9790 h4        1 TEM      0.113000
@<TRIPOS>BOND
     1    1    2 1   
     2    1   12 1   
     3    2    3 1   
     4    2    9 1   
     5    2   13 1   
     6    3    4 1   
     7    3   14 1   
     8    3   15 1   
     9    4    5 1   
    10    4   16 1   
    11    5    6 1   
    12    5   17 1   
    13    6   18 1   
    14    7    8 1   
    15    7   19 1   
    16    9   10 1   
    17    9   20 1   
    18    9   21 1   
    19   10   11 1   
    20   10   22 1   
@<TRIPOS>SUBSTRUCTURE
     1 TEM         1 TEMP              0 ****  ****    0 ROOT
