@<TRIPOS>MOLECULE
TEM
   23    22     1     0     0
SMALL
bcc


@<TRIPOS>ATOM
      1 O1          0.0540    0.2460    0.5410 oh        1 TEM     -0.633800
      2 C2          1.3780    0.1900    0.0370 c3        1 TEM      0.142100
      3 C3          2.2990    0.3220    1.2680 c3        1 TEM      0.106800
      4 N4          1.9380    1.5100    2.1020 n4        1 TEM     -0.655800
      5 C5          2.7360    1.5910    3.3190 c2        1 TEM     -0.054000
      6 C6          2.2780    2.0480    4.4950 ce        1 TEM     -0.182200
      7 C7          0.9030    2.5270    4.7690 c         1 TEM      0.557100
      8 O8          0.0630    2.6210    3.8700 o         1 TEM     -0.512100
      9 C9          1.6730   -1.1280   -0.6680 c3        1 TEM     -0.248400
     10 C10         0.8810   -1.2720   -1.9380 c         1 TEM      0.574900
     11 O11        -0.0700   -0.5340   -2.1990 o         1 TEM     -0.520100
     12 HO1        -0.5550    0.1740   -0.2130 ho        1 TEM      0.473000
     13 H2          1.5480    1.0480   -0.6760 h1        1 TEM      0.069700
     14 H31         2.1920   -0.5950    1.9150 hx        1 TEM      0.110700
     15 H32         3.3670    0.4230    0.9290 hx        1 TEM      0.110700
     16 HN4         2.0780    2.3690    1.5530 hn        1 TEM      0.481300
     17 H5          3.7790    1.2390    3.1800 hx        1 TEM      0.198000
     18 H6          2.9760    2.0790    5.3560 ha        1 TEM      0.198000
     19 H7          0.6860    2.7950    5.8260 h4        1 TEM      0.070200
     20 H91         1.4060   -1.9910    0.0020 hc        1 TEM      0.094700
     21 H92         2.7660   -1.1970   -0.9070 hc        1 TEM      0.094700
     22 H10         1.2070   -2.0930   -2.6120 h4        1 TEM      0.041200
     23 H42         0.9200    1.4550    2.3260 hn        1 TEM      0.481300
@<TRIPOS>BOND
     1    1    2 1   
     2    1   12 1   
     3    2    3 1   
     4    2    9 1   
     5    2   13 1   
     6    3    4 1   
     7    3   14 1   
     8    3   15 1   
     9    4    5 1   
    10    4   16 1   
    11    4   23 1   
    12    5    6 2   
    13    5   17 1   
    14    6    7 1   
    15    6   18 1   
    16    7    8 2   
    17    7   19 1   
    18    9   10 1   
    19    9   20 1   
    20    9   21 1   
    21   10   11 2   
    22   10   22 1   
@<TRIPOS>SUBSTRUCTURE
     1 TEM         1 TEMP              0 ****  ****    0 ROOT
