@<TRIPOS>MOLECULE
TEM
   23    22     1     0     0
SMALL
bcc


@<TRIPOS>ATOM
      1 O1          0.0660    0.2550    0.5170 oh        1 TEM     -0.633800
      2 C2          1.3980    0.1780    0.0380 c3        1 TEM      0.142100
      3 C3          2.2980    0.3110    1.2840 c3        1 TEM      0.106800
      4 N4          1.9370    1.5120    2.0990 n4        1 TEM     -0.655800
      5 C5          2.7120    1.5940    3.3310 c2        1 TEM     -0.053000
      6 C6          2.2390    2.0710    4.4930 ce        1 TEM     -0.182200
      7 C7          0.8660    2.5730    4.7350 c         1 TEM      0.557100
      8 O8          0.0450    2.6690    3.8190 o         1 TEM     -0.512100
      9 C9          1.6900   -1.1510   -0.6490 c3        1 TEM     -0.248400
     10 C10         0.9190   -1.2970   -1.9320 c         1 TEM      0.574900
     11 O11        -0.0180   -0.5500   -2.2170 o         1 TEM     -0.520100
     12 HO1        -0.5310    0.1820   -0.2470 ho        1 TEM      0.473000
     13 H2          1.5910    1.0270   -0.6800 h1        1 TEM      0.069700
     14 H31         2.1680   -0.5980    1.9380 hx        1 TEM      0.110700
     15 H32         3.3730    0.3960    0.9640 hx        1 TEM      0.110700
     16 HN4         2.0980    2.3640    1.5460 hn        1 TEM      0.481300
     17 H5          3.7530    1.2260    3.2160 hx        1 TEM      0.198000
     18 H6          2.9200    2.1020    5.3670 ha        1 TEM      0.198000
     19 H7          0.6320    2.8550    5.7850 h4        1 TEM      0.070200
     20 H91         2.7870   -1.2340   -0.8670 hc        1 TEM      0.094700
     21 H92         1.4000   -2.0030    0.0240 hc        1 TEM      0.094700
     22 H10         1.2480   -2.1280   -2.5920 h4        1 TEM      0.041200
     23 H42         0.9140    1.4720    2.3050 hn        1 TEM      0.481300
@<TRIPOS>BOND
     1    1    2 1   
     2    1   12 1   
     3    2    3 1   
     4    2    9 1   
     5    2   13 1   
     6    3    4 1   
     7    3   14 1   
     8    3   15 1   
     9    4    5 1   
    10    4   16 1   
    11    4   23 1   
    12    5    6 2   
    13    5   17 1   
    14    6    7 1   
    15    6   18 1   
    16    7    8 2   
    17    7   19 1   
    18    9   10 1   
    19    9   20 1   
    20    9   21 1   
    21   10   11 2   
    22   10   22 1   
@<TRIPOS>SUBSTRUCTURE
     1 TEM         1 TEMP              0 ****  ****    0 ROOT
