@<TRIPOS>MOLECULE
TEM
   22    21     1     0     0
SMALL
bcc


@<TRIPOS>ATOM
      1 O1          1.5380   -0.1770    1.6670 oh        1 TEM     -0.593800
      2 C2          0.1550    0.1310    1.6580 c3        1 TEM      0.130100
      3 C3         -0.5120   -0.3610    0.3570 c3        1 TEM      0.174800
      4 N4          0.0910    0.2120   -0.8160 nh        1 TEM     -0.761000
      5 C5         -0.4280   -0.0710   -2.0570 c2        1 TEM      0.135000
      6 C6          0.2240    0.1190   -3.2340 ce        1 TEM     -0.394200
      7 C7         -0.4410   -0.1120   -4.5070 c         1 TEM      0.580100
      8 O8          0.1180    0.0300   -5.6000 o         1 TEM     -0.546100
      9 C9         -0.5700   -0.4770    2.8510 c3        1 TEM     -0.242400
     10 C10        -0.0060    0.0230    4.1490 c         1 TEM      0.565900
     11 O11        -0.6590    0.0300    5.1920 o         1 TEM     -0.516100
     12 HO1         1.6260   -1.1380    1.6480 ho        1 TEM      0.403000
     13 H2          0.1300    1.2570    1.7140 h1        1 TEM      0.098700
     14 H31        -0.4510   -1.4890    0.3330 h1        1 TEM      0.044700
     15 H32        -1.6020   -0.0760    0.3830 h1        1 TEM      0.044700
     16 HN4         1.0660    0.4120   -0.7460 hn        1 TEM      0.433800
     17 H5         -1.4780   -0.4300   -2.0460 h4        1 TEM      0.136000
     18 H6          1.2680    0.4630   -3.2840 ha        1 TEM      0.151000
     19 H7         -1.5080   -0.4350   -4.4520 h4        1 TEM     -0.023800
     20 H91        -1.6640   -0.2380    2.7910 hc        1 TEM      0.082200
     21 H92        -0.4670   -1.5960    2.8370 hc        1 TEM      0.082200
     22 H10         1.0490    0.3750    4.1040 h4        1 TEM      0.018200
@<TRIPOS>BOND
     1    1    2 1   
     2    1   12 1   
     3    2    3 1   
     4    2    9 1   
     5    2   13 1   
     6    3    4 1   
     7    3   14 1   
     8    3   15 1   
     9    4    5 1   
    10    4   16 1   
    11    5    6 2   
    12    5   17 1   
    13    6    7 1   
    14    6   18 1   
    15    7    8 2   
    16    7   19 1   
    17    9   10 1   
    18    9   20 1   
    19    9   21 1   
    20   10   11 2   
    21   10   22 1   
@<TRIPOS>SUBSTRUCTURE
     1 TEM         1 TEMP              0 ****  ****    0 ROOT
