@<TRIPOS>MOLECULE
TEN
   26    25     1     0     0
SMALL
bcc


@<TRIPOS>ATOM
      1 P1         -0.1520    0.9070   -0.5140 p5        1 TEN      1.594500
      2 O1          1.2660    1.2000   -0.6660 o         1 TEN     -0.803300
      3 O2         -0.6440    0.7630    1.0040 os        1 TEN     -0.567867
      4 C1          0.4090    0.7120    1.9500 c3        1 TEN      0.167400
      5 C2         -0.1850    0.6410    3.3350 c3        1 TEN     -0.097100
      6 O3         -0.6190   -0.4820   -1.1610 os        1 TEN     -0.567867
      7 C3          0.4510   -1.3130   -1.5780 c3        1 TEN      0.167400
      8 C4         -0.1190   -2.5520   -2.2220 c3        1 TEN     -0.097100
      9 O4         -1.1990    1.9400   -1.1210 os        1 TEN     -0.567867
     10 C5         -2.5640    1.5970   -0.9380 c3        1 TEN      0.167400
     11 C6         -3.4150    2.6710   -1.5680 c3        1 TEN     -0.097100
     12 H11         1.0450    1.6300    1.8140 h1        1 TEN      0.044700
     13 H12         1.0300   -0.1960    1.7180 h1        1 TEN      0.044700
     14 H21        -0.8100    1.5440    3.5360 hc        1 TEN      0.048144
     15 H22         0.6380    0.5900    4.0870 hc        1 TEN      0.048144
     16 H23        -0.8320   -0.2620    3.4350 hc        1 TEN      0.048144
     17 H31         1.0620   -1.5630   -0.6680 h1        1 TEN      0.044700
     18 H32         1.0900   -0.7260   -2.2930 h1        1 TEN      0.044700
     19 H41        -0.7350   -2.2790   -3.1120 hc        1 TEN      0.048144
     20 H42         0.7170   -3.2180   -2.5440 hc        1 TEN      0.048144
     21 H43        -0.7700   -3.1020   -1.5010 hc        1 TEN      0.048144
     22 H51        -2.7530    1.5150    0.1670 h1        1 TEN      0.044700
     23 H52        -2.7350    0.5970   -1.4240 h1        1 TEN      0.044700
     24 H61        -3.1910    2.7560   -2.6580 hc        1 TEN      0.048144
     25 H62        -3.2080    3.6590   -1.0910 hc        1 TEN      0.048144
     26 H63        -4.4930    2.4150   -1.4320 hc        1 TEN      0.048144
@<TRIPOS>BOND
     1    1    2 2   
     2    1    3 1   
     3    1    6 1   
     4    1    9 1   
     5    3    4 1   
     6    4    5 1   
     7    4   12 1   
     8    4   13 1   
     9    5   14 1   
    10    5   15 1   
    11    5   16 1   
    12    6    7 1   
    13    7    8 1   
    14    7   17 1   
    15    7   18 1   
    16    8   19 1   
    17    8   20 1   
    18    8   21 1   
    19    9   10 1   
    20   10   11 1   
    21   10   22 1   
    22   10   23 1   
    23   11   24 1   
    24   11   25 1   
    25   11   26 1   
@<TRIPOS>SUBSTRUCTURE
     1 TEN         1 TEMP              0 ****  ****    0 ROOT
