@<TRIPOS>MOLECULE
TEN
   26    25     1     0     0
SMALL
bcc


@<TRIPOS>ATOM
      1 P1         -0.1080    0.8610   -0.4960 p5        1 TEN      1.594500
      2 O1          1.3300    1.0560   -0.6080 o         1 TEN     -0.803300
      3 O2         -0.6510    0.7540    1.0070 os        1 TEN     -0.567867
      4 C1          0.3690    0.6350    1.9830 c3        1 TEN      0.167400
      5 C2         -0.2670    0.6070    3.3500 c3        1 TEN     -0.097100
      6 O3         -0.6500   -0.4940   -1.1560 os        1 TEN     -0.567867
      7 C3          0.3710   -1.3980   -1.5410 c3        1 TEN      0.167400
      8 C4         -0.2630   -2.5960   -2.2020 c3        1 TEN     -0.097100
      9 O4         -1.0650    1.9620   -1.1320 os        1 TEN     -0.567867
     10 C5         -2.4550    1.7120   -0.9880 c3        1 TEN      0.167400
     11 C6         -3.2130    2.8420   -1.6410 c3        1 TEN     -0.097100
     12 H11         1.0690    1.5070    1.8640 h1        1 TEN      0.044700
     13 H12         0.9340   -0.3140    1.7700 h1        1 TEN      0.044700
     14 H21         0.5300    0.5020    4.1250 hc        1 TEN      0.048144
     15 H22        -0.9760   -0.2510    3.4330 hc        1 TEN      0.048144
     16 H23        -0.8350    1.5500    3.5330 hc        1 TEN      0.048144
     17 H31         0.9360   -1.6870   -0.6130 h1        1 TEN      0.044700
     18 H32         1.0710   -0.8580   -2.2370 h1        1 TEN      0.044700
     19 H41        -0.9720   -3.0980   -1.5010 hc        1 TEN      0.048144
     20 H42        -0.8320   -2.2830   -3.1100 hc        1 TEN      0.048144
     21 H43         0.5340   -3.3180   -2.4990 hc        1 TEN      0.048144
     22 H51        -2.6790    0.7260   -1.4800 h1        1 TEN      0.044700
     23 H52        -2.6800    1.6450    0.1110 h1        1 TEN      0.044700
     24 H61        -4.3090    2.6590   -1.5360 hc        1 TEN      0.048144
     25 H62        -2.9520    2.9100   -2.7240 hc        1 TEN      0.048144
     26 H63        -2.9530    3.8140   -1.1580 hc        1 TEN      0.048144
@<TRIPOS>BOND
     1    1    2 2   
     2    1    3 1   
     3    1    6 1   
     4    1    9 1   
     5    3    4 1   
     6    4    5 1   
     7    4   12 1   
     8    4   13 1   
     9    5   14 1   
    10    5   15 1   
    11    5   16 1   
    12    6    7 1   
    13    7    8 1   
    14    7   17 1   
    15    7   18 1   
    16    8   19 1   
    17    8   20 1   
    18    8   21 1   
    19    9   10 1   
    20   10   11 1   
    21   10   22 1   
    22   10   23 1   
    23   11   24 1   
    24   11   25 1   
    25   11   26 1   
@<TRIPOS>SUBSTRUCTURE
     1 TEN         1 TEMP              0 ****  ****    0 ROOT
