@<TRIPOS>MOLECULE
TEN
   26    25     1     0     0
SMALL
bcc


@<TRIPOS>ATOM
      1 P1         -0.3780    0.7620    0.0000 p5        1 TEN      1.594500
      2 O1          0.3460    2.0250    0.0010 o         1 TEN     -0.803300
      3 O2         -0.0590   -0.1900    1.2490 os        1 TEN     -0.567867
      4 C1          1.0400    0.2370    2.0350 c3        1 TEN      0.167400
      5 C2          1.1940   -0.7020    3.2050 c3        1 TEN     -0.097100
      6 O3         -0.0590   -0.1890   -1.2490 os        1 TEN     -0.567867
      7 C3          1.0420    0.2380   -2.0330 c3        1 TEN      0.167400
      8 C4          1.1960   -0.6990   -3.2040 c3        1 TEN     -0.097100
      9 O4         -1.9680    0.8100   -0.0000 os        1 TEN     -0.567867
     10 C5         -2.6130   -0.4540   -0.0010 c3        1 TEN      0.167400
     11 C6         -4.1050   -0.2290   -0.0010 c3        1 TEN     -0.097100
     12 H11         0.8420    1.2920    2.3680 h1        1 TEN      0.044700
     13 H12         1.9510    0.2310    1.3760 h1        1 TEN      0.044700
     14 H21         2.0650   -0.3800    3.8240 hc        1 TEN      0.048144
     15 H22         0.2730   -0.6920    3.8350 hc        1 TEN      0.048144
     16 H23         1.3630   -1.7460    2.8480 hc        1 TEN      0.048144
     17 H31         0.8440    1.2940   -2.3660 h1        1 TEN      0.044700
     18 H32         1.9520    0.2320   -1.3740 h1        1 TEN      0.044700
     19 H41         2.0680   -0.3760   -3.8220 hc        1 TEN      0.048144
     20 H42         1.3640   -1.7430   -2.8480 hc        1 TEN      0.048144
     21 H43         0.2750   -0.6880   -3.8350 hc        1 TEN      0.048144
     22 H51        -2.2790   -1.0090   -0.9190 h1        1 TEN      0.044700
     23 H52        -2.2800   -1.0100    0.9170 h1        1 TEN      0.044700
     24 H61        -4.6260   -1.2160   -0.0020 hc        1 TEN      0.048144
     25 H62        -4.4110    0.3490    0.9030 hc        1 TEN      0.048144
     26 H63        -4.4100    0.3500   -0.9050 hc        1 TEN      0.048144
@<TRIPOS>BOND
     1    1    2 2   
     2    1    3 1   
     3    1    6 1   
     4    1    9 1   
     5    3    4 1   
     6    4    5 1   
     7    4   12 1   
     8    4   13 1   
     9    5   14 1   
    10    5   15 1   
    11    5   16 1   
    12    6    7 1   
    13    7    8 1   
    14    7   17 1   
    15    7   18 1   
    16    8   19 1   
    17    8   20 1   
    18    8   21 1   
    19    9   10 1   
    20   10   11 1   
    21   10   22 1   
    22   10   23 1   
    23   11   24 1   
    24   11   25 1   
    25   11   26 1   
@<TRIPOS>SUBSTRUCTURE
     1 TEN         1 TEMP              0 ****  ****    0 ROOT
