@<TRIPOS>MOLECULE
TEO
   12    11     1     0     0
SMALL
bcc


@<TRIPOS>ATOM
      1 C1          0.1250   -0.5000   -0.2290 c         1 TEO      0.894600
      2 O1A        -0.9340   -0.2340    0.4360 o         1 TEO     -0.948300
      3 O1B         0.0170   -1.2730   -1.2470 o         1 TEO     -0.948300
      4 C2          1.5210    0.0110    0.1990 c3        1 TEO      0.228300
      5 O2          1.6880   -0.4810    1.5780 oh        1 TEO     -0.738800
      6 C3          1.7400    1.4440    0.0920 c2        1 TEO     -0.749200
      7 C4          2.9950    2.0930   -0.1580 c         1 TEO      0.921600
      8 O4A         3.0710    3.3960   -0.1980 o         1 TEO     -1.036300
      9 O4B         4.1190    1.4700   -0.3480 o         1 TEO     -1.036300
     10 H2          2.3050   -0.5810   -0.3550 h1        1 TEO      0.004700
     11 HO2         1.4800    0.2700    2.1360 ho        1 TEO      0.360000
     12 H3          0.8610    2.0820    0.1960 ha        1 TEO      0.048000
@<TRIPOS>BOND
     1    1    2 1   
     2    1    3 1   
     3    1    4 1   
     4    4    5 1   
     5    4    6 1   
     6    4   10 1   
     7    5   11 1   
     8    6    7 2   
     9    6   12 1   
    10    7    8 1   
    11    7    9 1   
@<TRIPOS>SUBSTRUCTURE
     1 TEO         1 TEMP              0 ****  ****    0 ROOT
