@<TRIPOS>MOLECULE
TEO
   12    11     1     0     0
SMALL
bcc


@<TRIPOS>ATOM
      1 C1          1.9940    0.3360    0.1060 c         1 TEO      0.904600
      2 O1A         2.5020    0.2160   -1.0580 o         1 TEO     -0.943800
      3 O1B         2.7250    0.8590    1.0240 o         1 TEO     -0.943800
      4 C2          0.5770   -0.1590    0.4810 c3        1 TEO      0.250300
      5 O2          0.5020   -1.5610    0.1200 oh        1 TEO     -0.724800
      6 C3         -0.5420    0.6330   -0.0290 c2        1 TEO     -0.755200
      7 C4         -1.9200    0.2640    0.0680 c         1 TEO      0.913600
      8 O4A        -2.8700    1.0740   -0.3100 o         1 TEO     -1.043300
      9 O4B        -2.3230   -0.8950    0.5110 o         1 TEO     -1.043300
     10 H2          0.5690   -0.1910    1.6260 h1        1 TEO     -0.079300
     11 HO2        -0.4290   -1.7040   -0.0970 ho        1 TEO      0.415000
     12 H3         -0.2990    1.5810   -0.5080 ha        1 TEO      0.051000
@<TRIPOS>BOND
     1    1    2 1   
     2    1    3 1   
     3    1    4 1   
     4    4    5 1   
     5    4    6 1   
     6    4   10 1   
     7    5   11 1   
     8    6    7 2   
     9    6   12 1   
    10    7    8 1   
    11    7    9 1   
@<TRIPOS>SUBSTRUCTURE
     1 TEO         1 TEMP              0 ****  ****    0 ROOT
