@<TRIPOS>MOLECULE
TEP
   21    22     1     0     0
SMALL
bcc


@<TRIPOS>ATOM
      1 C1         -0.0210    0.1050    0.0050 c3        1 TEP      0.080300
      2 N1          1.4220    0.0530   -0.0460 n         1 TEP     -0.484400
      3 C2          2.0960    0.0470    1.2030 c         1 TEP      0.814500
      4 O2          1.4340    0.0860    2.2630 o         1 TEP     -0.635500
      5 N3          3.5110   -0.0020    1.2630 n         1 TEP     -0.417300
      6 C3          4.2000   -0.0080    2.5270 c3        1 TEP      0.090300
      7 C4          4.2180   -0.0440    0.0710 cc        1 TEP      0.487200
      8 C5          3.5300   -0.0380   -1.1840 cd        1 TEP     -0.353200
      9 C6          2.0830    0.0110   -1.2910 c         1 TEP      0.762100
     10 O6          1.4560    0.0180   -2.3650 o         1 TEP     -0.624500
     11 N7          4.5140   -0.0880   -2.1710 na        1 TEP     -0.266900
     12 C8          5.7330   -0.1220   -1.5030 cd        1 TEP      0.448400
     13 N9          5.6050   -0.0970   -0.1470 nc        1 TEP     -0.684000
     14 H11        -0.3440    1.0360    0.5440 h1        1 TEP      0.063700
     15 H12        -0.4080   -0.7860    0.5680 h1        1 TEP      0.063700
     16 H13        -0.4330    0.1060   -1.0380 h1        1 TEP      0.063700
     17 H31         3.4540    0.0340    3.3640 h1        1 TEP      0.064033
     18 H32         4.8120   -0.9460    2.6140 h1        1 TEP      0.064033
     19 H33         4.8830    0.8810    2.5850 h1        1 TEP      0.064033
     20 HN7         4.3430   -0.0960   -3.1430 hn        1 TEP      0.327700
     21 H8          6.6960   -0.1640   -2.0270 h5        1 TEP      0.072100
@<TRIPOS>BOND
     1    1    2 1   
     2    1   14 1   
     3    1   15 1   
     4    1   16 1   
     5    2    3 1   
     6    2    9 1   
     7    3    4 2   
     8    3    5 1   
     9    5    6 1   
    10    5    7 1   
    11    6   17 1   
    12    6   18 1   
    13    6   19 1   
    14    7    8 2   
    15    7   13 1   
    16    8    9 1   
    17    8   11 1   
    18    9   10 2   
    19   11   12 1   
    20   11   20 1   
    21   12   13 2   
    22   12   21 1   
@<TRIPOS>SUBSTRUCTURE
     1 TEP         1 TEMP              0 ****  ****    0 ROOT
