@<TRIPOS>MOLECULE
TEP
   21    22     1     0     0
SMALL
bcc


@<TRIPOS>ATOM
      1 C1         -0.0210    0.1120   -0.0030 c3        1 TEP      0.080300
      2 N1          1.4220    0.0560   -0.0510 n         1 TEP     -0.484400
      3 C2          2.0940    0.0570    1.2010 c         1 TEP      0.814500
      4 O2          1.4290    0.1050    2.2590 o         1 TEP     -0.635500
      5 N3          3.5080    0.0050    1.2640 n         1 TEP     -0.417300
      6 C3          4.1940    0.0060    2.5300 c3        1 TEP      0.090300
      7 C4          4.2180   -0.0480    0.0750 cc        1 TEP      0.487200
      8 C5          3.5330   -0.0490   -1.1830 cd        1 TEP     -0.353200
      9 C6          2.0870    0.0040   -1.2930 c         1 TEP      0.762100
     10 O6          1.4630    0.0040   -2.3690 o         1 TEP     -0.624500
     11 N7          4.5200   -0.1080   -2.1670 na        1 TEP     -0.266900
     12 C8          5.7370   -0.1400   -1.4950 cd        1 TEP      0.448400
     13 N9          5.6050   -0.1050   -0.1400 nc        1 TEP     -0.684000
     14 H11        -0.3420    1.0480    0.5260 h1        1 TEP      0.063700
     15 H12        -0.4120   -0.7730    0.5670 h1        1 TEP      0.063700
     16 H13        -0.4300    0.1040   -1.0480 h1        1 TEP      0.063700
     17 H31         3.4450    0.0520    3.3650 h1        1 TEP      0.064033
     18 H32         4.8070   -0.9300    2.6240 h1        1 TEP      0.064033
     19 H33         4.8750    0.8970    2.5850 h1        1 TEP      0.064033
     20 HN7         4.3510   -0.1230   -3.1390 hn        1 TEP      0.327700
     21 H8          6.7010   -0.1880   -2.0170 h5        1 TEP      0.072100
@<TRIPOS>BOND
     1    1    2 1   
     2    1   14 1   
     3    1   15 1   
     4    1   16 1   
     5    2    3 1   
     6    2    9 1   
     7    3    4 2   
     8    3    5 1   
     9    5    6 1   
    10    5    7 1   
    11    6   17 1   
    12    6   18 1   
    13    6   19 1   
    14    7    8 2   
    15    7   13 1   
    16    8    9 1   
    17    8   11 1   
    18    9   10 2   
    19   11   12 1   
    20   11   20 1   
    21   12   13 2   
    22   12   21 1   
@<TRIPOS>SUBSTRUCTURE
     1 TEP         1 TEMP              0 ****  ****    0 ROOT
