@<TRIPOS>MOLECULE
TEP
   21    22     1     0     0
SMALL
bcc


@<TRIPOS>ATOM
      1 C1          1.2950   -0.0020    2.7520 c3        1 TEP      0.080300
      2 N1          0.6900   -0.0010    1.4410 n         1 TEP     -0.484400
      3 C2         -0.7300   -0.0000    1.4030 c         1 TEP      0.814500
      4 O2         -1.3770    0.0000    2.4730 o         1 TEP     -0.635500
      5 N3         -1.4220    0.0000    0.1660 n         1 TEP     -0.417300
      6 C3         -2.8610    0.0010    0.1230 c3        1 TEP      0.090300
      7 C4         -0.6780    0.0000   -1.0030 cc        1 TEP      0.487200
      8 C5          0.7530   -0.0010   -0.9560 cd        1 TEP     -0.353200
      9 C6          1.5010   -0.0010    0.2870 c         1 TEP      0.762100
     10 O6          2.7430   -0.0020    0.3620 o         1 TEP     -0.624500
     11 N7          1.1880   -0.0010   -2.2810 na        1 TEP     -0.266900
     12 C8          0.0420    0.0000   -3.0670 cd        1 TEP      0.448400
     13 N9         -1.1090    0.0010   -2.3400 nc        1 TEP     -0.684000
     14 H11         0.9630   -0.9130    3.3180 h1        1 TEP      0.063700
     15 H12         2.4120   -0.0030    2.6480 h1        1 TEP      0.063700
     16 H13         0.9660    0.9100    3.3180 h1        1 TEP      0.063700
     17 H31        -3.2710    0.0010    1.1680 h1        1 TEP      0.064033
     18 H32        -3.2180    0.9160   -0.4220 h1        1 TEP      0.064033
     19 H33        -3.2190   -0.9120   -0.4230 h1        1 TEP      0.064033
     20 HN7         2.1330   -0.0010   -2.5680 hn        1 TEP      0.327700
     21 H8          0.0750    0.0000   -4.1640 h5        1 TEP      0.072100
@<TRIPOS>BOND
     1    1    2 1   
     2    1   14 1   
     3    1   15 1   
     4    1   16 1   
     5    2    3 1   
     6    2    9 1   
     7    3    4 2   
     8    3    5 1   
     9    5    6 1   
    10    5    7 1   
    11    6   17 1   
    12    6   18 1   
    13    6   19 1   
    14    7    8 2   
    15    7   13 1   
    16    8    9 1   
    17    8   11 1   
    18    9   10 2   
    19   11   12 1   
    20   11   20 1   
    21   12   13 2   
    22   12   21 1   
@<TRIPOS>SUBSTRUCTURE
     1 TEP         1 TEMP              0 ****  ****    0 ROOT
