@<TRIPOS>MOLECULE
TER
   40    39     1     0     0
SMALL
bcc


@<TRIPOS>ATOM
      1 N1         -6.7120    0.2610   -4.3180 n3        1 TER     -0.916800
      2 C2         -5.2670    0.2250   -4.3080 c3        1 TER      0.159800
      3 C3         -4.7650    0.1840   -2.8610 c3        1 TER     -0.088400
      4 C4         -3.2130    0.3280   -2.8470 c3        1 TER      0.164800
      5 N5         -2.7200    0.2510   -1.4470 n3        1 TER     -0.825200
      6 C6         -1.2510    0.3140   -1.4380 c3        1 TER      0.164800
      7 C7         -0.7200   -0.1500   -0.0460 c3        1 TER     -0.089400
      8 C8          0.7990    0.0250    0.0060 c3        1 TER      0.165800
      9 N9          1.3020   -0.5270    1.2280 n3        1 TER     -0.824200
     10 C10         2.6460   -0.0610    1.4470 c3        1 TER      0.164800
     11 C11         3.1270   -0.5200    2.8150 c3        1 TER     -0.083400
     12 C12         4.5590    0.0080    3.0600 c3        1 TER     -0.082400
     13 C13         5.0500   -0.4620    4.4310 c3        1 TER      0.159800
     14 N14         6.3430    0.0920    4.6890 n3        1 TER     -0.916800
     15 HN11       -7.0340   -0.5120   -4.6890 hn        1 TER      0.349800
     16 HN12       -6.9940    0.9740   -4.8100 hn        1 TER      0.349800
     17 H21        -4.9170    1.0270   -4.7530 h1        1 TER      0.024700
     18 H22        -4.9570   -0.5730   -4.7830 h1        1 TER      0.024700
     19 H31        -5.0140   -0.6580   -2.4560 hc        1 TER      0.053700
     20 H32        -5.1650    0.9210   -2.3570 hc        1 TER      0.053700
     21 H41        -2.9610    1.1960   -3.2370 h1        1 TER      0.028700
     22 H42        -2.8150   -0.3940   -3.3740 h1        1 TER      0.028700
     23 HN5        -3.0580    0.9520   -0.9660 hn        1 TER      0.357800
     24 H61        -0.8930   -0.2760   -2.1400 h1        1 TER      0.028700
     25 H62        -0.9630    1.2360   -1.6080 h1        1 TER      0.028700
     26 H71        -1.1320    0.3870    0.6540 hc        1 TER      0.053200
     27 H72        -0.9440   -1.0930    0.0920 hc        1 TER      0.053200
     28 H81         1.2070   -0.4380   -0.7540 h1        1 TER      0.029200
     29 H82         1.0170    0.9690   -0.0360 h1        1 TER      0.029200
     30 HN9         1.3020   -1.4380    1.1720 hn        1 TER      0.355800
     31 H101        2.6620    0.9180    1.4070 h1        1 TER      0.029200
     32 H102        3.2380   -0.4260    0.7510 h1        1 TER      0.029200
     33 H111        3.1300   -1.4920    2.8490 hc        1 TER      0.047200
     34 H112        2.5250   -0.1690    3.5090 hc        1 TER      0.047200
     35 H121        5.1560   -0.3330    2.3640 hc        1 TER      0.047700
     36 H122        4.5540    0.9890    3.0340 hc        1 TER      0.047700
     37 H131        4.4280   -0.1670    5.1180 h1        1 TER      0.025200
     38 H132        5.1070   -1.4430    4.4400 h1        1 TER      0.025200
     39 HN41        6.3550    0.4590    5.5270 hn        1 TER      0.348300
     40 HN42        6.9860   -0.5810    4.6360 hn        1 TER      0.348300
@<TRIPOS>BOND
     1    1    2 1   
     2    1   15 1   
     3    1   16 1   
     4    2    3 1   
     5    2   17 1   
     6    2   18 1   
     7    3    4 1   
     8    3   19 1   
     9    3   20 1   
    10    4    5 1   
    11    4   21 1   
    12    4   22 1   
    13    5    6 1   
    14    5   23 1   
    15    6    7 1   
    16    6   24 1   
    17    6   25 1   
    18    7    8 1   
    19    7   26 1   
    20    7   27 1   
    21    8    9 1   
    22    8   28 1   
    23    8   29 1   
    24    9   10 1   
    25    9   30 1   
    26   10   11 1   
    27   10   31 1   
    28   10   32 1   
    29   11   12 1   
    30   11   33 1   
    31   11   34 1   
    32   12   13 1   
    33   12   35 1   
    34   12   36 1   
    35   13   14 1   
    36   13   37 1   
    37   13   38 1   
    38   14   39 1   
    39   14   40 1   
@<TRIPOS>SUBSTRUCTURE
     1 TER         1 TEMP              0 ****  ****    0 ROOT
