@<TRIPOS>MOLECULE
TER
   44    43     1     0     0
SMALL
bcc


@<TRIPOS>ATOM
      1 N1         -0.0980    0.0000   -0.2720 n4        1 TER     -0.837600
      2 C2          1.3790   -0.0010   -0.0860 c3        1 TER      0.105800
      3 C3          1.8190   -0.0000    1.3820 c3        1 TER     -0.138400
      4 C4          3.3500   -0.0010    1.4340 c3        1 TER      0.110800
      5 N5          3.8890   -0.0010    2.8360 n4        1 TER     -0.765000
      6 C6          5.3890   -0.0020    2.8550 c3        1 TER      0.110800
      7 C7          5.9750   -0.0020    4.2720 c3        1 TER     -0.137400
      8 C8          7.5060   -0.0030    4.1800 c3        1 TER      0.109800
      9 N9          8.1800   -0.0030    5.5160 n4        1 TER     -0.765000
     10 C10         9.6810   -0.0040    5.3910 c3        1 TER      0.108800
     11 C11        10.3820   -0.0040    6.7510 c3        1 TER     -0.108400
     12 C12        11.8920   -0.0050    6.5510 c3        1 TER     -0.105400
     13 C13        12.5840   -0.0050    7.9160 c3        1 TER      0.101800
     14 N14        14.0710   -0.0060    7.8340 n4        1 TER     -0.837600
     15 HN11       -0.3140    0.0000   -1.2830 hn        1 TER      0.486800
     16 HN12       -0.5260   -0.8350    0.1500 hn        1 TER      0.486800
     17 H21         1.7850   -0.9190   -0.6090 hx        1 TER      0.132700
     18 H22         1.7860    0.9170   -0.6090 hx        1 TER      0.132700
     19 H31         1.4120    0.9100    1.9040 hc        1 TER      0.099700
     20 H32         1.4110   -0.9100    1.9050 hc        1 TER      0.099700
     21 H41         3.7530    0.9170    0.9120 hx        1 TER      0.128700
     22 H42         3.7520   -0.9200    0.9120 hx        1 TER      0.128700
     23 HN5         3.5410    0.8310    3.3330 hn        1 TER      0.467800
     24 H61         5.7370   -0.9210    2.2950 hx        1 TER      0.128700
     25 H62         5.7390    0.9150    2.2940 hx        1 TER      0.128700
     26 H71         5.6250    0.9080    4.8330 hc        1 TER      0.098700
     27 H72         5.6240   -0.9110    4.8340 hc        1 TER      0.098700
     28 H81         7.8580    0.9130    3.6190 hx        1 TER      0.126700
     29 H82         7.8570   -0.9210    3.6200 hx        1 TER      0.126700
     30 HN9         7.8890   -0.8340    6.0500 hn        1 TER      0.465800
     31 H101        9.9770    0.9130    4.8030 hx        1 TER      0.122700
     32 H102        9.9750   -0.9240    4.8050 hx        1 TER      0.122700
     33 H111       10.0850   -0.9110    7.3430 hc        1 TER      0.088700
     34 H112       10.0860    0.9060    7.3410 hc        1 TER      0.088700
     35 H121       12.1960    0.9020    5.9620 hc        1 TER      0.086700
     36 H122       12.1950   -0.9140    5.9640 hc        1 TER      0.086700
     37 H131       12.2780    0.9130    8.5010 hx        1 TER      0.125700
     38 H132       12.2760   -0.9210    8.5030 hx        1 TER      0.125700
     39 HN41       14.4130    0.8270    7.3390 hn        1 TER      0.480467
     40 HN42       14.4680   -0.0060    8.7870 hn        1 TER      0.480467
     41 H13        -0.5250    0.8360    0.1490 hn        1 TER      0.486800
     42 H52         3.5400   -0.8330    3.3330 hn        1 TER      0.467800
     43 H92         7.8910    0.8290    6.0480 hn        1 TER      0.465800
     44 H143       14.4110   -0.8420    7.3410 hn        1 TER      0.480467
@<TRIPOS>BOND
     1    1    2 1   
     2    1   15 1   
     3    1   16 1   
     4    1   41 1   
     5    2    3 1   
     6    2   17 1   
     7    2   18 1   
     8    3    4 1   
     9    3   19 1   
    10    3   20 1   
    11    4    5 1   
    12    4   21 1   
    13    4   22 1   
    14    5    6 1   
    15    5   23 1   
    16    5   42 1   
    17    6    7 1   
    18    6   24 1   
    19    6   25 1   
    20    7    8 1   
    21    7   26 1   
    22    7   27 1   
    23    8    9 1   
    24    8   28 1   
    25    8   29 1   
    26    9   10 1   
    27    9   30 1   
    28    9   43 1   
    29   10   11 1   
    30   10   31 1   
    31   10   32 1   
    32   11   12 1   
    33   11   33 1   
    34   11   34 1   
    35   12   13 1   
    36   12   35 1   
    37   12   36 1   
    38   13   14 1   
    39   13   37 1   
    40   13   38 1   
    41   14   39 1   
    42   14   40 1   
    43   14   44 1   
@<TRIPOS>SUBSTRUCTURE
     1 TER         1 TEMP              0 ****  ****    0 ROOT
