@<TRIPOS>MOLECULE
TER
   44    43     1     0     0
SMALL
bcc


@<TRIPOS>ATOM
      1 N1         -0.0990    0.0010   -0.2700 nz        1 TER     -0.837600
      2 C2          1.3790    0.0000   -0.0850 c3        1 TER      0.105800
      3 C3          1.8180    0.0000    1.3830 c3        1 TER     -0.138400
      4 C4          3.3490   -0.0010    1.4350 c3        1 TER      0.110800
      5 N5          3.8890   -0.0010    2.8370 ny        1 TER     -0.765000
      6 C6          5.3890   -0.0020    2.8550 c3        1 TER      0.110800
      7 C7          5.9760   -0.0010    4.2720 c3        1 TER     -0.137400
      8 C8          7.5070   -0.0040    4.1790 c3        1 TER      0.109800
      9 N9          8.1810   -0.0030    5.5160 ny        1 TER     -0.765000
     10 C10         9.6810   -0.0050    5.3910 c3        1 TER      0.108800
     11 C11        10.3830   -0.0040    6.7500 c3        1 TER     -0.108400
     12 C12        11.8920   -0.0070    6.5510 c3        1 TER     -0.105400
     13 C13        12.5840   -0.0050    7.9150 c3        1 TER      0.101800
     14 N14        14.0720   -0.0080    7.8330 nz        1 TER     -0.837600
     15 HN11       -0.3150    0.0010   -1.2820 hn        1 TER      0.486800
     16 HN12       -0.5270   -0.8340    0.1510 hn        1 TER      0.486800
     17 H21         1.7840   -0.9180   -0.6080 hx        1 TER      0.132700
     18 H22         1.7860    0.9180   -0.6090 hx        1 TER      0.132700
     19 H31         1.4120    0.9110    1.9050 hc        1 TER      0.099700
     20 H32         1.4110   -0.9090    1.9060 hc        1 TER      0.099700
     21 H41         3.7520    0.9170    0.9120 hx        1 TER      0.128700
     22 H42         3.7510   -0.9200    0.9130 hx        1 TER      0.128700
     23 HN5         3.5420    0.8320    3.3330 hn        1 TER      0.467800
     24 H61         5.7370   -0.9210    2.2960 hx        1 TER      0.128700
     25 H62         5.7390    0.9140    2.2940 hx        1 TER      0.128700
     26 H71         5.6270    0.9100    4.8320 hc        1 TER      0.098700
     27 H72         5.6240   -0.9090    4.8350 hc        1 TER      0.098700
     28 H81         7.8590    0.9120    3.6180 hx        1 TER      0.126700
     29 H82         7.8560   -0.9230    3.6210 hx        1 TER      0.126700
     30 HN9         7.8890   -0.8330    6.0500 hn        1 TER      0.465800
     31 H101        9.9780    0.9110    4.8020 hx        1 TER      0.122700
     32 H102        9.9750   -0.9260    4.8060 hx        1 TER      0.122700
     33 H111       10.0840   -0.9100    7.3440 hc        1 TER      0.088700
     34 H112       10.0880    0.9070    7.3400 hc        1 TER      0.088700
     35 H121       12.1980    0.8990    5.9600 hc        1 TER      0.086700
     36 H122       12.1940   -0.9170    5.9650 hc        1 TER      0.086700
     37 H131       12.2790    0.9150    8.4990 hx        1 TER      0.125700
     38 H132       12.2750   -0.9200    8.5040 hx        1 TER      0.125700
     39 HN41       14.4140    0.8250    7.3370 hn        1 TER      0.480467
     40 HN42       14.4680   -0.0060    8.7860 hn        1 TER      0.480467
     41 H13        -0.5260    0.8370    0.1510 hn        1 TER      0.486800
     42 H52         3.5400   -0.8320    3.3340 hn        1 TER      0.467800
     43 H92         7.8920    0.8310    6.0470 hn        1 TER      0.465800
     44 H143       14.4110   -0.8440    7.3420 hn        1 TER      0.480467
@<TRIPOS>BOND
     1    1    2 1   
     2    1   15 1   
     3    1   16 1   
     4    1   41 1   
     5    2    3 1   
     6    2   17 1   
     7    2   18 1   
     8    3    4 1   
     9    3   19 1   
    10    3   20 1   
    11    4    5 1   
    12    4   21 1   
    13    4   22 1   
    14    5    6 1   
    15    5   23 1   
    16    5   42 1   
    17    6    7 1   
    18    6   24 1   
    19    6   25 1   
    20    7    8 1   
    21    7   26 1   
    22    7   27 1   
    23    8    9 1   
    24    8   28 1   
    25    8   29 1   
    26    9   10 1   
    27    9   30 1   
    28    9   43 1   
    29   10   11 1   
    30   10   31 1   
    31   10   32 1   
    32   11   12 1   
    33   11   33 1   
    34   11   34 1   
    35   12   13 1   
    36   12   35 1   
    37   12   36 1   
    38   13   14 1   
    39   13   37 1   
    40   13   38 1   
    41   14   39 1   
    42   14   40 1   
    43   14   44 1   
@<TRIPOS>SUBSTRUCTURE
     1 TER         1 TEMP              0 ****  ****    0 ROOT
