@<TRIPOS>MOLECULE
TER
   40    39     1     0     0
SMALL
bcc


@<TRIPOS>ATOM
      1 N1          0.0730    0.3520   -8.0030 n3        1 TER     -0.915800
      2 C2         -0.5920    0.2300   -6.7280 c3        1 TER      0.160800
      3 C3          0.3770    0.0960   -5.5530 c3        1 TER     -0.087400
      4 C4         -0.4230   -0.0740   -4.2630 c3        1 TER      0.165800
      5 N5          0.4170   -0.2620   -3.0970 n3        1 TER     -0.823200
      6 C6         -0.3270   -0.2300   -1.8540 c3        1 TER      0.165800
      7 C7          0.5740   -0.2390   -0.6200 c3        1 TER     -0.088400
      8 C8         -0.3000   -0.2530    0.6330 c3        1 TER      0.165800
      9 N9          0.4700   -0.3140    1.8590 n3        1 TER     -0.824200
     10 C10        -0.3420   -0.1370    3.0460 c3        1 TER      0.164800
     11 C11         0.4850   -0.0260    4.3250 c3        1 TER     -0.083400
     12 C12        -0.4300    0.1110    5.5220 c3        1 TER     -0.082400
     13 C13         0.3950    0.2100    6.8050 c3        1 TER      0.159800
     14 N14        -0.4130    0.3020    7.9980 n3        1 TER     -0.916800
     15 HN11        0.7660    1.0730   -7.9820 hn        1 TER      0.348800
     16 HN12       -0.5910    0.5530   -8.7230 hn        1 TER      0.348800
     17 H21        -1.2360   -0.6950   -6.7750 h1        1 TER      0.024200
     18 H22        -1.2820    1.1010   -6.5150 h1        1 TER      0.024200
     19 H31         1.0280    1.0060   -5.4870 hc        1 TER      0.053700
     20 H32         1.0480   -0.7890   -5.7100 hc        1 TER      0.053700
     21 H41        -1.0760   -0.9880   -4.3540 h1        1 TER      0.028700
     22 H42        -1.1130    0.8160   -4.1510 h1        1 TER      0.028700
     23 HN5         1.1620    0.4090   -3.0830 hn        1 TER      0.355800
     24 H61        -0.9850   -1.1450   -1.8350 h1        1 TER      0.028700
     25 H62        -1.0110    0.6700   -1.7900 h1        1 TER      0.028700
     26 H71         1.2350    0.6660   -0.6190 hc        1 TER      0.053700
     27 H72         1.2370   -1.1430   -0.6360 hc        1 TER      0.053700
     28 H81        -0.9620   -1.1650    0.6090 h1        1 TER      0.028700
     29 H82        -0.9810    0.6510    0.6030 h1        1 TER      0.028700
     30 HN9         1.2220    0.3500    1.8400 hn        1 TER      0.354800
     31 H101       -1.0190   -1.0350    3.1250 h1        1 TER      0.029200
     32 H102       -1.0090    0.7740    2.9740 h1        1 TER      0.029200
     33 H111        1.1670    0.8630    4.2670 hc        1 TER      0.047700
     34 H112        1.1300   -0.9360    4.4430 hc        1 TER      0.047700
     35 H121       -1.1160   -0.7740    5.5790 hc        1 TER      0.047700
     36 H122       -1.0720    1.0240    5.4070 hc        1 TER      0.047700
     37 H131        1.1050    1.0840    6.6950 h1        1 TER      0.024700
     38 H132        1.0280   -0.7180    6.9010 h1        1 TER      0.024700
     39 HN41        0.1650    0.4710    8.7970 hn        1 TER      0.348300
     40 HN42       -1.0900    1.0340    7.9200 hn        1 TER      0.348300
@<TRIPOS>BOND
     1    1    2 1   
     2    1   15 1   
     3    1   16 1   
     4    2    3 1   
     5    2   17 1   
     6    2   18 1   
     7    3    4 1   
     8    3   19 1   
     9    3   20 1   
    10    4    5 1   
    11    4   21 1   
    12    4   22 1   
    13    5    6 1   
    14    5   23 1   
    15    6    7 1   
    16    6   24 1   
    17    6   25 1   
    18    7    8 1   
    19    7   26 1   
    20    7   27 1   
    21    8    9 1   
    22    8   28 1   
    23    8   29 1   
    24    9   10 1   
    25    9   30 1   
    26   10   11 1   
    27   10   31 1   
    28   10   32 1   
    29   11   12 1   
    30   11   33 1   
    31   11   34 1   
    32   12   13 1   
    33   12   35 1   
    34   12   36 1   
    35   13   14 1   
    36   13   37 1   
    37   13   38 1   
    38   14   39 1   
    39   14   40 1   
@<TRIPOS>SUBSTRUCTURE
     1 TER         1 TEMP              0 ****  ****    0 ROOT
