@<TRIPOS>MOLECULE
TES
   49    52     1     0     0
SMALL
bcc


@<TRIPOS>ATOM
      1 C1          0.0870   -0.0900    0.1390 c3        1 TES     -0.071400
      2 C2          1.5510    0.1990   -0.0980 c3        1 TES     -0.181400
      3 C3          2.2580    0.4010    1.2140 c         1 TES      0.570300
      4 O3          3.3750   -0.0720    1.4500 o         1 TES     -0.534100
      5 C4          1.5300    1.2510    2.1630 ce        1 TES     -0.264200
      6 C5          0.2310    1.5610    2.0170 c2        1 TES     -0.031400
      7 C6         -0.4110    2.5940    2.8800 c3        1 TES     -0.055200
      8 C7         -0.8270    3.7660    2.0090 c3        1 TES     -0.071400
      9 C8         -1.7210    3.3110    0.8680 c3        1 TES     -0.050700
     10 C9         -1.0650    2.1920    0.0340 c3        1 TES     -0.045700
     11 C10        -0.6540    1.0000    0.9280 c3        1 TES     -0.014800
     12 C11        -1.9630    1.7850   -1.1300 c3        1 TES     -0.074400
     13 C12        -2.4220    2.9530   -1.9920 c3        1 TES     -0.063400
     14 C13        -3.0610    4.0360   -1.1430 c3        1 TES     -0.044000
     15 C14        -2.0250    4.4570   -0.0750 c3        1 TES     -0.067700
     16 C15        -2.5640    5.7700    0.4770 c3        1 TES     -0.068400
     17 C16        -3.2340    6.4440   -0.7240 c3        1 TES     -0.117400
     18 C17        -3.3010    5.3920   -1.8530 c3        1 TES      0.142100
     19 O17        -4.5580    5.3800   -2.5050 oh        1 TES     -0.591800
     20 C18        -4.3790    3.5490   -0.5640 c3        1 TES     -0.077100
     21 C19        -1.8710    0.3220    1.5570 c3        1 TES     -0.087100
     22 H11        -0.4200   -0.2620   -0.8440 hc        1 TES      0.051700
     23 H12         0.0100   -1.0540    0.7130 hc        1 TES      0.051700
     24 H21         2.0210   -0.6470   -0.6640 hc        1 TES      0.070200
     25 H22         1.6760    1.1310   -0.7100 hc        1 TES      0.070200
     26 H4          2.1300    1.6580    2.9940 ha        1 TES      0.148000
     27 H61         0.2960    2.9480    3.6750 hc        1 TES      0.055200
     28 H62        -1.3070    2.1590    3.3970 hc        1 TES      0.055200
     29 H71         0.0860    4.2710    1.5970 hc        1 TES      0.047200
     30 H72        -1.3770    4.5200    2.6310 hc        1 TES      0.047200
     31 H8         -2.6840    2.9320    1.3100 hc        1 TES      0.058700
     32 H9         -0.1110    2.6080   -0.4020 hc        1 TES      0.049700
     33 H111       -1.4080    1.0750   -1.7990 hc        1 TES      0.043700
     34 H112       -2.8600    1.2400   -0.7350 hc        1 TES      0.043700
     35 H121       -1.5440    3.3780   -2.5460 hc        1 TES      0.046200
     36 H122       -3.1570    2.5840   -2.7530 hc        1 TES      0.046200
     37 H14        -1.0630    4.7050   -0.6160 hc        1 TES      0.047700
     38 H151       -3.3050    5.5870    1.2950 hc        1 TES      0.045200
     39 H152       -1.7430    6.4010    0.8950 hc        1 TES      0.045200
     40 H161       -4.2650    6.7860   -0.4600 hc        1 TES      0.048700
     41 H162       -2.6480    7.3330   -1.0590 hc        1 TES      0.048700
     42 H17        -2.4920    5.5770   -2.6110 h1        1 TES      0.034700
     43 HO7        -4.6870    6.2680   -2.8610 ho        1 TES      0.399000
     44 H181       -4.8150    4.3270    0.1080 hc        1 TES      0.040700
     45 H182       -5.1010    3.3600   -1.3970 hc        1 TES      0.040700
     46 H183       -4.2510    2.6040    0.0150 hc        1 TES      0.040700
     47 H191       -2.4210   -0.2650    0.7810 hc        1 TES      0.041033
     48 H192       -1.5450   -0.3770    2.3640 hc        1 TES      0.041033
     49 H193       -2.5750    1.0650    1.9990 hc        1 TES      0.041033
@<TRIPOS>BOND
     1    1    2 1   
     2    1   11 1   
     3    1   22 1   
     4    1   23 1   
     5    2    3 1   
     6    2   24 1   
     7    2   25 1   
     8    3    4 2   
     9    3    5 1   
    10    5    6 2   
    11    5   26 1   
    12    6    7 1   
    13    6   11 1   
    14    7    8 1   
    15    7   27 1   
    16    7   28 1   
    17    8    9 1   
    18    8   29 1   
    19    8   30 1   
    20    9   10 1   
    21    9   15 1   
    22    9   31 1   
    23   10   11 1   
    24   10   12 1   
    25   10   32 1   
    26   11   21 1   
    27   12   13 1   
    28   12   33 1   
    29   12   34 1   
    30   13   14 1   
    31   13   35 1   
    32   13   36 1   
    33   14   15 1   
    34   14   18 1   
    35   14   20 1   
    36   15   16 1   
    37   15   37 1   
    38   16   17 1   
    39   16   38 1   
    40   16   39 1   
    41   17   18 1   
    42   17   40 1   
    43   17   41 1   
    44   18   19 1   
    45   18   42 1   
    46   19   43 1   
    47   20   44 1   
    48   20   45 1   
    49   20   46 1   
    50   21   47 1   
    51   21   48 1   
    52   21   49 1   
@<TRIPOS>SUBSTRUCTURE
     1 TES         1 TEMP              0 ****  ****    0 ROOT
