@<TRIPOS>MOLECULE
TES
   49    52     1     0     0
SMALL
bcc


@<TRIPOS>ATOM
      1 C1          0.0910   -0.0920    0.1370 c3        1 TES     -0.071400
      2 C2          1.5560    0.2020   -0.0910 c3        1 TES     -0.181400
      3 C3          2.2570    0.4000    1.2240 c         1 TES      0.570300
      4 O3          3.3740   -0.0710    1.4620 o         1 TES     -0.534100
      5 C4          1.5230    1.2450    2.1740 ce        1 TES     -0.264200
      6 C5          0.2240    1.5520    2.0230 c2        1 TES     -0.031400
      7 C6         -0.4250    2.5800    2.8870 c3        1 TES     -0.055200
      8 C7         -0.8400    3.7550    2.0200 c3        1 TES     -0.071400
      9 C8         -1.7280    3.3020    0.8730 c3        1 TES     -0.050700
     10 C9         -1.0660    2.1880    0.0370 c3        1 TES     -0.045700
     11 C10        -0.6550    0.9930    0.9280 c3        1 TES     -0.014800
     12 C11        -1.9580    1.7840   -1.1320 c3        1 TES     -0.074400
     13 C12        -2.4160    2.9540   -1.9910 c3        1 TES     -0.063400
     14 C13        -3.0610    4.0320   -1.1400 c3        1 TES     -0.044000
     15 C14        -2.0300    4.4510   -0.0660 c3        1 TES     -0.067700
     16 C15        -2.5750    5.7610    0.4890 c3        1 TES     -0.068400
     17 C16        -3.2410    6.4380   -0.7120 c3        1 TES     -0.117400
     18 C17        -3.3010    5.3910   -1.8460 c3        1 TES      0.142100
     19 O17        -4.5550    5.3790   -2.5030 oh        1 TES     -0.591800
     20 C18        -4.3800    3.5400   -0.5690 c3        1 TES     -0.077100
     21 C19        -1.8740    0.3100    1.5490 c3        1 TES     -0.087100
     22 H11         0.0150   -1.0580    0.7080 hc        1 TES      0.051700
     23 H12        -0.4110   -0.2610   -0.8490 hc        1 TES      0.051700
     24 H21         2.0300   -0.6410   -0.6590 hc        1 TES      0.070200
     25 H22         1.6810    1.1370   -0.7000 hc        1 TES      0.070200
     26 H4          2.1180    1.6500    3.0090 ha        1 TES      0.148000
     27 H61         0.2780    2.9320    3.6880 hc        1 TES      0.055200
     28 H62        -1.3220    2.1400    3.3990 hc        1 TES      0.055200
     29 H71        -1.3940    4.5050    2.6430 hc        1 TES      0.047200
     30 H72         0.0740    4.2630    1.6140 hc        1 TES      0.047200
     31 H8         -2.6910    2.9190    1.3090 hc        1 TES      0.058700
     32 H9         -0.1110    2.6080   -0.3930 hc        1 TES      0.049700
     33 H111       -2.8550    1.2350   -0.7430 hc        1 TES      0.043700
     34 H112       -1.3990    1.0780   -1.8020 hc        1 TES      0.043700
     35 H121       -1.5370    3.3840   -2.5390 hc        1 TES      0.046200
     36 H122       -3.1470    2.5860   -2.7570 hc        1 TES      0.046200
     37 H14        -1.0670    4.7040   -0.6020 hc        1 TES      0.047700
     38 H151       -1.7570    6.3920    0.9130 hc        1 TES      0.045200
     39 H152       -3.3180    5.5720    1.3020 hc        1 TES      0.045200
     40 H161       -2.6550    7.3300   -1.0420 hc        1 TES      0.048700
     41 H162       -4.2740    6.7770   -0.4510 hc        1 TES      0.048700
     42 H17        -2.4890    5.5810   -2.6000 h1        1 TES      0.034700
     43 HO7        -4.6850    6.2670   -2.8560 ho        1 TES      0.399000
     44 H181       -4.2530    2.5930    0.0070 hc        1 TES      0.040700
     45 H182       -5.0980    3.3520   -1.4050 hc        1 TES      0.040700
     46 H183       -4.8210    4.3140    0.1040 hc        1 TES      0.040700
     47 H191       -1.5490   -0.3920    2.3550 hc        1 TES      0.041033
     48 H192       -2.4190   -0.2750    0.7680 hc        1 TES      0.041033
     49 H193       -2.5810    1.0490    1.9920 hc        1 TES      0.041033
@<TRIPOS>BOND
     1    1    2 1   
     2    1   11 1   
     3    1   22 1   
     4    1   23 1   
     5    2    3 1   
     6    2   24 1   
     7    2   25 1   
     8    3    4 2   
     9    3    5 1   
    10    5    6 2   
    11    5   26 1   
    12    6    7 1   
    13    6   11 1   
    14    7    8 1   
    15    7   27 1   
    16    7   28 1   
    17    8    9 1   
    18    8   29 1   
    19    8   30 1   
    20    9   10 1   
    21    9   15 1   
    22    9   31 1   
    23   10   11 1   
    24   10   12 1   
    25   10   32 1   
    26   11   21 1   
    27   12   13 1   
    28   12   33 1   
    29   12   34 1   
    30   13   14 1   
    31   13   35 1   
    32   13   36 1   
    33   14   15 1   
    34   14   18 1   
    35   14   20 1   
    36   15   16 1   
    37   15   37 1   
    38   16   17 1   
    39   16   38 1   
    40   16   39 1   
    41   17   18 1   
    42   17   40 1   
    43   17   41 1   
    44   18   19 1   
    45   18   42 1   
    46   19   43 1   
    47   20   44 1   
    48   20   45 1   
    49   20   46 1   
    50   21   47 1   
    51   21   48 1   
    52   21   49 1   
@<TRIPOS>SUBSTRUCTURE
     1 TES         1 TEMP              0 ****  ****    0 ROOT
