@<TRIPOS>MOLECULE
TES
   49    52     1     0     0
SMALL
bcc


@<TRIPOS>ATOM
      1 C1          1.5390    0.2340   -2.6410 c3        1 TES     -0.071400
      2 C2          1.3120   -1.0800   -3.3520 c3        1 TES     -0.181400
      3 C3          0.0530   -1.0170   -4.1700 c         1 TES      0.570300
      4 O3         -0.0260   -1.4840   -5.3110 o         1 TES     -0.534100
      5 C4         -1.0850   -0.4020   -3.4740 ce        1 TES     -0.264200
      6 C5         -0.9470    0.3190   -2.3490 c2        1 TES     -0.031400
      7 C6         -2.1410    0.7430   -1.5620 c3        1 TES     -0.055200
      8 C7         -2.1020    0.0540   -0.2090 c3        1 TES     -0.071400
      9 C8         -0.7930    0.3310    0.5090 c3        1 TES     -0.050700
     10 C9          0.4290   -0.0480   -0.3540 c3        1 TES     -0.045700
     11 C10         0.3840    0.6650   -1.7240 c3        1 TES     -0.014800
     12 C11         1.7280    0.1970    0.4070 c3        1 TES     -0.074400
     13 C12         1.7690   -0.4540    1.7820 c3        1 TES     -0.063400
     14 C13         0.5550   -0.0630    2.6050 c3        1 TES     -0.044000
     15 C14        -0.7000   -0.4640    1.7960 c3        1 TES     -0.067700
     16 C15        -1.8360   -0.4040    2.8080 c3        1 TES     -0.068400
     17 C16        -1.1980   -0.8460    4.1270 c3        1 TES     -0.117400
     18 C17         0.3300   -0.8830    3.9000 c3        1 TES      0.142100
     19 O17         1.0480   -0.3010    4.9720 oh        1 TES     -0.591800
     20 C18         0.6110    1.4120    2.9660 c3        1 TES     -0.077100
     21 C19         0.5000    2.1820   -1.5730 c3        1 TES     -0.087100
     22 H11         2.4920    0.1800   -2.0560 hc        1 TES      0.051700
     23 H12         1.6850    1.0320   -3.4210 hc        1 TES      0.051700
     24 H21         1.2070   -1.9170   -2.6110 hc        1 TES      0.070200
     25 H22         2.1890   -1.3150   -4.0100 hc        1 TES      0.070200
     26 H4         -2.0760   -0.6020   -3.9140 ha        1 TES      0.148000
     27 H61        -3.0900    0.4720   -2.0950 hc        1 TES      0.055200
     28 H62        -2.1370    1.8570   -1.4290 hc        1 TES      0.055200
     29 H71        -2.2330   -1.0510   -0.3470 hc        1 TES      0.047200
     30 H72        -2.9540    0.4180    0.4230 hc        1 TES      0.047200
     31 H8         -0.7530    1.4290    0.7500 hc        1 TES      0.058700
     32 H9          0.3630   -1.1540   -0.5670 hc        1 TES      0.049700
     33 H111        1.8930    1.3010    0.5130 hc        1 TES      0.043700
     34 H112        2.5890   -0.2150   -0.1820 hc        1 TES      0.043700
     35 H121        2.7050   -0.1390    2.3120 hc        1 TES      0.046200
     36 H122        1.8030   -1.5690    1.6690 hc        1 TES      0.046200
     37 H14        -0.5830   -1.5510    1.5060 hc        1 TES      0.047700
     38 H151       -2.2440    0.6340    2.8900 hc        1 TES      0.045200
     39 H152       -2.6760   -1.0790    2.5130 hc        1 TES      0.045200
     40 H161       -1.4440   -0.1250    4.9450 hc        1 TES      0.048700
     41 H162       -1.5680   -1.8550    4.4300 hc        1 TES      0.048700
     42 H17         0.6790   -1.9410    3.7510 h1        1 TES      0.034700
     43 HO7         0.8110   -0.8020    5.7620 ho        1 TES      0.399000
     44 H181        0.7080    2.0550    2.0590 hc        1 TES      0.040700
     45 H182       -0.3130    1.7080    3.5180 hc        1 TES      0.040700
     46 H183        1.4910    1.5980    3.6290 hc        1 TES      0.040700
     47 H191        0.2390    2.6830   -2.5360 hc        1 TES      0.041033
     48 H192       -0.1810    2.5710   -0.7800 hc        1 TES      0.041033
     49 H193        1.5480    2.4570   -1.3030 hc        1 TES      0.041033
@<TRIPOS>BOND
     1    1    2 1   
     2    1   11 1   
     3    1   22 1   
     4    1   23 1   
     5    2    3 1   
     6    2   24 1   
     7    2   25 1   
     8    3    4 2   
     9    3    5 1   
    10    5    6 2   
    11    5   26 1   
    12    6    7 1   
    13    6   11 1   
    14    7    8 1   
    15    7   27 1   
    16    7   28 1   
    17    8    9 1   
    18    8   29 1   
    19    8   30 1   
    20    9   10 1   
    21    9   15 1   
    22    9   31 1   
    23   10   11 1   
    24   10   12 1   
    25   10   32 1   
    26   11   21 1   
    27   12   13 1   
    28   12   33 1   
    29   12   34 1   
    30   13   14 1   
    31   13   35 1   
    32   13   36 1   
    33   14   15 1   
    34   14   18 1   
    35   14   20 1   
    36   15   16 1   
    37   15   37 1   
    38   16   17 1   
    39   16   38 1   
    40   16   39 1   
    41   17   18 1   
    42   17   40 1   
    43   17   41 1   
    44   18   19 1   
    45   18   42 1   
    46   19   43 1   
    47   20   44 1   
    48   20   45 1   
    49   20   46 1   
    50   21   47 1   
    51   21   48 1   
    52   21   49 1   
@<TRIPOS>SUBSTRUCTURE
     1 TES         1 TEMP              0 ****  ****    0 ROOT
