@<TRIPOS>MOLECULE
TEU
   45    45     1     0     0
SMALL
bcc


@<TRIPOS>ATOM
      1 O1          1.1070    1.5380    0.4730 os        1 TEU     -0.446600
      2 C1'        -0.2900    1.7270    0.6830 c3        1 TEU      0.029400
      3 C2'        -0.9440    1.9180   -0.6610 c         1 TEU      0.539100
      4 O2'        -0.3590    2.3070   -1.6720 o         1 TEU     -0.502100
      5 C3'        -2.4270    1.5900   -0.6830 c3        1 TEU      0.013100
      6 O3'        -3.0790    2.2060   -1.7750 oh        1 TEU     -0.589800
      7 C4'        -2.6290    0.0590   -0.7490 c3        1 TEU      0.114100
      8 O4'        -3.2250   -0.3020   -1.9780 oh        1 TEU     -0.592800
      9 C5'        -3.4910   -0.4340    0.4270 c3        1 TEU      0.119100
     10 O5'        -2.9130    0.0770    1.6190 oh        1 TEU     -0.619800
     11 C6'        -3.5150   -1.9660    0.4340 c3        1 TEU      0.085400
     12 O6'        -4.2690   -2.3440    1.5760 oh        1 TEU     -0.619800
     13 C1          1.7310    0.7050    1.4360 c3        1 TEU      0.300900
     14 C2          3.2490    0.8110    1.1960 c3        1 TEU      0.098100
     15 O2          3.6770    2.1550    1.1970 oh        1 TEU     -0.592800
     16 C3          3.6400    0.1240   -0.1200 c3        1 TEU      0.073100
     17 O3          5.0480   -0.0140   -0.2220 oh        1 TEU     -0.606800
     18 C4          3.0550   -1.2970   -0.1670 c3        1 TEU      0.126100
     19 O4          3.3030   -1.9050   -1.4220 oh        1 TEU     -0.600800
     20 C5          1.5300   -1.2090    0.0030 c3        1 TEU      0.104100
     21 O5          1.2200   -0.5960    1.2590 os        1 TEU     -0.429600
     22 C6          0.8800   -2.5960    0.0380 c3        1 TEU      0.134400
     23 O6         -0.4070   -2.5710   -0.5440 oh        1 TEU     -0.607800
     24 H1         -0.7500    0.8450    1.2110 h1        1 TEU      0.085700
     25 H2         -0.4310    2.6580    1.2980 h1        1 TEU      0.085700
     26 H3         -2.9260    2.0190    0.2330 h1        1 TEU      0.114700
     27 H4         -2.5440    2.0400   -2.5660 ho        1 TEU      0.427000
     28 H5         -1.6410   -0.4860   -0.7400 h1        1 TEU      0.100700
     29 H6         -4.0420    0.2100   -2.0700 ho        1 TEU      0.418000
     30 H7         -4.5410   -0.0380    0.3330 h1        1 TEU      0.051700
     31 H8         -3.2940   -0.4270    2.3500 ho        1 TEU      0.432000
     32 H9         -4.0100   -2.3380   -0.5010 h1        1 TEU      0.058200
     33 H10        -2.4690   -2.3720    0.4980 h1        1 TEU      0.058200
     34 H11        -4.1880   -3.3010    1.6560 ho        1 TEU      0.412000
     35 H12         1.4490    0.9900    2.4880 h2        1 TEU      0.092700
     36 H13         3.7910    0.3320    2.0600 h1        1 TEU      0.100700
     37 H14         3.1400    2.6340    0.5490 ho        1 TEU      0.426000
     38 H15         3.2570    0.7260   -0.9920 h1        1 TEU      0.071700
     39 H16         5.4250    0.8560   -0.0320 ho        1 TEU      0.425000
     40 H17         3.5090   -1.9210    0.6520 h1        1 TEU      0.059700
     41 H18         4.2500   -1.8060   -1.5920 ho        1 TEU      0.429000
     42 H19         1.0930   -0.5880   -0.8280 h1        1 TEU      0.073700
     43 H20         1.5430   -3.3280   -0.4960 h1        1 TEU      0.070700
     44 H21         0.7090   -2.9230    1.0990 h1        1 TEU      0.070700
     45 H22        -0.2960   -2.4100   -1.4890 ho        1 TEU      0.408000
@<TRIPOS>BOND
     1    1    2 1   
     2    1   13 1   
     3    2    3 1   
     4    2   24 1   
     5    2   25 1   
     6    3    4 2   
     7    3    5 1   
     8    5    6 1   
     9    5    7 1   
    10    5   26 1   
    11    6   27 1   
    12    7    8 1   
    13    7    9 1   
    14    7   28 1   
    15    8   29 1   
    16    9   10 1   
    17    9   11 1   
    18    9   30 1   
    19   10   31 1   
    20   11   12 1   
    21   11   32 1   
    22   11   33 1   
    23   12   34 1   
    24   13   14 1   
    25   13   21 1   
    26   13   35 1   
    27   14   15 1   
    28   14   16 1   
    29   14   36 1   
    30   15   37 1   
    31   16   17 1   
    32   16   18 1   
    33   16   38 1   
    34   17   39 1   
    35   18   19 1   
    36   18   20 1   
    37   18   40 1   
    38   19   41 1   
    39   20   21 1   
    40   20   22 1   
    41   20   42 1   
    42   22   23 1   
    43   22   43 1   
    44   22   44 1   
    45   23   45 1   
@<TRIPOS>SUBSTRUCTURE
     1 TEU         1 TEMP              0 ****  ****    0 ROOT
