@<TRIPOS>MOLECULE
TEU
   45    45     1     0     0
SMALL
bcc


@<TRIPOS>ATOM
      1 O1         -0.1340   -0.4260    0.0410 os        1 TEU     -0.446600
      2 C1'        -1.0250   -0.8340   -0.9960 c3        1 TEU      0.029400
      3 C2'        -2.4130   -0.3800   -0.6240 c         1 TEU      0.539100
      4 O2'        -2.7840   -0.1440    0.5260 o         1 TEU     -0.502100
      5 C3'        -3.3570   -0.2360   -1.8050 c3        1 TEU      0.013100
      6 O3'        -4.7090   -0.2750   -1.3980 oh        1 TEU     -0.589800
      7 C4'        -3.0730    1.0880   -2.5500 c3        1 TEU      0.114100
      8 O4'        -4.1770    1.9610   -2.4310 oh        1 TEU     -0.592800
      9 C5'        -2.7540    0.8300   -4.0340 c3        1 TEU      0.119100
     10 O5'        -1.7320   -0.1550   -4.0810 oh        1 TEU     -0.619800
     11 C6'        -2.2990    2.1350   -4.6920 c3        1 TEU      0.085400
     12 O6'        -1.9620    1.8060   -6.0320 oh        1 TEU     -0.619800
     13 C1          1.1810   -0.1390   -0.4050 c3        1 TEU      0.300900
     14 C2          2.0460    0.0430    0.8560 c3        1 TEU      0.098100
     15 O2          1.9340   -1.0660    1.7210 oh        1 TEU     -0.592800
     16 C3          1.6700    1.3370    1.5920 c3        1 TEU      0.073100
     17 O3          2.6220    1.6460    2.5950 oh        1 TEU     -0.606800
     18 C4          1.6660    2.5190    0.6100 c3        1 TEU      0.126100
     19 O4          1.2060    3.7000    1.2410 oh        1 TEU     -0.600800
     20 C5          0.6920    2.2070   -0.5360 c3        1 TEU      0.104100
     21 O5          1.1080    1.0140   -1.2110 os        1 TEU     -0.429600
     22 C6          0.6870    3.3120   -1.5980 c3        1 TEU      0.134400
     23 O6         -0.5940    3.4570   -2.1770 oh        1 TEU     -0.607800
     24 H1         -0.7300   -0.3910   -1.9880 h1        1 TEU      0.085700
     25 H2         -1.0050   -1.9560   -1.0560 h1        1 TEU      0.085700
     26 H3         -3.2370   -1.1170   -2.5000 h1        1 TEU      0.114700
     27 H4         -4.8020    0.3210   -0.6390 ho        1 TEU      0.427000
     28 H5         -2.2140    1.6490   -2.0770 h1        1 TEU      0.100700
     29 H6         -4.9610    1.4880   -2.7490 ho        1 TEU      0.418000
     30 H7         -3.6660    0.4340   -4.5640 h1        1 TEU      0.051700
     31 H8         -1.3660   -0.1320   -4.9750 ho        1 TEU      0.432000
     32 H9         -3.1380    2.8790   -4.6720 h1        1 TEU      0.058200
     33 H10        -1.4070    2.5540   -4.1520 h1        1 TEU      0.058200
     34 H11        -1.5610    2.5930   -6.4170 ho        1 TEU      0.412000
     35 H12         1.5840   -0.9440   -1.0810 h2        1 TEU      0.092700
     36 H13         3.1320    0.0690    0.5560 h1        1 TEU      0.100700
     37 H14         0.9930   -1.2020    1.9030 ho        1 TEU      0.426000
     38 H15         0.6510    1.2250    2.0610 h1        1 TEU      0.071700
     39 H16         2.7430    0.8420    3.1190 ho        1 TEU      0.425000
     40 H17         2.7060    2.6840    0.2120 h1        1 TEU      0.059700
     41 H18         1.7220    3.7960    2.0530 ho        1 TEU      0.429000
     42 H19        -0.3430    2.0520   -0.1200 h1        1 TEU      0.073700
     43 H20         1.0220    4.2750   -1.1280 h1        1 TEU      0.070700
     44 H21         1.3590    3.0380   -2.4550 h1        1 TEU      0.070700
     45 H22        -1.1820    3.8100   -1.4970 ho        1 TEU      0.408000
@<TRIPOS>BOND
     1    1    2 1   
     2    1   13 1   
     3    2    3 1   
     4    2   24 1   
     5    2   25 1   
     6    3    4 2   
     7    3    5 1   
     8    5    6 1   
     9    5    7 1   
    10    5   26 1   
    11    6   27 1   
    12    7    8 1   
    13    7    9 1   
    14    7   28 1   
    15    8   29 1   
    16    9   10 1   
    17    9   11 1   
    18    9   30 1   
    19   10   31 1   
    20   11   12 1   
    21   11   32 1   
    22   11   33 1   
    23   12   34 1   
    24   13   14 1   
    25   13   21 1   
    26   13   35 1   
    27   14   15 1   
    28   14   16 1   
    29   14   36 1   
    30   15   37 1   
    31   16   17 1   
    32   16   18 1   
    33   16   38 1   
    34   17   39 1   
    35   18   19 1   
    36   18   20 1   
    37   18   40 1   
    38   19   41 1   
    39   20   21 1   
    40   20   22 1   
    41   20   42 1   
    42   22   23 1   
    43   22   43 1   
    44   22   44 1   
    45   23   45 1   
@<TRIPOS>SUBSTRUCTURE
     1 TEU         1 TEMP              0 ****  ****    0 ROOT
