@<TRIPOS>MOLECULE
TEU
   45    44     1     0     0
SMALL
bcc


@<TRIPOS>ATOM
      1 O1          1.0400    0.3100    0.3050 os        1 TEU     -0.283000
      2 C1'         0.4020   -0.7030   -0.5420 c3        1 TEU     -0.061000
      3 C2'        -1.0650   -0.7580   -0.2320 c1        1 TEU      0.203000
      4 O2'        -1.6450    0.2510    0.2270 o         1 TEU     -0.277000
      5 C3'        -1.8690   -2.0080   -0.5790 c2        1 TEU     -0.048000
      6 O3'        -1.9410   -2.8360    0.5410 oh        1 TEU     -0.303000
      7 C4'        -3.2540   -1.6150   -1.0020 c3        1 TEU      0.006000
      8 O4'        -3.9380   -1.0730    0.0900 oh        1 TEU     -0.335000
      9 C5'        -4.0040   -2.8530   -1.5140 c3        1 TEU      0.039000
     10 O5'        -3.5060   -3.2120   -2.7610 oh        1 TEU     -0.341000
     11 C6'        -5.4650   -2.5370   -1.6340 c3        1 TEU     -0.054000
     12 O6'        -6.1640   -3.6930   -2.0330 oh        1 TEU     -0.344000
     13 C1          2.4970    0.2980    0.2470 c3        1 TEU      0.160000
     14 C2          2.9960    0.2870    1.5650 c3        1 TEU     -0.004000
     15 O2          2.3020   -0.8680    2.3420 oh        1 TEU     -0.329000
     16 C3          2.7860    1.4930    2.2800 c3        1 TEU     -0.045000
     17 O3          3.5170    1.4050    3.5940 oh        1 TEU     -0.336000
     18 C4          3.2530    2.6970    1.5560 c3        1 TEU     -0.020000
     19 O4          2.9050    3.8680    2.3280 oh        1 TEU     -0.315000
     20 C5          2.6450    2.8510    0.0990 c3        1 TEU     -0.006000
     21 O5          2.9410    1.4470   -0.5450 os        1 TEU     -0.277000
     22 C6          3.2550    3.8160   -0.5770 c3        1 TEU     -0.011000
     23 O6          2.7670    3.8370   -1.9240 oh        1 TEU     -0.321000
     24 H1          0.8170   -1.5990   -0.3640 h1        1 TEU      0.115500
     25 H2          0.5270   -0.4680   -1.4810 h1        1 TEU      0.115500
     26 H3         -1.4450   -2.4670   -1.2840 h4        1 TEU      0.154000
     27 H4         -1.4950   -3.5750    0.3880 ho        1 TEU      0.220000
     28 H5         -3.2000   -0.9420   -1.7250 h1        1 TEU      0.102000
     29 H6         -4.3220   -0.2920   -0.1540 ho        1 TEU      0.229000
     30 H7         -3.8770   -3.6100   -0.8700 h1        1 TEU      0.111000
     31 H8         -3.5850   -4.0520   -2.8660 ho        1 TEU      0.229000
     32 H9         -5.5890   -1.8470   -2.2880 h1        1 TEU      0.085500
     33 H10        -5.8130   -2.2240   -0.7470 h1        1 TEU      0.085500
     34 H11        -6.9700   -3.4760   -2.2720 ho        1 TEU      0.210000
     35 H12         2.7760   -0.4960   -0.1890 h2        1 TEU      0.129000
     36 H13         3.9250    0.1140    1.5330 h1        1 TEU      0.103000
     37 H14         2.9100   -1.5000    2.5500 ho        1 TEU      0.227000
     38 H15         1.8280    1.5870    2.4580 h1        1 TEU      0.128000
     39 H16         3.0130    1.7380    4.2320 ho        1 TEU      0.212000
     40 H17         4.2480    2.6520    1.4810 h1        1 TEU      0.096000
     41 H18         3.6620    4.2000    2.7440 ho        1 TEU      0.205000
     42 H19         1.6240    3.0240    0.1480 h1        1 TEU      0.137000
     43 H20         3.0760    4.6680   -0.1560 h1        1 TEU      0.099500
     44 H21         4.2580    3.6430   -0.5820 h1        1 TEU      0.099500
     45 H22         3.1770    4.5160   -2.3870 ho        1 TEU      0.210000
@<TRIPOS>BOND
     1    1    2 1   
     2    1   13 1   
     3    2    3 1   
     4    2   24 1   
     5    2   25 1   
     6    3    4 1   
     7    5    6 1   
     8    5    7 1   
     9    5   26 1   
    10    6   27 1   
    11    7    8 1   
    12    7    9 1   
    13    7   28 1   
    14    8   29 1   
    15    9   10 1   
    16    9   11 1   
    17    9   30 1   
    18   10   31 1   
    19   11   12 1   
    20   11   32 1   
    21   11   33 1   
    22   12   34 1   
    23   13   14 1   
    24   13   21 1   
    25   13   35 1   
    26   14   15 1   
    27   14   16 1   
    28   14   36 1   
    29   15   37 1   
    30   16   17 1   
    31   16   18 1   
    32   16   38 1   
    33   17   39 1   
    34   18   19 1   
    35   18   20 1   
    36   18   40 1   
    37   19   41 1   
    38   20   21 1   
    39   20   22 1   
    40   20   42 1   
    41   22   23 1   
    42   22   43 1   
    43   22   44 1   
    44   23   45 1   
@<TRIPOS>SUBSTRUCTURE
     1 TEU         1 TEMP              0 ****  ****    0 ROOT
