@<TRIPOS>MOLECULE
TEU
   45    45     1     0     0
SMALL
bcc


@<TRIPOS>ATOM
      1 O1          0.0570    0.4570    0.0440 os        1 TEU     -0.443600
      2 C1'         1.4300    0.7840    0.2480 c3        1 TEU      0.025400
      3 C2'         1.7320    0.6250    1.7200 c         1 TEU      0.532100
      4 O2'         0.9240    0.8510    2.6180 o         1 TEU     -0.488100
      5 C3'         3.1580    0.1730    1.9970 c3        1 TEU      0.057100
      6 O3'         3.5900    0.5820    3.2720 oh        1 TEU     -0.568800
      7 C4'         3.2500   -1.3580    1.8050 c3        1 TEU      0.113100
      8 O4'         3.3020   -1.9230    3.1030 oh        1 TEU     -0.589800
      9 C5'         4.5100   -1.7180    0.9990 c3        1 TEU      0.115100
     10 O5'         4.2480   -1.2890   -0.3330 oh        1 TEU     -0.624800
     11 C6'         4.7740   -3.2270    1.0330 c3        1 TEU      0.080400
     12 O6'         5.8430   -3.4560    0.1270 oh        1 TEU     -0.612800
     13 C1         -0.2460    0.0980   -1.2950 c3        1 TEU      0.301900
     14 C2         -1.7800    0.0210   -1.4050 c3        1 TEU      0.099100
     15 O2         -2.3870    1.2090   -0.9470 oh        1 TEU     -0.592800
     16 C3         -2.3290   -1.1920   -0.6390 c3        1 TEU      0.073100
     17 O3         -3.6890   -1.4220   -0.9640 oh        1 TEU     -0.606800
     18 C4         -1.5610   -2.4630   -1.0390 c3        1 TEU      0.131100
     19 O4         -1.9690   -3.5680   -0.2530 oh        1 TEU     -0.596800
     20 C5         -0.0680   -2.2340   -0.7670 c3        1 TEU      0.099100
     21 O5          0.4030   -1.1280   -1.5470 os        1 TEU     -0.443600
     22 C6          0.7840   -3.4320   -1.1900 c3        1 TEU      0.141400
     23 O6          2.0840   -3.3380   -0.6490 oh        1 TEU     -0.621800
     24 H1          2.0930    0.1060   -0.3590 h1        1 TEU      0.074700
     25 H2          1.5960    1.8540   -0.0530 h1        1 TEU      0.074700
     26 H3          3.8590    0.6880    1.2780 h1        1 TEU      0.104700
     27 H4          3.0290    0.1410    3.9280 ho        1 TEU      0.430000
     28 H5          2.3480   -1.7380    1.2420 h1        1 TEU      0.065700
     29 H6          3.0780   -2.8580    3.0100 ho        1 TEU      0.414000
     30 H7          5.4060   -1.1690    1.4010 h1        1 TEU      0.070700
     31 H8          4.9740   -1.6220   -0.8780 ho        1 TEU      0.432000
     32 H9          3.8570   -3.7900    0.7110 h1        1 TEU      0.051200
     33 H10         5.0770   -3.5410    2.0660 h1        1 TEU      0.051200
     34 H11         5.8890   -4.4090   -0.0130 ho        1 TEU      0.414000
     35 H12         0.1930    0.8210   -2.0370 h2        1 TEU      0.092700
     36 H13        -2.0650   -0.0490   -2.4930 h1        1 TEU      0.100700
     37 H14        -2.0630    1.3770   -0.0500 ho        1 TEU      0.427000
     38 H15        -2.2310   -1.0170    0.4690 h1        1 TEU      0.069700
     39 H16        -4.1460   -0.5760   -0.8570 ho        1 TEU      0.425000
     40 H17        -1.7360   -2.6870   -2.1270 h1        1 TEU      0.059700
     41 H18        -2.9340   -3.6030   -0.3100 ho        1 TEU      0.428000
     42 H19         0.0920   -2.0110    0.3250 h1        1 TEU      0.076700
     43 H20         0.3430   -4.3680   -0.7530 h1        1 TEU      0.066700
     44 H21         0.8270   -3.5020   -2.3080 h1        1 TEU      0.066700
     45 H22         2.4870   -2.5250   -0.9900 ho        1 TEU      0.424000
@<TRIPOS>BOND
     1    1    2 1   
     2    1   13 1   
     3    2    3 1   
     4    2   24 1   
     5    2   25 1   
     6    3    4 2   
     7    3    5 1   
     8    5    6 1   
     9    5    7 1   
    10    5   26 1   
    11    6   27 1   
    12    7    8 1   
    13    7    9 1   
    14    7   28 1   
    15    8   29 1   
    16    9   10 1   
    17    9   11 1   
    18    9   30 1   
    19   10   31 1   
    20   11   12 1   
    21   11   32 1   
    22   11   33 1   
    23   12   34 1   
    24   13   14 1   
    25   13   21 1   
    26   13   35 1   
    27   14   15 1   
    28   14   16 1   
    29   14   36 1   
    30   15   37 1   
    31   16   17 1   
    32   16   18 1   
    33   16   38 1   
    34   17   39 1   
    35   18   19 1   
    36   18   20 1   
    37   18   40 1   
    38   19   41 1   
    39   20   21 1   
    40   20   22 1   
    41   20   42 1   
    42   22   23 1   
    43   22   43 1   
    44   22   44 1   
    45   23   45 1   
@<TRIPOS>SUBSTRUCTURE
     1 TEU         1 TEMP              0 ****  ****    0 ROOT
