@<TRIPOS>MOLECULE
TEY
   85    88     1     0     0
SMALL
bcc


@<TRIPOS>ATOM
      1 O20        -9.5950    2.4550    1.0080 oh        1 TEY     -0.596800
      2 C17        -8.8660    3.1380   -0.0140 c3        1 TEY      0.147800
      3 C19        -9.8410    3.7560   -1.0120 c3        1 TEY     -0.103600
      4 C18        -8.0820    4.2310    0.7010 c3        1 TEY     -0.103600
      5 C16        -7.9370    2.1670   -0.7510 c3        1 TEY     -0.104400
      6 C15        -6.9770    1.4580    0.1790 c3        1 TEY     -0.080400
      7 C14        -6.2390    0.3490   -0.5420 c3        1 TEY     -0.079400
      8 C12        -5.2420   -0.3630    0.3700 c3        1 TEY     -0.054700
      9 C13        -5.9840   -1.3470    1.2540 c3        1 TEY     -0.092100
     10 C9         -4.1650   -1.0500   -0.4630 c3        1 TEY     -0.053700
     11 C8         -3.3870   -0.0480   -1.3410 c3        1 TEY     -0.079400
     12 C7         -1.9250   -0.4980   -1.3820 c3        1 TEY     -0.074400
     13 C5         -3.0600   -1.8030    0.3150 c3        1 TEY     -0.039000
     14 C10        -2.6050   -1.0000    1.5210 c3        1 TEY     -0.083100
     15 C2         -3.3930   -3.2330    0.7130 c3        1 TEY     -0.068400
     16 C3         -2.1630   -3.9420    1.2540 c3        1 TEY     -0.073400
     17 C4         -0.9450   -3.8530    0.3500 c3        1 TEY     -0.046200
     18 C6         -1.9370   -1.8850   -0.7590 c3        1 TEY     -0.040500
     19 C1         -0.6980   -2.4830   -0.1940 c2        1 TEY     -0.066400
     20 C21         0.5010   -1.8790   -0.2520 ce        1 TEY     -0.163000
     21 C22         1.7380   -2.4030    0.2770 ce        1 TEY     -0.101000
     22 C23         2.9690   -1.9820   -0.0820 cf        1 TEY     -0.096200
     23 C24         4.1850   -2.5780    0.5410 c3        1 TEY     -0.076200
     24 C28         3.2320   -0.9630   -1.0970 cf        1 TEY     -0.121200
     25 C29         2.6420   -0.9510   -2.2970 c2        1 TEY     -0.177000
     26 C27         4.2410    0.0900   -0.7140 c3        1 TEY      0.181300
     27 O30         3.6960    1.0170    0.2100 oh        1 TEY     -0.585800
     28 C26         5.5270   -0.5620   -0.1810 c3        1 TEY     -0.085700
     29 C25         5.1930   -1.5130    0.9740 c3        1 TEY      0.146100
     30 O32         6.4130   -2.1320    1.3660 oh        1 TEY     -0.596800
     31 C31         6.5310    0.4880    0.2710 c3        1 TEY     -0.102400
     32 C33         7.2910    1.0430   -0.9320 c3        1 TEY      0.070300
     33 N34         8.2860    2.0630   -0.5710 na        1 TEY      0.199900
     34 N35         7.9850    3.3650   -0.3820 nc        1 TEY     -0.486800
     35 C36         9.1670    3.9010    0.0140 cd        1 TEY      0.462900
     36 N37        10.1550    2.8740    0.0620 nd        1 TEY     -0.376000
     37 N38         9.5900    1.7940   -0.2840 nc        1 TEY     -0.150800
     38 H1        -10.0870    1.7490    0.5740 ho        1 TEY      0.397000
     39 H2        -10.3990    2.9580   -1.5570 hc        1 TEY      0.043367
     40 H3        -10.5750    4.4010   -0.4740 hc        1 TEY      0.043367
     41 H4         -9.2850    4.3770   -1.7530 hc        1 TEY      0.043367
     42 H5         -8.7840    4.9910    1.1190 hc        1 TEY      0.043367
     43 H6         -7.4950    3.7910    1.5430 hc        1 TEY      0.043367
     44 H7         -7.3870    4.7240   -0.0180 hc        1 TEY      0.043367
     45 H8         -8.5660    1.4070   -1.2870 hc        1 TEY      0.042700
     46 H9         -7.3660    2.7380   -1.5280 hc        1 TEY      0.042700
     47 H10        -6.2380    2.1960    0.5880 hc        1 TEY      0.049700
     48 H11        -7.5490    1.0450    1.0520 hc        1 TEY      0.049700
     49 H12        -6.9740   -0.4000   -0.9410 hc        1 TEY      0.039700
     50 H13        -5.7090    0.7900   -1.4270 hc        1 TEY      0.039700
     51 H14        -4.7480    0.4080    1.0280 hc        1 TEY      0.052700
     52 H15        -6.9210   -0.8870    1.6490 hc        1 TEY      0.035033
     53 H16        -6.2580   -2.2650    0.6790 hc        1 TEY      0.035033
     54 H17        -5.3550   -1.6480    2.1260 hc        1 TEY      0.035033
     55 H18        -4.6770   -1.7950   -1.1330 hc        1 TEY      0.046700
     56 H19        -3.8190   -0.0260   -2.3710 hc        1 TEY      0.042700
     57 H20        -3.4590    0.9840   -0.9160 hc        1 TEY      0.042700
     58 H21        -1.5330   -0.5230   -2.4270 hc        1 TEY      0.045700
     59 H22        -1.2850    0.2040   -0.7910 hc        1 TEY      0.045700
     60 H23        -2.4850    0.0770    1.2470 hc        1 TEY      0.038033
     61 H24        -3.3520   -1.0770    2.3470 hc        1 TEY      0.038033
     62 H25        -1.6220   -1.3750    1.8940 hc        1 TEY      0.038033
     63 H26        -4.1940   -3.2450    1.4960 hc        1 TEY      0.043700
     64 H27        -3.7880   -3.7860   -0.1790 hc        1 TEY      0.043700
     65 H28        -1.9060   -3.5100    2.2570 hc        1 TEY      0.041700
     66 H29        -2.4090   -5.0250    1.4130 hc        1 TEY      0.041700
     67 H30        -0.0540   -4.2280    0.9190 hc        1 TEY      0.047700
     68 H31        -1.0880   -4.5430   -0.5270 hc        1 TEY      0.047700
     69 H32        -2.2910   -2.6020   -1.5610 hc        1 TEY      0.055700
     70 H33         0.5830   -0.8860   -0.7380 ha        1 TEY      0.136000
     71 H34         1.6500   -3.1860    1.0520 ha        1 TEY      0.124000
     72 H35         3.9120   -3.2030    1.4320 hc        1 TEY      0.058200
     73 H36         4.6810   -3.2580   -0.2050 hc        1 TEY      0.058200
     74 H37         1.9130   -1.7150   -2.5980 ha        1 TEY      0.121500
     75 H38         2.8570   -0.1790   -3.0490 ha        1 TEY      0.121500
     76 H39         4.4990    0.7330   -1.6060 h1        1 TEY      0.077700
     77 H40         3.3240    0.5130    0.9450 ho        1 TEY      0.404000
     78 H41         5.9750   -1.1770   -1.0110 hc        1 TEY      0.071700
     79 H42         4.7820   -0.9220    1.8410 h1        1 TEY      0.037700
     80 H43         6.1990   -2.7360    2.0860 ho        1 TEY      0.404000
     81 H44         5.9890    1.3150    0.8040 hc        1 TEY      0.078700
     82 H45         7.2530    0.0210    0.9920 hc        1 TEY      0.078700
     83 H46         7.8400    0.2080   -1.4540 h1        1 TEY      0.076200
     84 H47         6.5690    1.5140   -1.6570 h1        1 TEY      0.076200
     85 H48         9.3610    4.9480    0.2580 h5        1 TEY      0.084100
@<TRIPOS>BOND
     1    1    2 1   
     2    1   38 1   
     3    2    3 1   
     4    2    4 1   
     5    2    5 1   
     6    3   39 1   
     7    3   40 1   
     8    3   41 1   
     9    4   42 1   
    10    4   43 1   
    11    4   44 1   
    12    5    6 1   
    13    5   45 1   
    14    5   46 1   
    15    6    7 1   
    16    6   47 1   
    17    6   48 1   
    18    7    8 1   
    19    7   49 1   
    20    7   50 1   
    21    8    9 1   
    22    8   10 1   
    23    8   51 1   
    24    9   52 1   
    25    9   53 1   
    26    9   54 1   
    27   10   11 1   
    28   10   13 1   
    29   10   55 1   
    30   11   12 1   
    31   11   56 1   
    32   11   57 1   
    33   12   18 1   
    34   12   58 1   
    35   12   59 1   
    36   13   14 1   
    37   13   15 1   
    38   13   18 1   
    39   14   60 1   
    40   14   61 1   
    41   14   62 1   
    42   15   16 1   
    43   15   63 1   
    44   15   64 1   
    45   16   17 1   
    46   16   65 1   
    47   16   66 1   
    48   17   19 1   
    49   17   67 1   
    50   17   68 1   
    51   18   19 1   
    52   18   69 1   
    53   19   20 2   
    54   20   21 1   
    55   20   70 1   
    56   21   22 2   
    57   21   71 1   
    58   22   23 1   
    59   22   24 1   
    60   23   29 1   
    61   23   72 1   
    62   23   73 1   
    63   24   25 2   
    64   24   26 1   
    65   25   74 1   
    66   25   75 1   
    67   26   27 1   
    68   26   28 1   
    69   26   76 1   
    70   27   77 1   
    71   28   29 1   
    72   28   31 1   
    73   28   78 1   
    74   29   30 1   
    75   29   79 1   
    76   30   80 1   
    77   31   32 1   
    78   31   81 1   
    79   31   82 1   
    80   32   33 1   
    81   32   83 1   
    82   32   84 1   
    83   33   34 1   
    84   33   37 1   
    85   34   35 2   
    86   35   36 1   
    87   35   85 1   
    88   36   37 2   
@<TRIPOS>SUBSTRUCTURE
     1 TEY         1 TEMP              0 ****  ****    0 ROOT
