@<TRIPOS>MOLECULE
TEY
   85    88     1     0     0
SMALL
bcc


@<TRIPOS>ATOM
      1 O20        -0.1410    0.9490    0.8500 oh        1 TEY     -0.598800
      2 C17         1.2380    0.5980    0.7090 c3        1 TEY      0.147800
      3 C19         1.9460    0.7560    2.0520 c3        1 TEY     -0.123100
      4 C18         1.3610   -0.8420    0.2260 c3        1 TEY     -0.123100
      5 C16         1.8270    1.5880   -0.3000 c3        1 TEY     -0.064400
      6 C15         1.1900    1.4850   -1.6680 c3        1 TEY     -0.079400
      7 C14         1.6780    2.5950   -2.5770 c3        1 TEY     -0.079400
      8 C12         1.0570    2.5070   -3.9700 c3        1 TEY     -0.054700
      9 C13        -0.3460    3.0810   -3.9310 c3        1 TEY     -0.092100
     10 C9          1.9370    3.2310   -4.9850 c3        1 TEY     -0.053700
     11 C8          3.3570    2.6310   -5.0500 c3        1 TEY     -0.078400
     12 C7          3.8180    2.6760   -6.5080 c3        1 TEY     -0.074400
     13 C5          1.4570    3.2180   -6.4550 c3        1 TEY     -0.039000
     14 C10         0.9300    1.8460   -6.8390 c3        1 TEY     -0.083100
     15 C2          0.4610    4.3040   -6.8320 c3        1 TEY     -0.068400
     16 C3          0.2460    4.3400   -8.3350 c3        1 TEY     -0.073400
     17 C4          1.5290    4.4120   -9.1460 c3        1 TEY     -0.046200
     18 C6          2.7800    3.5400   -7.2080 c3        1 TEY     -0.040500
     19 C1          2.5890    3.4680   -8.6800 c2        1 TEY     -0.065400
     20 C21         3.3470    2.7010   -9.4820 ce        1 TEY     -0.164000
     21 C22         3.2130    2.5850  -10.9150 ce        1 TEY     -0.100000
     22 C23         4.1660    2.1060  -11.7420 cf        1 TEY     -0.097200
     23 C24         3.9190    2.0110  -13.2090 c3        1 TEY     -0.076200
     24 C28         5.4960    1.6770  -11.3120 cf        1 TEY     -0.121200
     25 C29         6.2680    2.3900  -10.4860 c2        1 TEY     -0.177000
     26 C27         5.9670    0.3600  -11.8770 c3        1 TEY      0.181300
     27 O30         5.3100   -0.7340  -11.2580 oh        1 TEY     -0.586800
     28 C26         5.8030    0.3380  -13.4050 c3        1 TEY     -0.085700
     29 C25         4.3520    0.6610  -13.7810 c3        1 TEY      0.146100
     30 O32         4.2910    0.6950  -15.2020 oh        1 TEY     -0.596800
     31 C31         6.2130   -1.0080  -13.9840 c3        1 TEY     -0.102400
     32 C33         7.7310   -1.0780  -14.1300 c3        1 TEY      0.070300
     33 N34         8.2040   -2.3520  -14.6900 na        1 TEY      0.199900
     34 N35         8.3990   -3.4650  -13.9530 nc        1 TEY     -0.486800
     35 C36         8.7400   -4.3950  -14.8800 cd        1 TEY      0.462900
     36 N37         8.7260   -3.7950  -16.1730 nd        1 TEY     -0.376000
     37 N38         8.3930   -2.5810  -16.0200 nc        1 TEY     -0.150800
     38 H1         -0.5200    0.3320    1.4860 ho        1 TEY      0.397000
     39 H2          1.5050    0.0620    2.8060 hc        1 TEY      0.042367
     40 H3          3.0310    0.5230    1.9410 hc        1 TEY      0.042367
     41 H4          1.8330    1.8020    2.4220 hc        1 TEY      0.042367
     42 H5          1.0680   -1.5500    1.0380 hc        1 TEY      0.042367
     43 H6          2.4130   -1.0560   -0.0750 hc        1 TEY      0.042367
     44 H7          0.6890   -1.0100   -0.6500 hc        1 TEY      0.042367
     45 H8          2.9290    1.3990   -0.3730 hc        1 TEY      0.047200
     46 H9          1.6790    2.6260    0.1020 hc        1 TEY      0.047200
     47 H10         1.4370    0.4910   -2.1270 hc        1 TEY      0.048700
     48 H11         0.0740    1.5340   -1.5560 hc        1 TEY      0.048700
     49 H12         1.4300    3.5910   -2.1240 hc        1 TEY      0.040200
     50 H13         2.7960    2.5350   -2.6460 hc        1 TEY      0.040200
     51 H14         0.9930    1.4210   -4.2640 hc        1 TEY      0.050700
     52 H15        -0.3150    4.1980   -3.9160 hc        1 TEY      0.035033
     53 H16        -0.8840    2.7320   -3.0170 hc        1 TEY      0.035033
     54 H17        -0.9330    2.7530   -4.8220 hc        1 TEY      0.035033
     55 H18         2.0150    4.3060   -4.6610 hc        1 TEY      0.046700
     56 H19         4.0510    3.2190   -4.4010 hc        1 TEY      0.043200
     57 H20         3.3540    1.5750   -4.6810 hc        1 TEY      0.043200
     58 H21         3.8430    1.6450   -6.9410 hc        1 TEY      0.045200
     59 H22         4.8410    3.1130   -6.6010 hc        1 TEY      0.045200
     60 H23         1.6060    1.0470   -6.4460 hc        1 TEY      0.037700
     61 H24         0.8770    1.7420   -7.9500 hc        1 TEY      0.037700
     62 H25        -0.0920    1.6880   -6.4180 hc        1 TEY      0.037700
     63 H26        -0.5230    4.1240   -6.3270 hc        1 TEY      0.044200
     64 H27         0.8420    5.2980   -6.4790 hc        1 TEY      0.044200
     65 H28        -0.3300    3.4260   -8.6420 hc        1 TEY      0.041200
     66 H29        -0.3870    5.2310   -8.5900 hc        1 TEY      0.041200
     67 H30         1.9490    5.4540   -9.0740 hc        1 TEY      0.047700
     68 H31         1.2760    4.2360  -10.2250 hc        1 TEY      0.047700
     69 H32         3.0420    4.6180   -6.9790 hc        1 TEY      0.055700
     70 H33         4.1520    2.0840   -9.0360 ha        1 TEY      0.136000
     71 H34         2.2420    2.8910  -11.3460 ha        1 TEY      0.124000
     72 H35         2.8330    2.1720  -13.4420 hc        1 TEY      0.057700
     73 H36         4.4960    2.8230  -13.7300 hc        1 TEY      0.057700
     74 H37         7.2660    2.0530  -10.1780 ha        1 TEY      0.122000
     75 H38         5.9470    3.3560  -10.0720 ha        1 TEY      0.122000
     76 H39         7.0540    0.1880  -11.6240 h1        1 TEY      0.077700
     77 H40         4.3600   -0.5730  -11.3150 ho        1 TEY      0.404000
     78 H41         6.4550    1.1470  -13.8370 hc        1 TEY      0.071700
     79 H42         3.6740   -0.1550  -13.4010 h1        1 TEY      0.037700
     80 H43         3.3810    0.9100  -15.4360 ho        1 TEY      0.404000
     81 H44         5.7300   -1.1390  -14.9890 hc        1 TEY      0.078700
     82 H45         5.8480   -1.8290  -13.3110 hc        1 TEY      0.078700
     83 H46         8.2190   -0.9470  -13.1230 h1        1 TEY      0.076200
     84 H47         8.0870   -0.2570  -14.8160 h1        1 TEY      0.076200
     85 H48         8.9960   -5.4400  -14.6940 h5        1 TEY      0.084100
@<TRIPOS>BOND
     1    1    2 1   
     2    1   38 1   
     3    2    3 1   
     4    2    4 1   
     5    2    5 1   
     6    3   39 1   
     7    3   40 1   
     8    3   41 1   
     9    4   42 1   
    10    4   43 1   
    11    4   44 1   
    12    5    6 1   
    13    5   45 1   
    14    5   46 1   
    15    6    7 1   
    16    6   47 1   
    17    6   48 1   
    18    7    8 1   
    19    7   49 1   
    20    7   50 1   
    21    8    9 1   
    22    8   10 1   
    23    8   51 1   
    24    9   52 1   
    25    9   53 1   
    26    9   54 1   
    27   10   11 1   
    28   10   13 1   
    29   10   55 1   
    30   11   12 1   
    31   11   56 1   
    32   11   57 1   
    33   12   18 1   
    34   12   58 1   
    35   12   59 1   
    36   13   14 1   
    37   13   15 1   
    38   13   18 1   
    39   14   60 1   
    40   14   61 1   
    41   14   62 1   
    42   15   16 1   
    43   15   63 1   
    44   15   64 1   
    45   16   17 1   
    46   16   65 1   
    47   16   66 1   
    48   17   19 1   
    49   17   67 1   
    50   17   68 1   
    51   18   19 1   
    52   18   69 1   
    53   19   20 2   
    54   20   21 1   
    55   20   70 1   
    56   21   22 2   
    57   21   71 1   
    58   22   23 1   
    59   22   24 1   
    60   23   29 1   
    61   23   72 1   
    62   23   73 1   
    63   24   25 2   
    64   24   26 1   
    65   25   74 1   
    66   25   75 1   
    67   26   27 1   
    68   26   28 1   
    69   26   76 1   
    70   27   77 1   
    71   28   29 1   
    72   28   31 1   
    73   28   78 1   
    74   29   30 1   
    75   29   79 1   
    76   30   80 1   
    77   31   32 1   
    78   31   81 1   
    79   31   82 1   
    80   32   33 1   
    81   32   83 1   
    82   32   84 1   
    83   33   34 1   
    84   33   37 1   
    85   34   35 2   
    86   35   36 1   
    87   35   85 1   
    88   36   37 2   
@<TRIPOS>SUBSTRUCTURE
     1 TEY         1 TEMP              0 ****  ****    0 ROOT
