@<TRIPOS>MOLECULE
TEY
   85    88     1     0     0
SMALL
bcc


@<TRIPOS>ATOM
      1 O20        -0.1470    0.9380    0.8460 oh        1 TEY     -0.598800
      2 C17         1.2310    0.5860    0.7060 c3        1 TEY      0.147800
      3 C19         1.9380    0.7410    2.0500 c3        1 TEY     -0.123100
      4 C18         1.3540   -0.8530    0.2200 c3        1 TEY     -0.123100
      5 C16         1.8220    1.5780   -0.3000 c3        1 TEY     -0.064400
      6 C15         1.1860    1.4780   -1.6700 c3        1 TEY     -0.079400
      7 C14         1.6770    2.5890   -2.5750 c3        1 TEY     -0.079400
      8 C12         1.0570    2.5050   -3.9700 c3        1 TEY     -0.054700
      9 C13        -0.3450    3.0810   -3.9310 c3        1 TEY     -0.092100
     10 C9          1.9380    3.2290   -4.9820 c3        1 TEY     -0.053700
     11 C8          3.3580    2.6270   -5.0470 c3        1 TEY     -0.078400
     12 C7          3.8210    2.6750   -6.5040 c3        1 TEY     -0.074400
     13 C5          1.4600    3.2190   -6.4530 c3        1 TEY     -0.039000
     14 C10         0.9320    1.8490   -6.8390 c3        1 TEY     -0.083100
     15 C2          0.4660    4.3070   -6.8290 c3        1 TEY     -0.068400
     16 C3          0.2530    4.3460   -8.3320 c3        1 TEY     -0.073400
     17 C4          1.5360    4.4180   -9.1420 c3        1 TEY     -0.046200
     18 C6          2.7840    3.5410   -7.2030 c3        1 TEY     -0.040500
     19 C1          2.5950    3.4720   -8.6770 c2        1 TEY     -0.065400
     20 C21         3.3530    2.7040   -9.4790 ce        1 TEY     -0.164000
     21 C22         3.2200    2.5910  -10.9120 ce        1 TEY     -0.100000
     22 C23         4.1730    2.1120  -11.7390 cf        1 TEY     -0.097200
     23 C24         3.9270    2.0190  -13.2060 c3        1 TEY     -0.076200
     24 C28         5.5010    1.6780  -11.3080 cf        1 TEY     -0.121200
     25 C29         6.2740    2.3890  -10.4800 c2        1 TEY     -0.177000
     26 C27         5.9690    0.3610  -11.8740 c3        1 TEY      0.181300
     27 O30         5.3080   -0.7320  -11.2580 oh        1 TEY     -0.586800
     28 C26         5.8070    0.3410  -13.4030 c3        1 TEY     -0.085700
     29 C25         4.3570    0.6690  -13.7790 c3        1 TEY      0.146100
     30 O32         4.2980    0.7050  -15.2010 oh        1 TEY     -0.596800
     31 C31         6.2140   -1.0040  -13.9830 c3        1 TEY     -0.102400
     32 C33         7.7320   -1.0790  -14.1270 c3        1 TEY      0.070300
     33 N34         8.2020   -2.3530  -14.6880 na        1 TEY      0.199900
     34 N35         8.3920   -3.4680  -13.9530 nc        1 TEY     -0.486800
     35 C36         8.7320   -4.3970  -14.8820 cd        1 TEY      0.462900
     36 N37         8.7220   -3.7950  -16.1730 nd        1 TEY     -0.376000
     37 N38         8.3930   -2.5810  -16.0180 nc        1 TEY     -0.150800
     38 H1         -0.5270    0.3190    1.4810 ho        1 TEY      0.397000
     39 H2          3.0230    0.5080    1.9400 hc        1 TEY      0.042367
     40 H3          1.8250    1.7860    2.4220 hc        1 TEY      0.042367
     41 H4          1.4960    0.0460    2.8030 hc        1 TEY      0.042367
     42 H5          0.6820   -1.0190   -0.6560 hc        1 TEY      0.042367
     43 H6          2.4060   -1.0670   -0.0810 hc        1 TEY      0.042367
     44 H7          1.0600   -1.5620    1.0310 hc        1 TEY      0.042367
     45 H8          2.9240    1.3880   -0.3730 hc        1 TEY      0.047200
     46 H9          1.6740    2.6150    0.1030 hc        1 TEY      0.047200
     47 H10         0.0710    1.5270   -1.5590 hc        1 TEY      0.048700
     48 H11         1.4330    0.4840   -2.1290 hc        1 TEY      0.048700
     49 H12         2.7950    2.5280   -2.6430 hc        1 TEY      0.040200
     50 H13         1.4290    3.5840   -2.1210 hc        1 TEY      0.040200
     51 H14         0.9920    1.4190   -4.2650 hc        1 TEY      0.050700
     52 H15        -0.9320    2.7550   -4.8230 hc        1 TEY      0.035033
     53 H16        -0.8850    2.7300   -3.0180 hc        1 TEY      0.035033
     54 H17        -0.3130    4.1970   -3.9130 hc        1 TEY      0.035033
     55 H18         2.0170    4.3040   -4.6570 hc        1 TEY      0.046700
     56 H19         3.3530    1.5710   -4.6790 hc        1 TEY      0.043200
     57 H20         4.0520    3.2130   -4.3960 hc        1 TEY      0.043200
     58 H21         3.8450    1.6440   -6.9390 hc        1 TEY      0.045200
     59 H22         4.8450    3.1100   -6.5960 hc        1 TEY      0.045200
     60 H23         0.8800    1.7470   -7.9500 hc        1 TEY      0.037700
     61 H24         1.6060    1.0480   -6.4480 hc        1 TEY      0.037700
     62 H25        -0.0910    1.6920   -6.4200 hc        1 TEY      0.037700
     63 H26         0.8480    5.3000   -6.4740 hc        1 TEY      0.044200
     64 H27        -0.5190    4.1280   -6.3250 hc        1 TEY      0.044200
     65 H28        -0.3790    5.2380   -8.5860 hc        1 TEY      0.041200
     66 H29        -0.3240    3.4340   -8.6420 hc        1 TEY      0.041200
     67 H30         1.2850    4.2440  -10.2210 hc        1 TEY      0.047700
     68 H31         1.9580    5.4590   -9.0670 hc        1 TEY      0.047700
     69 H32         3.0470    4.6180   -6.9730 hc        1 TEY      0.055700
     70 H33         4.1560    2.0860   -9.0330 ha        1 TEY      0.136000
     71 H34         2.2500    2.9000  -11.3440 ha        1 TEY      0.124000
     72 H35         2.8420    2.1830  -13.4400 hc        1 TEY      0.057700
     73 H36         4.5070    2.8310  -13.7250 hc        1 TEY      0.057700
     74 H37         5.9550    3.3540  -10.0650 ha        1 TEY      0.122000
     75 H38         7.2710    2.0480  -10.1710 ha        1 TEY      0.122000
     76 H39         7.0560    0.1860  -11.6200 h1        1 TEY      0.077700
     77 H40         4.3590   -0.5690  -11.3160 ho        1 TEY      0.404000
     78 H41         6.4620    1.1500  -13.8330 hc        1 TEY      0.071700
     79 H42         3.6760   -0.1460  -13.4010 h1        1 TEY      0.037700
     80 H43         3.3880    0.9230  -15.4350 ho        1 TEY      0.404000
     81 H44         5.7320   -1.1330  -14.9890 hc        1 TEY      0.078700
     82 H45         5.8460   -1.8260  -13.3120 hc        1 TEY      0.078700
     83 H46         8.2190   -0.9520  -13.1180 h1        1 TEY      0.076200
     84 H47         8.0910   -0.2580  -14.8100 h1        1 TEY      0.076200
     85 H48         8.9840   -5.4440  -14.6970 h5        1 TEY      0.084100
@<TRIPOS>BOND
     1    1    2 1   
     2    1   38 1   
     3    2    3 1   
     4    2    4 1   
     5    2    5 1   
     6    3   39 1   
     7    3   40 1   
     8    3   41 1   
     9    4   42 1   
    10    4   43 1   
    11    4   44 1   
    12    5    6 1   
    13    5   45 1   
    14    5   46 1   
    15    6    7 1   
    16    6   47 1   
    17    6   48 1   
    18    7    8 1   
    19    7   49 1   
    20    7   50 1   
    21    8    9 1   
    22    8   10 1   
    23    8   51 1   
    24    9   52 1   
    25    9   53 1   
    26    9   54 1   
    27   10   11 1   
    28   10   13 1   
    29   10   55 1   
    30   11   12 1   
    31   11   56 1   
    32   11   57 1   
    33   12   18 1   
    34   12   58 1   
    35   12   59 1   
    36   13   14 1   
    37   13   15 1   
    38   13   18 1   
    39   14   60 1   
    40   14   61 1   
    41   14   62 1   
    42   15   16 1   
    43   15   63 1   
    44   15   64 1   
    45   16   17 1   
    46   16   65 1   
    47   16   66 1   
    48   17   19 1   
    49   17   67 1   
    50   17   68 1   
    51   18   19 1   
    52   18   69 1   
    53   19   20 2   
    54   20   21 1   
    55   20   70 1   
    56   21   22 2   
    57   21   71 1   
    58   22   23 1   
    59   22   24 1   
    60   23   29 1   
    61   23   72 1   
    62   23   73 1   
    63   24   25 2   
    64   24   26 1   
    65   25   74 1   
    66   25   75 1   
    67   26   27 1   
    68   26   28 1   
    69   26   76 1   
    70   27   77 1   
    71   28   29 1   
    72   28   31 1   
    73   28   78 1   
    74   29   30 1   
    75   29   79 1   
    76   30   80 1   
    77   31   32 1   
    78   31   81 1   
    79   31   82 1   
    80   32   33 1   
    81   32   83 1   
    82   32   84 1   
    83   33   34 1   
    84   33   37 1   
    85   34   35 2   
    86   35   36 1   
    87   35   85 1   
    88   36   37 2   
@<TRIPOS>SUBSTRUCTURE
     1 TEY         1 TEMP              0 ****  ****    0 ROOT
