@<TRIPOS>MOLECULE
TEY
   85    84     1     0     0
SMALL
bcc


@<TRIPOS>ATOM
      1 O20        -2.5050    1.8070    8.4660 oh        1 TEY     -0.326000
      2 C17        -3.8440    2.1070    8.1310 c3        1 TEY      0.076000
      3 C19        -4.0810    3.6320    8.2550 c3        1 TEY     -0.241000
      4 C18        -4.7960    1.3600    9.0930 c3        1 TEY     -0.241000
      5 C16        -4.1210    1.6720    6.7100 c3        1 TEY     -0.145000
      6 C15        -2.7780    1.1410    6.0430 c3        1 TEY     -0.156000
      7 C14        -2.5160    1.9090    4.7030 c3        1 TEY     -0.157000
      8 C12        -2.6020    0.9320    3.5240 c3        1 TEY     -0.099000
      9 C13        -3.9050    1.1560    2.7790 c3        1 TEY     -0.209000
     10 C9         -1.4390    1.1680    2.5860 c3        1 TEY     -0.094000
     11 C8         -0.3180    0.4060    2.9910 c3        1 TEY     -0.159000
     12 C7          0.4210    0.0460    1.6460 c3        1 TEY     -0.151000
     13 C5         -1.8050    0.6500    1.1040 c3        1 TEY     -0.035000
     14 C10        -2.6840    1.6630    0.3500 c3        1 TEY     -0.204000
     15 C2         -2.5520   -0.6520    1.3830 c3        1 TEY     -0.147000
     16 C3         -2.6820   -1.5730    0.1420 c3        1 TEY     -0.152000
     17 C4         -1.3150   -1.8480   -0.5520 c3        1 TEY     -0.127000
     18 C6         -0.6040    0.4540    0.4860 c3        1 TEY     -0.076000
     19 C1         -0.6790   -0.5730   -0.8320 c2        1 TEY     -0.063000
     20 C21         0.2500   -0.4650   -1.8600 c1        1 TEY     -0.159000
     21 C22         0.6030   -1.7040   -2.7100 c1        1 TEY     -0.110000
     22 C23         1.7920   -1.7140   -3.4990 c1        1 TEY     -0.070000
     23 C24         2.7220   -0.5410   -3.5270 c2        1 TEY     -0.154000
     24 C28         2.2030   -3.0350   -4.4270 c2        1 TEY     -0.120000
     25 C29         1.8230   -4.3210   -4.0650 c1        1 TEY     -0.194000
     26 C27         2.9570   -2.7920   -5.6050 c3        1 TEY      0.070000
     27 O30         2.1380   -2.6840   -6.7330 oh        1 TEY     -0.323000
     28 C26         4.0300   -1.3730   -5.4320 c3        1 TEY     -0.087000
     29 C25         3.5120   -0.3940   -5.0380 c3        1 TEY      0.034000
     30 O32         4.6000    0.7020   -4.9120 oh        1 TEY     -0.338000
     31 C31         4.6780   -1.0460   -6.8950 c3        1 TEY     -0.164000
     32 C33         6.1860   -1.0300   -6.7900 c3        1 TEY      0.003000
     33 N34         6.7570   -0.6270   -8.0600 n3        1 TEY     -0.154000
     34 N35         7.9160   -1.0710   -8.5780 n2        1 TEY     -0.063000
     35 C36         8.1530   -0.4030   -9.6790 c1        1 TEY     -0.201000
     36 N37         7.1440    0.4650   -9.8630 n2        1 TEY     -0.116000
     37 N38         6.2890    0.3170   -8.8580 n2        1 TEY      0.019000
     38 H1         -2.3610    2.0060    9.3090 ho        1 TEY      0.196000
     39 H2         -4.0360    3.8960    9.2040 hc        1 TEY      0.081833
     40 H3         -3.3930    4.1130    7.7480 hc        1 TEY      0.081833
     41 H4         -4.9710    3.8550    7.8940 hc        1 TEY      0.081833
     42 H5         -5.3020    0.6760    8.5920 hc        1 TEY      0.081833
     43 H6         -5.4290    2.0070    9.4990 hc        1 TEY      0.081833
     44 H7         -4.2750    0.9280    9.8010 hc        1 TEY      0.081833
     45 H8         -4.7950    0.9480    6.7140 hc        1 TEY      0.087500
     46 H9         -4.4610    2.4270    6.2000 hc        1 TEY      0.087500
     47 H10        -2.8630    0.1850    5.8580 hc        1 TEY      0.086500
     48 H11        -2.0240    1.2910    6.6600 hc        1 TEY      0.086500
     49 H12        -1.6020    2.3210    4.7280 hc        1 TEY      0.079000
     50 H13        -3.1860    2.6120    4.5930 hc        1 TEY      0.079000
     51 H14        -2.5710    0.0180    3.8570 hc        1 TEY      0.099000
     52 H15        -4.3130    2.0130    3.0760 hc        1 TEY      0.072333
     53 H16        -4.5260    0.4130    2.9700 hc        1 TEY      0.072333
     54 H17        -3.7280    1.1950    1.8130 hc        1 TEY      0.072333
     55 H18        -1.2120    2.1140    2.5630 hc        1 TEY      0.086000
     56 H19        -0.6060   -0.4070    3.4510 hc        1 TEY      0.083500
     57 H20         0.2720    0.9430    3.5750 hc        1 TEY      0.083500
     58 H21         1.2660    0.5720    1.5630 hc        1 TEY      0.083000
     59 H22         0.6140   -0.9210    1.6090 hc        1 TEY      0.083000
     60 H23        -3.6200    1.3370    0.3310 hc        1 TEY      0.075667
     61 H24        -2.6490    2.5340    0.8080 hc        1 TEY      0.075667
     62 H25        -2.3590    1.7610   -0.5560 hc        1 TEY      0.075667
     63 H26        -3.4470   -0.4330    1.7020 hc        1 TEY      0.085500
     64 H27        -2.0730   -1.1440    2.0930 hc        1 TEY      0.085500
     65 H28        -3.2950   -1.1430   -0.5140 hc        1 TEY      0.081500
     66 H29        -3.0690   -2.4250    0.4240 hc        1 TEY      0.081500
     67 H30        -0.7610   -2.4980   -0.0610 hc        1 TEY      0.088000
     68 H31        -1.4510   -2.3290   -1.4030 hc        1 TEY      0.088000
     69 H32        -0.3100    1.3390    0.1410 hc        1 TEY      0.091000
     70 H33         0.6690    0.3780   -2.0430 ha        1 TEY      0.125000
     71 H34         0.0090   -2.4860   -2.7080 ha        1 TEY      0.126000
     72 H35         3.3400   -0.5080   -2.7570 ha        1 TEY      0.098000
     73 H36         2.1930    0.2810   -3.3660 ha        1 TEY      0.098000
     74 H37         1.2990   -4.4660   -3.2430 DU        1 TEY      0.170500
     75 H38         2.0760   -5.0840   -4.6270 ha        1 TEY      0.118000
     76 H39         3.4930   -3.6020   -5.8400 h1        1 TEY      0.083000
     77 H40         2.0100   -3.5080   -7.0940 ho        1 TEY      0.207000
     78 H41         4.7540   -1.6060   -4.8180 hc        1 TEY      0.107000
     79 H42         2.8590   -0.1040   -5.6990 h1        1 TEY      0.100000
     80 H43         4.2110    1.5030   -4.8570 ho        1 TEY      0.205000
     81 H44         4.3630   -0.1690   -7.2030 hc        1 TEY      0.106500
     82 H45         4.4050   -1.7330   -7.5330 hc        1 TEY      0.106500
     83 H46         6.4560   -0.3960   -6.0970 h1        1 TEY      0.128500
     84 H47         6.5070   -1.9250   -6.5580 h1        1 TEY      0.128500
     85 H48         8.9440   -0.5190  -10.2770 DU        1 TEY      0.170500
@<TRIPOS>BOND
     1    1    2 1   
     2    1   38 1   
     3    2    3 1   
     4    2    4 1   
     5    2    5 1   
     6    3   39 1   
     7    3   40 1   
     8    3   41 1   
     9    4   42 1   
    10    4   43 1   
    11    4   44 1   
    12    5    6 1   
    13    5   45 1   
    14    5   46 1   
    15    6    7 1   
    16    6   47 1   
    17    6   48 1   
    18    7    8 1   
    19    7   49 1   
    20    7   50 1   
    21    8    9 1   
    22    8   10 1   
    23    8   51 1   
    24    9   52 1   
    25    9   53 1   
    26    9   54 1   
    27   10   11 1   
    28   10   13 1   
    29   10   55 1   
    30   11   12 1   
    31   11   56 1   
    32   11   57 1   
    33   12   18 1   
    34   12   58 1   
    35   12   59 1   
    36   13   14 1   
    37   13   15 1   
    38   13   18 1   
    39   14   60 1   
    40   14   61 1   
    41   14   62 1   
    42   15   16 1   
    43   15   63 1   
    44   15   64 1   
    45   16   17 1   
    46   16   65 1   
    47   16   66 1   
    48   17   19 1   
    49   17   67 1   
    50   17   68 1   
    51   18   19 1   
    52   18   69 1   
    53   19   20 1   
    54   20   70 1   
    55   21   22 1   
    56   21   71 1   
    57   22   24 1   
    58   23   29 1   
    59   23   72 1   
    60   23   73 1   
    61   24   25 1   
    62   24   26 1   
    63   25   75 1   
    64   26   27 1   
    65   26   28 1   
    66   26   76 1   
    67   27   77 1   
    68   28   29 1   
    69   28   31 1   
    70   28   78 1   
    71   29   30 1   
    72   29   79 1   
    73   30   80 1   
    74   31   32 1   
    75   31   81 1   
    76   31   82 1   
    77   32   33 1   
    78   32   83 1   
    79   32   84 1   
    80   33   34 1   
    81   33   37 1   
    82   34   35 1   
    83   35   36 1   
    84   36   37 1   
@<TRIPOS>SUBSTRUCTURE
     1 TEY         1 TEMP              0 ****  ****    0 ROOT
