@<TRIPOS>MOLECULE
TF1
   47    48     1     0     0
SMALL
bcc


@<TRIPOS>ATOM
      1 N1         -0.0570   -0.1450   -0.0210 n         1 TF1     -0.432800
      2 C1         -0.7650    0.9870   -0.4080 c         1 TF1      0.670100
      3 C2          1.4070   -0.1330    0.0560 c3        1 TF1      0.073700
      4 C3         -0.6170   -1.1240    0.8920 c3        1 TF1      0.047000
      5 C4         -2.3060    0.9170   -0.5400 c3        1 TF1      0.062800
      6 O1         -0.2160    2.0360   -0.7880 o         1 TF1     -0.569100
      7 C5          1.9050    0.0530    1.5220 c3        1 TF1      0.049000
      8 C6          2.1410    0.8690   -0.8220 c3        1 TF1     -0.095100
      9 C7         -0.1270   -0.9460    2.3610 c3        1 TF1      0.076700
     10 C8         -2.8430    2.3250   -1.0540 c3        1 TF1      0.610900
     11 C9         -2.7290   -0.1470   -1.5370 c3        1 TF1     -0.137100
     12 O2         -2.8530    0.7100    0.7450 oh        1 TF1     -0.575800
     13 N2          1.3310   -0.9030    2.4500 n         1 TF1     -0.449800
     14 C10        -0.8350   -1.9790    3.2240 c3        1 TF1     -0.093100
     15 F1         -2.5060    2.6290   -2.3420 f         1 TF1     -0.227967
     16 F2         -4.2200    2.3620   -1.0290 f         1 TF1     -0.227967
     17 F3         -2.4620    3.3940   -0.2960 f         1 TF1     -0.227967
     18 C11         2.0860   -2.0110    2.8510 c         1 TF1      0.661700
     19 C12         3.5650   -1.8350    3.0020 ca        1 TF1     -0.118600
     20 O3          1.5690   -3.1040    3.1500 o         1 TF1     -0.580100
     21 C13         4.4100   -2.8210    2.4790 ca        1 TF1     -0.099000
     22 C14         4.0990   -0.7560    3.7120 ca        1 TF1     -0.099000
     23 C15         5.7880   -2.7190    2.6480 ca        1 TF1     -0.099500
     24 C16         5.4770   -0.6540    3.8920 ca        1 TF1     -0.099500
     25 C17         6.3250   -1.6330    3.3550 ca        1 TF1      0.002000
     26 C18         7.7320   -1.5270    3.5310 cg        1 TF1      0.226800
     27 N3          8.8840   -1.4400    3.6750 n1        1 TF1     -0.349800
     28 H2          1.7130   -1.1700   -0.2890 h1        1 TF1      0.059700
     29 H3C1       -1.7390   -1.0830    0.9000 h1        1 TF1      0.074200
     30 H3C2       -0.3090   -2.1440    0.5210 h1        1 TF1      0.074200
     31 H5C1        1.6270    1.0870    1.8750 h1        1 TF1      0.071700
     32 H5C2        3.0270   -0.0250    1.5150 h1        1 TF1      0.071700
     33 H6C1        2.0590    1.9050   -0.4140 hc        1 TF1      0.056033
     34 H6C2        1.7290    0.8690   -1.8600 hc        1 TF1      0.056033
     35 H6C3        3.2190    0.5790   -0.8620 hc        1 TF1      0.056033
     36 H7         -0.4650    0.0800    2.7130 h1        1 TF1      0.068700
     37 H9C1       -2.2310    0.0380   -2.5200 hc        1 TF1      0.069700
     38 H9C2       -3.8370   -0.1120   -1.6820 hc        1 TF1      0.069700
     39 H9C3       -2.4450   -1.1610   -1.1680 hc        1 TF1      0.069700
     40 HA         -3.8170    0.6840    0.6470 ho        1 TF1      0.429000
     41 H101       -0.7240   -3.0070    2.8020 hc        1 TF1      0.054033
     42 H102       -1.9210   -1.7180    3.2670 hc        1 TF1      0.054033
     43 H103       -0.4240   -1.9820    4.2620 hc        1 TF1      0.054033
     44 H13         3.9770   -3.6840    1.9490 ha        1 TF1      0.155500
     45 H14         3.4330    0.0110    4.1380 ha        1 TF1      0.155500
     46 H15         6.4540   -3.4920    2.2350 ha        1 TF1      0.151500
     47 H16         5.8990    0.1930    4.4550 ha        1 TF1      0.151500
@<TRIPOS>BOND
     1    1    2 1   
     2    1    3 1   
     3    1    4 1   
     4    2    5 1   
     5    2    6 2   
     6    3    7 1   
     7    3    8 1   
     8    3   28 1   
     9    4    9 1   
    10    4   29 1   
    11    4   30 1   
    12    5   10 1   
    13    5   11 1   
    14    5   12 1   
    15    7   13 1   
    16    7   31 1   
    17    7   32 1   
    18    8   33 1   
    19    8   34 1   
    20    8   35 1   
    21    9   13 1   
    22    9   14 1   
    23    9   36 1   
    24   10   15 1   
    25   10   16 1   
    26   10   17 1   
    27   11   37 1   
    28   11   38 1   
    29   11   39 1   
    30   12   40 1   
    31   13   18 1   
    32   14   41 1   
    33   14   42 1   
    34   14   43 1   
    35   18   19 1   
    36   18   20 2   
    37   19   21 ar  
    38   19   22 ar  
    39   21   23 ar  
    40   21   44 1   
    41   22   24 ar  
    42   22   45 1   
    43   23   25 ar  
    44   23   46 1   
    45   24   25 ar  
    46   24   47 1   
    47   25   26 1   
    48   26   27 3   
@<TRIPOS>SUBSTRUCTURE
     1 TF1         1 TEMP              0 ****  ****    0 ROOT
