@<TRIPOS>MOLECULE
TF1
   47    46     1     0     0
SMALL
bcc


@<TRIPOS>ATOM
      1 N1         -2.3510   -0.4410   -1.1740 ne        1 TF1     -0.656100
      2 C1         -3.1520   -0.3720   -2.3260 c         1 TF1      0.716500
      3 C2          3.9320    0.5160    1.7760 c2        1 TF1     -0.210200
      4 C3         -2.0320   -1.4920   -0.5340 c2        1 TF1      0.533100
      5 C4         -4.5590    0.2490   -2.1500 c3        1 TF1      0.058800
      6 O1         -2.7480   -0.6650   -3.4570 o         1 TF1     -0.518100
      7 C5          2.9970    0.6010    2.7400 c2        1 TF1     -0.044400
      8 C6          4.5550    1.7100    1.1730 c3        1 TF1     -0.054900
      9 C7          0.9250   -0.3240    3.6100 c3        1 TF1      0.092000
     10 C8         -4.4970    1.5900   -1.3060 c3        1 TF1      0.603900
     11 C9         -5.1790    0.5430   -3.5050 c3        1 TF1     -0.131100
     12 O2         -5.3020   -0.6970   -1.4090 oh        1 TF1     -0.570800
     13 N2          2.3580   -0.4610    3.4010 n         1 TF1     -0.388000
     14 C10         0.0590   -0.6150    2.3950 c3        1 TF1     -0.126100
     15 F1         -3.5440    2.4770   -1.7210 f         1 TF1     -0.230633
     16 F2         -5.6800    2.2900   -1.3550 f         1 TF1     -0.230633
     17 F3         -4.2820    1.4080    0.0330 f         1 TF1     -0.230633
     18 C11         2.9250   -1.7340    3.5360 c         1 TF1      0.664700
     19 C12         4.4110   -1.8740    3.5320 ca        1 TF1     -0.105600
     20 O3          2.1980   -2.7270    3.7310 o         1 TF1     -0.580100
     21 C13         4.9980   -2.8110    2.6740 ca        1 TF1     -0.097500
     22 C14         5.2000   -1.1470    4.4280 ca        1 TF1     -0.097500
     23 C15         6.3770   -3.0090    2.6990 ca        1 TF1     -0.098000
     24 C16         6.5790   -1.3470    4.4610 ca        1 TF1     -0.098000
     25 C17         7.1700   -2.2760    3.5930 ca        1 TF1     -0.002000
     26 C18         8.5780   -2.4770    3.6220 cg        1 TF1      0.228800
     27 N3          9.7290   -2.6410    3.6450 n1        1 TF1     -0.353800
     28 H2          4.2980   -0.4530    1.3970 ha        1 TF1      0.131000
     29 H3C1        0.7310    0.7300    3.9600 h1        1 TF1      0.062200
     30 H3C2       -2.3530   -2.5270   -0.7620 h4        1 TF1      0.002300
     31 H5C1        2.6320    1.5910    3.0870 h4        1 TF1      0.141000
     32 H5C2       -1.3770   -1.3660    0.3540 h4        1 TF1      0.002300
     33 H6C1        5.6570    1.7060    1.3670 hc        1 TF1      0.044033
     34 H6C2        4.3970    1.7010    0.0650 hc        1 TF1      0.044033
     35 H6C3        4.1290    2.6590    1.5820 hc        1 TF1      0.044033
     36 H7          0.6340   -1.0310    4.4400 h1        1 TF1      0.062200
     37 H9C1       -4.5610    1.3010   -4.0430 hc        1 TF1      0.073033
     38 H9C2       -5.2060   -0.3950   -4.1120 hc        1 TF1      0.073033
     39 H9C3       -6.2170    0.9340   -3.3790 hc        1 TF1      0.073033
     40 HA         -6.2250   -0.4040   -1.4160 ho        1 TF1      0.428000
     41 H101        0.3130    0.0620    1.5440 hc        1 TF1      0.046700
     42 H102        0.1930   -1.6740    2.0660 hc        1 TF1      0.046700
     43 H103       -1.0120   -0.4570    2.6710 hc        1 TF1      0.046700
     44 H13         4.3650   -3.3980    1.9910 ha        1 TF1      0.153500
     45 H14         4.7350   -0.4180    5.1090 ha        1 TF1      0.153500
     46 H15         6.8400   -3.7440    2.0240 ha        1 TF1      0.150500
     47 H16         7.2010   -0.7780    5.1680 ha        1 TF1      0.150500
@<TRIPOS>BOND
     1    1    2 1   
     2    1    4 2   
     3    2    5 1   
     4    2    6 2   
     5    3    7 2   
     6    3    8 1   
     7    3   28 1   
     8    4   30 1   
     9    4   32 1   
    10    5   10 1   
    11    5   11 1   
    12    5   12 1   
    13    7   13 1   
    14    7   31 1   
    15    8   33 1   
    16    8   34 1   
    17    8   35 1   
    18    9   13 1   
    19    9   14 1   
    20    9   29 1   
    21    9   36 1   
    22   10   15 1   
    23   10   16 1   
    24   10   17 1   
    25   11   37 1   
    26   11   38 1   
    27   11   39 1   
    28   12   40 1   
    29   13   18 1   
    30   14   41 1   
    31   14   42 1   
    32   14   43 1   
    33   18   19 1   
    34   18   20 2   
    35   19   21 ar  
    36   19   22 ar  
    37   21   23 ar  
    38   21   44 1   
    39   22   24 ar  
    40   22   45 1   
    41   23   25 ar  
    42   23   46 1   
    43   24   25 ar  
    44   24   47 1   
    45   25   26 1   
    46   26   27 3   
@<TRIPOS>SUBSTRUCTURE
     1 TF1         1 TEMP              0 ****  ****    0 ROOT
