@<TRIPOS>MOLECULE
TF1
   47    48     1     0     0
SMALL
bcc


@<TRIPOS>ATOM
      1 N1          1.3740    0.0480   -0.6630 n         1 TF1     -0.438800
      2 C1          2.5570   -0.5210   -0.2090 c         1 TF1      0.624100
      3 C2          0.1460   -0.7370   -0.7950 c3        1 TF1      0.074700
      4 C3          1.0930    1.4590   -0.4770 c3        1 TF1      0.041000
      5 C4          3.8680    0.3040   -0.2790 c3        1 TF1      0.067800
      6 O1          2.6410   -1.7030    0.1700 o         1 TF1     -0.570100
      7 C5         -0.8500   -0.4600    0.3720 c3        1 TF1      0.049000
      8 C6          0.3010   -2.2430   -0.9360 c3        1 TF1     -0.096100
      9 C7          0.0920    1.7400    0.6870 c3        1 TF1      0.078700
     10 C8          5.0820   -0.6560    0.0900 c3        1 TF1      0.608900
     11 C9          4.1110    0.8790   -1.6640 c3        1 TF1     -0.099100
     12 O2          3.8640    1.3650    0.6500 oh        1 TF1     -0.570800
     13 N2         -1.1310    0.9500    0.5660 n         1 TF1     -0.450800
     14 C10        -0.0750    3.2470    0.8080 c3        1 TF1     -0.095100
     15 F1          5.1920   -1.7710   -0.6910 f         1 TF1     -0.226633
     16 F2          6.2990   -0.0310   -0.0170 f         1 TF1     -0.226633
     17 F3          5.0400   -1.0940    1.3880 f         1 TF1     -0.226633
     18 C11        -2.3210    1.4910    0.0640 c         1 TF1      0.662700
     19 C12        -3.5410    0.6240    0.0660 ca        1 TF1     -0.119600
     20 O3         -2.4130    2.6740   -0.3140 o         1 TF1     -0.578100
     21 C13        -4.3420    0.5980   -1.0810 ca        1 TF1     -0.099000
     22 C14        -3.9230   -0.0880    1.2070 ca        1 TF1     -0.099000
     23 C15        -5.5140   -0.1530   -1.0960 ca        1 TF1     -0.099000
     24 C16        -5.1000   -0.8350    1.2000 ca        1 TF1     -0.099000
     25 C17        -5.8950   -0.8740    0.0450 ca        1 TF1      0.002000
     26 C18        -7.0920   -1.6410    0.0340 cg        1 TF1      0.226800
     27 N3         -8.0710   -2.2690    0.0250 n1        1 TF1     -0.348800
     28 H2         -0.3280   -0.3550   -1.7550 h1        1 TF1      0.059700
     29 H3C1        0.6550    1.8490   -1.4400 h1        1 TF1      0.079200
     30 H3C2        2.0320    2.0380   -0.2590 h1        1 TF1      0.079200
     31 H5C1       -1.7960   -1.0280    0.1560 h1        1 TF1      0.070700
     32 H5C2       -0.4120   -0.8600    1.3310 h1        1 TF1      0.070700
     33 H6C1        0.5640   -2.7180    0.0400 hc        1 TF1      0.056033
     34 H6C2       -0.6690   -2.6660   -1.2950 hc        1 TF1      0.056033
     35 H6C3        1.0990   -2.4970   -1.6740 hc        1 TF1      0.056033
     36 H7          0.5710    1.3740    1.6490 h1        1 TF1      0.056700
     37 H9C1        3.3000    1.5920   -1.9460 hc        1 TF1      0.071367
     38 H9C2        5.0850    1.4280   -1.6720 hc        1 TF1      0.071367
     39 H9C3        4.1490    0.0440   -2.4040 hc        1 TF1      0.071367
     40 HA          3.8270    0.9770    1.5370 ho        1 TF1      0.428000
     41 H101       -0.3440    3.7060   -0.1740 hc        1 TF1      0.055700
     42 H102       -0.8760    3.5020    1.5430 hc        1 TF1      0.055700
     43 H103        0.8910    3.6830    1.1610 hc        1 TF1      0.055700
     44 H13        -4.0490    1.1890   -1.9640 ha        1 TF1      0.155000
     45 H14        -3.3010   -0.0550    2.1150 ha        1 TF1      0.155000
     46 H15        -6.1440   -0.1760   -1.9990 ha        1 TF1      0.152000
     47 H16        -5.4050   -1.3920    2.0990 ha        1 TF1      0.152000
@<TRIPOS>BOND
     1    1    2 1   
     2    1    3 1   
     3    1    4 1   
     4    2    5 1   
     5    2    6 2   
     6    3    7 1   
     7    3    8 1   
     8    3   28 1   
     9    4    9 1   
    10    4   29 1   
    11    4   30 1   
    12    5   10 1   
    13    5   11 1   
    14    5   12 1   
    15    7   13 1   
    16    7   31 1   
    17    7   32 1   
    18    8   33 1   
    19    8   34 1   
    20    8   35 1   
    21    9   13 1   
    22    9   14 1   
    23    9   36 1   
    24   10   15 1   
    25   10   16 1   
    26   10   17 1   
    27   11   37 1   
    28   11   38 1   
    29   11   39 1   
    30   12   40 1   
    31   13   18 1   
    32   14   41 1   
    33   14   42 1   
    34   14   43 1   
    35   18   19 1   
    36   18   20 2   
    37   19   21 ar  
    38   19   22 ar  
    39   21   23 ar  
    40   21   44 1   
    41   22   24 ar  
    42   22   45 1   
    43   23   25 ar  
    44   23   46 1   
    45   24   25 ar  
    46   24   47 1   
    47   25   26 1   
    48   26   27 3   
@<TRIPOS>SUBSTRUCTURE
     1 TF1         1 TEMP              0 ****  ****    0 ROOT
