@<TRIPOS>MOLECULE
TF1
   47    48     1     0     0
SMALL
bcc


@<TRIPOS>ATOM
      1 N1         -0.0530   -0.1400   -0.0340 n         1 TF1     -0.432800
      2 C1         -0.7480    0.9930   -0.4390 c         1 TF1      0.670100
      3 C2          1.4110   -0.1480    0.0310 c3        1 TF1      0.073700
      4 C3         -0.6200   -1.0930    0.9030 c3        1 TF1      0.047000
      5 C4         -2.2910    0.9430   -0.5570 c3        1 TF1      0.062800
      6 O1         -0.1870    2.0260   -0.8450 o         1 TF1     -0.569100
      7 C5          1.9240    0.0600    1.4890 c3        1 TF1      0.049000
      8 C6          2.1520    0.8240   -0.8740 c3        1 TF1     -0.095100
      9 C7         -0.1150   -0.8900    2.3650 c3        1 TF1      0.076700
     10 C8         -2.8120    2.3480   -1.0960 c3        1 TF1      0.610900
     11 C9         -2.7370   -0.1350   -1.5290 c3        1 TF1     -0.137100
     12 O2         -2.8300    0.7700    0.7350 oh        1 TF1     -0.575800
     13 N2          1.3440   -0.8670    2.4410 n         1 TF1     -0.449800
     14 C10        -0.8310   -1.8950    3.2540 c3        1 TF1     -0.093100
     15 F1         -2.4810    2.6210   -2.3930 f         1 TF1     -0.227967
     16 F2         -4.1870    2.4050   -1.0620 f         1 TF1     -0.227967
     17 F3         -2.4090    3.4270   -0.3640 f         1 TF1     -0.227967
     18 C11         2.0860   -1.9780    2.8590 c         1 TF1      0.661700
     19 C12         3.5680   -1.8210    2.9940 ca        1 TF1     -0.118600
     20 O3          1.5550   -3.0570    3.1840 o         1 TF1     -0.580100
     21 C13         4.3940   -2.8290    2.4850 ca        1 TF1     -0.099000
     22 C14         4.1240   -0.7360    3.6780 ca        1 TF1     -0.099000
     23 C15         5.7760   -2.7440    2.6410 ca        1 TF1     -0.099500
     24 C16         5.5050   -0.6500    3.8440 ca        1 TF1     -0.099500
     25 C17         6.3350   -1.6530    3.3210 ca        1 TF1      0.002000
     26 C18         7.7440   -1.5630    3.4840 cg        1 TF1      0.226800
     27 N3          8.8980   -1.4900    3.6170 n1        1 TF1     -0.349800
     28 H2          1.7000   -1.1970   -0.2950 h1        1 TF1      0.059700
     29 H3C1       -0.3300   -2.1240    0.5520 h1        1 TF1      0.074200
     30 H3C2       -1.7410   -1.0350    0.9200 h1        1 TF1      0.074200
     31 H5C1        3.0440   -0.0340    1.4740 h1        1 TF1      0.071700
     32 H5C2        1.6630    1.1050    1.8230 h1        1 TF1      0.071700
     33 H6C1        3.2260    0.5180   -0.9160 hc        1 TF1      0.056033
     34 H6C2        1.7320    0.8090   -1.9080 hc        1 TF1      0.056033
     35 H6C3        2.0890    1.8700   -0.4860 hc        1 TF1      0.056033
     36 H7         -0.4360    0.1470    2.6980 h1        1 TF1      0.068700
     37 H9C1       -2.4650   -1.1450   -1.1410 hc        1 TF1      0.069700
     38 H9C2       -2.2440    0.0230   -2.5190 hc        1 TF1      0.069700
     39 H9C3       -3.8450   -0.0860   -1.6660 hc        1 TF1      0.069700
     40 HA         -3.7950    0.7570    0.6460 ho        1 TF1      0.429000
     41 H101       -1.9130   -1.6180    3.3010 hc        1 TF1      0.054033
     42 H102       -0.4110   -1.8830    4.2890 hc        1 TF1      0.054033
     43 H103       -0.7380   -2.9330    2.8530 hc        1 TF1      0.054033
     44 H13         3.9450   -3.6970    1.9760 ha        1 TF1      0.155500
     45 H14         3.4730    0.0500    4.0930 ha        1 TF1      0.155500
     46 H15         6.4260   -3.5360    2.2390 ha        1 TF1      0.151500
     47 H16         5.9430    0.2010    4.3870 ha        1 TF1      0.151500
@<TRIPOS>BOND
     1    1    2 1   
     2    1    3 1   
     3    1    4 1   
     4    2    5 1   
     5    2    6 2   
     6    3    7 1   
     7    3    8 1   
     8    3   28 1   
     9    4    9 1   
    10    4   29 1   
    11    4   30 1   
    12    5   10 1   
    13    5   11 1   
    14    5   12 1   
    15    7   13 1   
    16    7   31 1   
    17    7   32 1   
    18    8   33 1   
    19    8   34 1   
    20    8   35 1   
    21    9   13 1   
    22    9   14 1   
    23    9   36 1   
    24   10   15 1   
    25   10   16 1   
    26   10   17 1   
    27   11   37 1   
    28   11   38 1   
    29   11   39 1   
    30   12   40 1   
    31   13   18 1   
    32   14   41 1   
    33   14   42 1   
    34   14   43 1   
    35   18   19 1   
    36   18   20 2   
    37   19   21 ar  
    38   19   22 ar  
    39   21   23 ar  
    40   21   44 1   
    41   22   24 ar  
    42   22   45 1   
    43   23   25 ar  
    44   23   46 1   
    45   24   25 ar  
    46   24   47 1   
    47   25   26 1   
    48   26   27 3   
@<TRIPOS>SUBSTRUCTURE
     1 TF1         1 TEMP              0 ****  ****    0 ROOT
