@<TRIPOS>MOLECULE
TF2
   50    51     1     0     0
SMALL
bcc


@<TRIPOS>ATOM
      1 C1         -0.0290   -0.0740   -0.2070 ca        1 TF2     -0.399500
      2 S1         -0.6800   -0.2090   -1.7540 sy        1 TF2      1.512200
      3 C2          1.3570   -0.0320   -0.0190 ca        1 TF2      0.010000
      4 C3         -0.8470   -0.0480    0.9270 ca        1 TF2      0.014000
      5 N1         -0.8060    1.3510   -2.2530 nh        1 TF2     -0.688900
      6 O1         -1.9560   -0.8010   -1.6540 o         1 TF2     -0.652800
      7 O2          0.2530   -0.8810   -2.5760 o         1 TF2     -0.652800
      8 C4          1.9330    0.0450    1.2450 ca        1 TF2     -0.148300
      9 C5         -0.3120    0.0320    2.2050 ca        1 TF2     -0.182000
     10 C6         -1.6980    2.2680   -1.6460 ca        1 TF2      0.131600
     11 C7         -0.0280    1.8510   -3.3650 c3        1 TF2      0.220800
     12 C8          1.0860    0.0850    2.3910 ca        1 TF2      0.125600
     13 C9          3.4110    0.0750    1.3650 c3        1 TF2     -0.058800
     14 C10        -1.2330    3.4930   -1.1220 ca        1 TF2     -0.139500
     15 C11        -3.0770    1.9720   -1.5530 ca        1 TF2     -0.139500
     16 C12        -0.8070    2.0440   -4.6570 c3        1 TF2     -0.113100
     17 N2          1.6710    0.1950    3.6630 ns        1 TF2     -0.453100
     18 C13        -2.1200    4.3860   -0.5270 ca        1 TF2     -0.121500
     19 C14        -3.9470    2.8730   -0.9470 ca        1 TF2     -0.121500
     20 C15         1.0430    0.0480    4.8820 c         1 TF2      0.638100
     21 C16        -3.4770    4.0820   -0.4360 ca        1 TF2     -0.133000
     22 C17         1.9180    0.2280    6.1460 c3        1 TF2      0.067800
     23 O3         -0.1650   -0.1980    5.0440 o         1 TF2     -0.560100
     24 C18         2.9750   -0.9510    6.2450 c3        1 TF2      0.593900
     25 C19         2.6400    1.5660    6.1580 c3        1 TF2     -0.102100
     26 O4          1.1150    0.1730    7.2980 oh        1 TF2     -0.554800
     27 F1          3.7570   -0.8830    7.3650 f         1 TF2     -0.230300
     28 F2          2.4030   -2.1940    6.2810 f         1 TF2     -0.230300
     29 F3          3.8650   -0.9940    5.2000 f         1 TF2     -0.230300
     30 H2          2.0150   -0.0840   -0.9070 ha        1 TF2      0.153000
     31 H3         -1.9440   -0.1060    0.8040 ha        1 TF2      0.162000
     32 H5         -0.9980    0.0470    3.0690 ha        1 TF2      0.178000
     33 H7C1        0.4360    2.8380   -3.0770 h1        1 TF2      0.056700
     34 H7C2        0.8150    1.1210   -3.5570 h1        1 TF2      0.056700
     35 H9C1        3.8960   -0.0220    0.3620 hc        1 TF2      0.049367
     36 H9C2        3.7780   -0.7700    2.0020 hc        1 TF2      0.049367
     37 H9C3        3.7540    1.0390    1.8180 hc        1 TF2      0.049367
     38 H10        -0.1650    3.7530   -1.1790 ha        1 TF2      0.151000
     39 H11        -3.4690    1.0160   -1.9440 ha        1 TF2      0.151000
     40 H121       -1.2220    1.0760   -5.0280 hc        1 TF2      0.045700
     41 H122       -0.1140    2.4530   -5.4320 hc        1 TF2      0.045700
     42 H123       -1.6500    2.7610   -4.5160 hc        1 TF2      0.045700
     43 HA          2.6660    0.2950    3.6800 hn        1 TF2      0.336500
     44 H13        -1.7420    5.3370   -0.1240 ha        1 TF2      0.135500
     45 H14        -5.0180    2.6260   -0.8780 ha        1 TF2      0.135500
     46 H16        -4.1720    4.7910    0.0350 ha        1 TF2      0.135000
     47 H191        3.4740    1.5620    5.4170 hc        1 TF2      0.071700
     48 H192        1.9210    2.3850    5.9160 hc        1 TF2      0.071700
     49 H193        3.0580    1.7470    7.1790 hc        1 TF2      0.071700
     50 H4          0.4070   -0.4770    7.1510 ho        1 TF2      0.446000
@<TRIPOS>BOND
     1    1    2 1   
     2    1    3 ar  
     3    1    4 ar  
     4    2    5 1   
     5    2    6 2   
     6    2    7 2   
     7    3    8 ar  
     8    3   30 1   
     9    4    9 ar  
    10    4   31 1   
    11    5   10 1   
    12    5   11 1   
    13    8   12 ar  
    14    8   13 1   
    15    9   12 ar  
    16    9   32 1   
    17   10   14 ar  
    18   10   15 ar  
    19   11   16 1   
    20   11   33 1   
    21   11   34 1   
    22   12   17 1   
    23   13   35 1   
    24   13   36 1   
    25   13   37 1   
    26   14   18 ar  
    27   14   38 1   
    28   15   19 ar  
    29   15   39 1   
    30   16   40 1   
    31   16   41 1   
    32   16   42 1   
    33   17   20 1   
    34   17   43 1   
    35   18   21 ar  
    36   18   44 1   
    37   19   21 ar  
    38   19   45 1   
    39   20   22 1   
    40   20   23 2   
    41   21   46 1   
    42   22   24 1   
    43   22   25 1   
    44   22   26 1   
    45   24   27 1   
    46   24   28 1   
    47   24   29 1   
    48   25   47 1   
    49   25   48 1   
    50   25   49 1   
    51   26   50 1   
@<TRIPOS>SUBSTRUCTURE
     1 TF2         1 TEMP              0 ****  ****    0 ROOT
