@<TRIPOS>MOLECULE
TF2
   50    51     1     0     0
SMALL
bcc


@<TRIPOS>ATOM
      1 C1         -0.3550   -0.1920   -0.1370 ca        1 TF2     -0.406500
      2 S1         -1.1380   -0.2850   -1.6210 sy        1 TF2      1.512200
      3 C2          1.0090   -0.4880   -0.0320 ca        1 TF2      0.010000
      4 C3         -1.0460    0.1360    1.0330 ca        1 TF2      0.015000
      5 N1         -0.9150    1.2100   -2.2670 nh        1 TF2     -0.688900
      6 O1         -2.5090   -0.5250   -1.3950 o         1 TF2     -0.654300
      7 O2         -0.4690   -1.2370   -2.4250 o         1 TF2     -0.654300
      8 C4          1.6850   -0.4550    1.1840 ca        1 TF2     -0.150300
      9 C5         -0.4090    0.1830    2.2650 ca        1 TF2     -0.187000
     10 C6         -1.5120    2.3680   -1.7120 ca        1 TF2      0.131600
     11 C7         -0.1130    1.4050   -3.4540 c3        1 TF2      0.221800
     12 C8          0.9690   -0.1060    2.3670 ca        1 TF2      0.132600
     13 C9          3.1310   -0.7860    1.2160 c3        1 TF2     -0.058800
     14 C10        -0.7250    3.4740   -1.3250 ca        1 TF2     -0.138500
     15 C11        -2.9130    2.4370   -1.5330 ca        1 TF2     -0.138500
     16 C12        -0.9030    1.6790   -4.7250 c3        1 TF2     -0.113100
     17 N2          1.6620   -0.0560    3.5850 n         1 TF2     -0.447100
     18 C13        -1.3240    4.6060   -0.7800 ca        1 TF2     -0.122000
     19 C14        -3.4920    3.5740   -0.9790 ca        1 TF2     -0.122000
     20 C15         1.1370    0.1890    4.8390 c         1 TF2      0.681100
     21 C16        -2.7060    4.6620   -0.6040 ca        1 TF2     -0.133000
     22 C17         2.1500    0.1440    6.0160 c3        1 TF2      0.058800
     23 O3         -0.0500    0.4540    5.0800 o         1 TF2     -0.552100
     24 C18         3.1520    1.3710    5.9270 c3        1 TF2      0.593900
     25 C19         1.4130    0.2000    7.3420 c3        1 TF2     -0.129100
     26 O4          2.9190   -1.0320    5.8710 oh        1 TF2     -0.576800
     27 F1          4.0820    1.3470    6.9370 f         1 TF2     -0.230300
     28 F2          3.8980    1.4050    4.7780 f         1 TF2     -0.230300
     29 F3          2.5580    2.6000    6.0110 f         1 TF2     -0.230300
     30 H2          1.5610   -0.7770   -0.9460 ha        1 TF2      0.152000
     31 H3         -2.1300    0.3510    0.9780 ha        1 TF2      0.160000
     32 H5         -0.9990    0.4480    3.1580 ha        1 TF2      0.178000
     33 H7C1        0.5970    2.2660   -3.2830 h1        1 TF2      0.056700
     34 H7C2        0.5110    0.4750   -3.6100 h1        1 TF2      0.056700
     35 H9C1        3.5060   -1.0380    0.1930 hc        1 TF2      0.049367
     36 H9C2        3.3210   -1.6710    1.8750 hc        1 TF2      0.049367
     37 H9C3        3.7300    0.0800    1.5960 hc        1 TF2      0.049367
     38 H10         0.3680    3.4510   -1.4500 ha        1 TF2      0.151000
     39 H11        -3.5520    1.5820   -1.8150 ha        1 TF2      0.151000
     40 H121       -0.1840    1.8370   -5.5640 hc        1 TF2      0.045033
     41 H122       -1.5350    2.5920   -4.6170 hc        1 TF2      0.045033
     42 H123       -1.5660    0.8180   -4.9820 hc        1 TF2      0.045033
     43 HA          2.6320   -0.3030    3.5550 hn        1 TF2      0.344500
     44 H13        -0.6970    5.4600   -0.4830 ha        1 TF2      0.135500
     45 H14        -4.5830    3.6110   -0.8410 ha        1 TF2      0.135500
     46 H16        -3.1720    5.5590   -0.1720 ha        1 TF2      0.134000
     47 H191        2.1440    0.2040    8.1860 hc        1 TF2      0.076700
     48 H192        0.7420   -0.6890    7.4310 hc        1 TF2      0.076700
     49 H193        0.7880    1.1250    7.3870 hc        1 TF2      0.076700
     50 H4          3.3800   -1.1810    6.7100 ho        1 TF2      0.435000
@<TRIPOS>BOND
     1    1    2 1   
     2    1    3 ar  
     3    1    4 ar  
     4    2    5 1   
     5    2    6 2   
     6    2    7 2   
     7    3    8 ar  
     8    3   30 1   
     9    4    9 ar  
    10    4   31 1   
    11    5   10 1   
    12    5   11 1   
    13    8   12 ar  
    14    8   13 1   
    15    9   12 ar  
    16    9   32 1   
    17   10   14 ar  
    18   10   15 ar  
    19   11   16 1   
    20   11   33 1   
    21   11   34 1   
    22   12   17 1   
    23   13   35 1   
    24   13   36 1   
    25   13   37 1   
    26   14   18 ar  
    27   14   38 1   
    28   15   19 ar  
    29   15   39 1   
    30   16   40 1   
    31   16   41 1   
    32   16   42 1   
    33   17   20 1   
    34   17   43 1   
    35   18   21 ar  
    36   18   44 1   
    37   19   21 ar  
    38   19   45 1   
    39   20   22 1   
    40   20   23 2   
    41   21   46 1   
    42   22   24 1   
    43   22   25 1   
    44   22   26 1   
    45   24   27 1   
    46   24   28 1   
    47   24   29 1   
    48   25   47 1   
    49   25   48 1   
    50   25   49 1   
    51   26   50 1   
@<TRIPOS>SUBSTRUCTURE
     1 TF2         1 TEMP              0 ****  ****    0 ROOT
