@<TRIPOS>MOLECULE
TF2
   52    53     1     0     0
SMALL
bcc


@<TRIPOS>ATOM
      1 C1         -0.4380   -0.2250   -0.3370 ca        1 TF2     -0.398500
      2 S1         -1.1510   -0.3120   -1.8330 sy        1 TF2      1.431200
      3 C2          0.9430   -0.4130   -0.1950 ca        1 TF2      0.006000
      4 C3         -1.2210   -0.1230    0.8230 ca        1 TF2      0.019000
      5 N1         -1.1550    1.4620   -2.4600 n4        1 TF2     -0.492700
      6 O1         -2.4980   -0.5990   -1.7530 o         1 TF2     -0.547300
      7 O2         -0.3170   -0.9400   -2.7380 o         1 TF2     -0.547300
      8 C4          1.5580   -0.5230    1.0600 ca        1 TF2     -0.044300
      9 C5         -0.6480   -0.2280    2.0870 ca        1 TF2     -0.106000
     10 C6         -1.8810    2.3500   -1.5550 ca        1 TF2     -0.078400
     11 C7          0.1930    1.9830   -2.8420 c3        1 TF2      0.125800
     12 C8          0.7380   -0.4390    2.2080 ca        1 TF2      0.043600
     13 C9          3.0190   -0.7550    1.1370 c3        1 TF2     -0.106800
     14 C10        -1.2080    3.1790   -0.6380 ca        1 TF2     -0.103500
     15 C11        -3.2890    2.4090   -1.6510 ca        1 TF2     -0.103500
     16 C12         0.6330    1.5550   -4.2300 c3        1 TF2     -0.146100
     17 N2          1.3200   -0.6060    3.5410 n4        1 TF2     -0.559200
     18 C13        -1.9400    4.0380    0.1770 ca        1 TF2     -0.107500
     19 C14        -4.0000    3.2730   -0.8240 ca        1 TF2     -0.107500
     20 C15         1.2810    0.6260    4.4340 c         1 TF2      0.544100
     21 C16        -3.3310    4.0930    0.0860 ca        1 TF2     -0.067000
     22 C17         2.1460    0.5240    5.7020 c3        1 TF2      0.075800
     23 O3          0.5960    1.5700    4.0920 o         1 TF2     -0.361100
     24 C18         3.6550    0.8740    5.3090 c3        1 TF2      0.611900
     25 C19         1.6430    1.4840    6.7620 c3        1 TF2     -0.150100
     26 O4          2.1140   -0.8280    6.1020 oh        1 TF2     -0.607800
     27 F1          4.5200    0.5410    6.3080 f         1 TF2     -0.204300
     28 F2          4.0700    0.1810    4.1970 f         1 TF2     -0.204300
     29 F3          3.8570    2.1890    5.0160 f         1 TF2     -0.204300
     30 H2          1.5770   -0.5170   -1.1000 ha        1 TF2      0.191000
     31 H3         -2.3190    0.0150    0.7410 ha        1 TF2      0.197000
     32 H5         -1.2950   -0.1420    2.9790 ha        1 TF2      0.184000
     33 H7C1        0.1750    3.1130   -2.8040 hx        1 TF2      0.090700
     34 H7C2        0.9210    1.6130   -2.0660 hx        1 TF2      0.090700
     35 H9C1        3.5240    0.0090    1.7840 hc        1 TF2      0.088367
     36 H9C2        3.2370   -1.7770    1.5430 hc        1 TF2      0.088367
     37 H9C3        3.4930   -0.6960    0.1230 hc        1 TF2      0.088367
     38 H10        -0.1090    3.1760   -0.5590 ha        1 TF2      0.158000
     39 H11        -3.8410    1.7740   -2.3680 ha        1 TF2      0.158000
     40 H121        0.7230    0.4430   -4.3220 hc        1 TF2      0.089367
     41 H122        1.6400    2.0050   -4.4240 hc        1 TF2      0.089367
     42 H123       -0.0670    1.9300   -5.0160 hc        1 TF2      0.089367
     43 HA          0.8150   -1.3570    4.0430 hn        1 TF2      0.493300
     44 H13        -1.4080    4.6960    0.8860 ha        1 TF2      0.175500
     45 H14        -5.1010    3.3160   -0.9050 ha        1 TF2      0.175500
     46 H16        -3.9010    4.7920    0.7230 ha        1 TF2      0.178000
     47 H191        0.6390    1.1630    7.1330 hc        1 TF2      0.104700
     48 H192        1.5690    2.5210    6.3470 hc        1 TF2      0.104700
     49 H193        2.3620    1.4950    7.6210 hc        1 TF2      0.104700
     50 H4          2.3720   -0.8800    7.0400 ho        1 TF2      0.493000
     51 H111       -1.7040    1.4450   -3.3340 hn        1 TF2      0.463800
     52 H22         2.3120   -0.9000    3.4620 hn        1 TF2      0.493300
@<TRIPOS>BOND
     1    1    2 1   
     2    1    3 ar  
     3    1    4 ar  
     4    2    5 1   
     5    2    6 2   
     6    2    7 2   
     7    3    8 ar  
     8    3   30 1   
     9    4    9 ar  
    10    4   31 1   
    11    5   10 1   
    12    5   11 1   
    13    5   51 1   
    14    8   12 ar  
    15    8   13 1   
    16    9   12 ar  
    17    9   32 1   
    18   10   14 ar  
    19   10   15 ar  
    20   11   16 1   
    21   11   33 1   
    22   11   34 1   
    23   12   17 1   
    24   13   35 1   
    25   13   36 1   
    26   13   37 1   
    27   14   18 ar  
    28   14   38 1   
    29   15   19 ar  
    30   15   39 1   
    31   16   40 1   
    32   16   41 1   
    33   16   42 1   
    34   17   20 1   
    35   17   43 1   
    36   17   52 1   
    37   18   21 ar  
    38   18   44 1   
    39   19   21 ar  
    40   19   45 1   
    41   20   22 1   
    42   20   23 2   
    43   21   46 1   
    44   22   24 1   
    45   22   25 1   
    46   22   26 1   
    47   24   27 1   
    48   24   28 1   
    49   24   29 1   
    50   25   47 1   
    51   25   48 1   
    52   25   49 1   
    53   26   50 1   
@<TRIPOS>SUBSTRUCTURE
     1 TF2         1 TEMP              0 ****  ****    0 ROOT
