@<TRIPOS>MOLECULE
TF2
   50    51     1     0     0
SMALL
bcc


@<TRIPOS>ATOM
      1 C1         -1.1090   -0.5770    1.4770 ca        1 TF2     -0.399500
      2 S1         -1.5520   -0.9410    3.0600 sy        1 TF2      1.512200
      3 C2         -1.9190    0.2400    0.6810 ca        1 TF2      0.010000
      4 C3          0.0460   -1.1170    0.9030 ca        1 TF2      0.014000
      5 N1         -0.9090    0.2970    3.9300 nh        1 TF2     -0.688900
      6 O1         -0.9540   -2.1640    3.4250 o         1 TF2     -0.652300
      7 O2         -2.9620   -0.8860    3.1550 o         1 TF2     -0.652300
      8 C4         -1.6040    0.5350   -0.6420 ca        1 TF2     -0.148300
      9 C5          0.3980   -0.8450   -0.4120 ca        1 TF2     -0.181000
     10 C6          0.4880    0.4830    4.0580 ca        1 TF2      0.131600
     11 C7         -1.7520    1.2380    4.6340 c3        1 TF2      0.220800
     12 C8         -0.4150   -0.0110   -1.2090 ca        1 TF2      0.125600
     13 C9         -2.5170    1.4010   -1.4270 c3        1 TF2     -0.058800
     14 C10         1.0930    1.7070    3.7000 ca        1 TF2     -0.139500
     15 C11         1.3080   -0.5590    4.5500 ca        1 TF2     -0.139500
     16 C12        -1.8030    1.0480    6.1430 c3        1 TF2     -0.113100
     17 N2         -0.0850    0.3160   -2.5340 n         1 TF2     -0.453100
     18 C13         2.4680    1.8770    3.8300 ca        1 TF2     -0.121500
     19 C14         2.6830   -0.3720    4.6650 ca        1 TF2     -0.121500
     20 C15         0.8960   -0.2640   -3.3130 c         1 TF2      0.638100
     21 C16         3.2680    0.8420    4.3110 ca        1 TF2     -0.133000
     22 C17         1.0650    0.2880   -4.7490 c3        1 TF2      0.067800
     23 O3          1.6610   -1.1730   -2.9480 o         1 TF2     -0.560100
     24 C18        -0.2130   -0.0680   -5.6190 c3        1 TF2      0.593900
     25 C19         1.2920    1.7910   -4.7630 c3        1 TF2     -0.102100
     26 O4          2.1760   -0.3110   -5.3660 oh        1 TF2     -0.554800
     27 F1         -0.1160    0.3490   -6.9180 f         1 TF2     -0.230300
     28 F2         -0.4650   -1.4120   -5.6920 f         1 TF2     -0.230300
     29 F3         -1.3790    0.4930   -5.1590 f         1 TF2     -0.230300
     30 H2         -2.8510    0.6470    1.1150 ha        1 TF2      0.153000
     31 H3          0.6880   -1.7870    1.5060 ha        1 TF2      0.162000
     32 H5          1.3180   -1.2960   -0.8210 ha        1 TF2      0.178000
     33 H7C1       -2.8000    1.1440    4.2230 h1        1 TF2      0.056700
     34 H7C2       -1.3940    2.2870    4.4190 h1        1 TF2      0.056700
     35 H9C1       -2.8740    0.8750   -2.3480 hc        1 TF2      0.049367
     36 H9C2       -3.4170    1.6810   -0.8250 hc        1 TF2      0.049367
     37 H9C3       -2.0030    2.3480   -1.7320 hc        1 TF2      0.049367
     38 H10         0.4820    2.5380    3.3150 ha        1 TF2      0.151000
     39 H11         0.8660   -1.5320    4.8280 ha        1 TF2      0.151000
     40 H121       -2.4580    1.8400    6.5790 hc        1 TF2      0.045700
     41 H122       -2.2260    0.0500    6.4110 hc        1 TF2      0.045700
     42 H123       -0.7860    1.1350    6.5950 hc        1 TF2      0.045700
     43 HA         -0.6900    0.9700   -2.9890 hn        1 TF2      0.336500
     44 H13         2.9240    2.8380    3.5480 ha        1 TF2      0.135500
     45 H14         3.3080   -1.1950    5.0440 ha        1 TF2      0.135500
     46 H16         4.3540    0.9830    4.4110 ha        1 TF2      0.135000
     47 H191        0.3440    2.3280   -4.5260 hc        1 TF2      0.071700
     48 H192        2.0790    2.0620   -4.0200 hc        1 TF2      0.071700
     49 H193        1.6410    2.0990   -5.7810 hc        1 TF2      0.071700
     50 H4          2.2320   -1.2370   -5.0730 ho        1 TF2      0.446000
@<TRIPOS>BOND
     1    1    2 1   
     2    1    3 ar  
     3    1    4 ar  
     4    2    5 1   
     5    2    6 2   
     6    2    7 2   
     7    3    8 ar  
     8    3   30 1   
     9    4    9 ar  
    10    4   31 1   
    11    5   10 1   
    12    5   11 1   
    13    8   12 ar  
    14    8   13 1   
    15    9   12 ar  
    16    9   32 1   
    17   10   14 ar  
    18   10   15 ar  
    19   11   16 1   
    20   11   33 1   
    21   11   34 1   
    22   12   17 1   
    23   13   35 1   
    24   13   36 1   
    25   13   37 1   
    26   14   18 ar  
    27   14   38 1   
    28   15   19 ar  
    29   15   39 1   
    30   16   40 1   
    31   16   41 1   
    32   16   42 1   
    33   17   20 1   
    34   17   43 1   
    35   18   21 ar  
    36   18   44 1   
    37   19   21 ar  
    38   19   45 1   
    39   20   22 1   
    40   20   23 2   
    41   21   46 1   
    42   22   24 1   
    43   22   25 1   
    44   22   26 1   
    45   24   27 1   
    46   24   28 1   
    47   24   29 1   
    48   25   47 1   
    49   25   48 1   
    50   25   49 1   
    51   26   50 1   
@<TRIPOS>SUBSTRUCTURE
     1 TF2         1 TEMP              0 ****  ****    0 ROOT
