@<TRIPOS>MOLECULE
TF3
   52    53     1     0     0
SMALL
bcc


@<TRIPOS>ATOM
      1 C1         -0.8350    0.0320    1.3050 ca        1 TF3      0.210100
      2 C2          0.5150    0.4640    1.4630 ca        1 TF3     -0.028600
      3 C3         -1.6030   -0.2550    2.4490 ca        1 TF3     -0.211000
      4 O1         -1.2840   -0.0950    0.0320 os        1 TF3     -0.289900
      5 C4          1.0400    0.6070    2.7420 ca        1 TF3     -0.134000
      6 Cl1         1.4890    0.8400    0.1350 cl        1 TF3     -0.011400
      7 C5         -1.0510   -0.1270    3.7180 ca        1 TF3     -0.049000
      8 C6         -2.7080   -0.3270   -0.1530 c3        1 TF3      0.186700
      9 C7          0.2770    0.2860    3.8770 ca        1 TF3     -0.260300
     10 C8         -2.9430   -0.2820   -1.6210 ca        1 TF3     -0.141300
     11 C9          0.8400    0.5030    5.2270 c3        1 TF3     -0.074100
     12 C10        -3.2130   -1.4600   -2.3260 ca        1 TF3     -0.094000
     13 C11        -2.9300    0.9430   -2.2970 ca        1 TF3     -0.094000
     14 C12         1.8100   -0.5510    5.6770 c         1 TF3      0.570100
     15 C13        -3.4820   -1.4090   -3.6910 ca        1 TF3     -0.128000
     16 C14        -3.1950    0.9890   -3.6630 ca        1 TF3     -0.128000
     17 N1          2.1810   -1.5920    4.5760 ny        1 TF3     -0.697800
     18 O2          2.3590   -0.7260    6.7450 o         1 TF3     -0.396100
     19 C15        -3.4760   -0.1860   -4.3740 ca        1 TF3     -0.029300
     20 C16         3.2060   -2.5610    5.0190 c3        1 TF3      0.073800
     21 C17        -3.7720   -0.1430   -5.8410 c3        1 TF3     -0.033400
     22 C18         3.5970   -3.5730    3.9230 c3        1 TF3      0.077800
     23 C19        -5.0180    0.6770   -6.1190 c3        1 TF3     -0.090600
     24 C20        -2.5890    0.4050   -6.6170 c3        1 TF3     -0.090600
     25 N2          4.6420   -4.5260    4.3840 nz        1 TF3     -0.833600
     26 H3         -2.6570   -0.5600    2.3470 ha        1 TF3      0.177000
     27 H4          2.0500    1.0350    2.8620 ha        1 TF3      0.142000
     28 H5         -1.6790   -0.3310    4.6010 ha        1 TF3      0.154000
     29 H6C1       -2.9580   -1.3310    0.2800 h1        1 TF3      0.057700
     30 H6C2       -3.2730    0.4840    0.3790 h1        1 TF3      0.057700
     31 H9C1        0.0260    0.5410    6.0120 hc        1 TF3      0.147200
     32 H9C2        1.3960    1.4880    5.2800 hc        1 TF3      0.147200
     33 H10        -3.2240   -2.4280   -1.8030 ha        1 TF3      0.131500
     34 H11        -2.7110    1.8700   -1.7480 ha        1 TF3      0.131500
     35 H13        -3.7050   -2.3400   -4.2360 ha        1 TF3      0.148000
     36 H14        -3.1870    1.9560   -4.1900 ha        1 TF3      0.148000
     37 H1          1.3090   -2.0680    4.3110 hn        1 TF3      0.473800
     38 H161        2.7990   -3.1000    5.9280 hx        1 TF3      0.133700
     39 H162        4.1120   -1.9700    5.3530 hx        1 TF3      0.133700
     40 H17        -3.9630   -1.1970   -6.1990 hc        1 TF3      0.059700
     41 H181        2.6950   -4.1790    3.6060 hx        1 TF3      0.135200
     42 H182        4.0020   -3.0340    3.0130 hx        1 TF3      0.135200
     43 H191       -4.8740    1.7370   -5.7980 hc        1 TF3      0.042867
     44 H192       -5.2420    0.6650   -7.2130 hc        1 TF3      0.042867
     45 H193       -5.8940    0.2550   -5.5710 hc        1 TF3      0.042867
     46 H201       -2.8170    0.3930   -7.7110 hc        1 TF3      0.042867
     47 H202       -2.3700    1.4570   -6.3140 hc        1 TF3      0.042867
     48 H203       -1.6790   -0.2150   -6.4350 hc        1 TF3      0.042867
     49 H2N1        5.5020   -4.0280    4.6520 hn        1 TF3      0.485467
     50 H2N2        4.8680   -5.1800    3.6180 hn        1 TF3      0.485467
     51 H12         2.5020   -1.0610    3.7530 hn        1 TF3      0.473800
     52 H23         4.3120   -5.0700    5.1930 hn        1 TF3      0.485467
@<TRIPOS>BOND
     1    1    2 ar  
     2    1    3 ar  
     3    1    4 1   
     4    2    5 ar  
     5    2    6 1   
     6    3    7 ar  
     7    3   26 1   
     8    4    8 1   
     9    5    9 ar  
    10    5   27 1   
    11    7    9 ar  
    12    7   28 1   
    13    8   10 1   
    14    8   29 1   
    15    8   30 1   
    16    9   11 1   
    17   10   12 ar  
    18   10   13 ar  
    19   11   14 1   
    20   11   31 1   
    21   11   32 1   
    22   12   15 ar  
    23   12   33 1   
    24   13   16 ar  
    25   13   34 1   
    26   14   17 1   
    27   14   18 2   
    28   15   19 ar  
    29   15   35 1   
    30   16   19 ar  
    31   16   36 1   
    32   17   20 1   
    33   17   37 1   
    34   17   51 1   
    35   19   21 1   
    36   20   22 1   
    37   20   38 1   
    38   20   39 1   
    39   21   23 1   
    40   21   24 1   
    41   21   40 1   
    42   22   25 1   
    43   22   41 1   
    44   22   42 1   
    45   23   43 1   
    46   23   44 1   
    47   23   45 1   
    48   24   46 1   
    49   24   47 1   
    50   24   48 1   
    51   25   49 1   
    52   25   50 1   
    53   25   52 1   
@<TRIPOS>SUBSTRUCTURE
     1 TF3         1 TEMP              0 ****  ****    0 ROOT
