@<TRIPOS>MOLECULE
TF3
   50    51     1     0     0
SMALL
bcc


@<TRIPOS>ATOM
      1 C1         -0.4260   -0.2990   -1.2720 ca        1 TF3      0.144100
      2 C2         -1.1090    0.9090   -1.5440 ca        1 TF3     -0.012600
      3 C3         -1.0700   -1.5240   -1.4970 ca        1 TF3     -0.200000
      4 O1          0.8570   -0.1790   -0.7870 os        1 TF3     -0.311900
      5 C4         -2.4170    0.8660   -2.0310 ca        1 TF3     -0.086000
      6 CL1        -0.3840    2.4240   -1.2970 cl        1 TF3     -0.066400
      7 C5         -2.3740   -1.5470   -1.9830 ca        1 TF3     -0.098000
      8 C6          1.5660   -1.4110   -0.5750 c3        1 TF3      0.177700
      9 C7         -3.0590   -0.3580   -2.2500 ca        1 TF3     -0.123300
     10 C8          2.9410   -1.0660   -0.1080 ca        1 TF3     -0.102300
     11 C9         -4.4440   -0.3860   -2.7860 c3        1 TF3     -0.108100
     12 C10         3.6280   -1.9790    0.7000 ca        1 TF3     -0.109000
     13 C11         3.5630    0.1280   -0.4820 ca        1 TF3     -0.109000
     14 C12        -5.5190   -0.3450   -1.7090 c         1 TF3      0.652100
     15 C13         4.9270   -1.7020    1.1200 ca        1 TF3     -0.128000
     16 C14         4.8600    0.4050   -0.0550 ca        1 TF3     -0.128000
     17 N1         -5.3460   -1.1470   -0.5950 n         1 TF3     -0.555900
     18 O2         -6.5530    0.3310   -1.8780 o         1 TF3     -0.605100
     19 C15         5.5550   -0.5080    0.7470 ca        1 TF3     -0.064300
     20 C16        -6.2470   -1.0980    0.5220 c3        1 TF3      0.079000
     21 C17         6.9500   -0.2200    1.2070 c3        1 TF3     -0.025400
     22 C18        -5.8010   -0.1280    1.6430 c3        1 TF3      0.128800
     23 C19         7.8940   -0.0790    0.0280 c3        1 TF3     -0.088100
     24 C20         6.9910    1.0260    2.0720 c3        1 TF3     -0.088100
     25 N2         -6.6880   -0.1760    2.7810 n3        1 TF3     -0.913800
     26 H3         -0.5560   -2.4740   -1.2970 ha        1 TF3      0.144000
     27 H4         -2.9490    1.8080   -2.2460 ha        1 TF3      0.156000
     28 H5         -2.8670   -2.5150   -2.1630 ha        1 TF3      0.139000
     29 H6C1        1.6180   -1.9790   -1.5440 h1        1 TF3      0.049200
     30 H6C2        1.0210   -2.0200    0.1960 h1        1 TF3      0.049200
     31 H9C1       -4.6180    0.4960   -3.4610 hc        1 TF3      0.084200
     32 H9C2       -4.6090   -1.3170   -3.3940 hc        1 TF3      0.084200
     33 H10         3.1430   -2.9180    1.0060 ha        1 TF3      0.140000
     34 H11         3.0170    0.8530   -1.1060 ha        1 TF3      0.140000
     35 H13         5.4590   -2.4290    1.7520 ha        1 TF3      0.134500
     36 H14         5.3410    1.3490   -0.3500 ha        1 TF3      0.134500
     37 H1         -4.4330   -1.4970   -0.4160 hn        1 TF3      0.307500
     38 H161       -7.2650   -0.7880    0.1480 h1        1 TF3      0.069200
     39 H162       -6.3230   -2.1400    0.9460 h1        1 TF3      0.069200
     40 H17         7.3080   -1.0880    1.8350 hc        1 TF3      0.050700
     41 H181       -4.7750   -0.4240    2.0050 h1        1 TF3      0.030700
     42 H182       -5.7140    0.9080    1.2000 h1        1 TF3      0.030700
     43 H191        8.9340    0.1010    0.3910 hc        1 TF3      0.037367
     44 H192        7.8870   -1.0080   -0.5900 hc        1 TF3      0.037367
     45 H193        7.5910    0.7790   -0.6190 hc        1 TF3      0.037367
     46 H201        6.6600    1.9200    1.4910 hc        1 TF3      0.037367
     47 H202        6.3190    0.9090    2.9550 hc        1 TF3      0.037367
     48 H203        8.0320    1.2040    2.4340 hc        1 TF3      0.037367
     49 H2N1       -6.4140    0.5070    3.4590 hn        1 TF3      0.351800
     50 H2N2       -7.6340   -0.0040    2.5050 hn        1 TF3      0.351800
@<TRIPOS>BOND
     1    1    2 ar  
     2    1    3 ar  
     3    1    4 1   
     4    2    5 ar  
     5    2    6 1   
     6    3    7 ar  
     7    3   26 1   
     8    4    8 1   
     9    5    9 ar  
    10    5   27 1   
    11    7    9 ar  
    12    7   28 1   
    13    8   10 1   
    14    8   29 1   
    15    8   30 1   
    16    9   11 1   
    17   10   12 ar  
    18   10   13 ar  
    19   11   14 1   
    20   11   31 1   
    21   11   32 1   
    22   12   15 ar  
    23   12   33 1   
    24   13   16 ar  
    25   13   34 1   
    26   14   17 1   
    27   14   18 2   
    28   15   19 ar  
    29   15   35 1   
    30   16   19 ar  
    31   16   36 1   
    32   17   20 1   
    33   17   37 1   
    34   19   21 1   
    35   20   22 1   
    36   20   38 1   
    37   20   39 1   
    38   21   23 1   
    39   21   24 1   
    40   21   40 1   
    41   22   25 1   
    42   22   41 1   
    43   22   42 1   
    44   23   43 1   
    45   23   44 1   
    46   23   45 1   
    47   24   46 1   
    48   24   47 1   
    49   24   48 1   
    50   25   49 1   
    51   25   50 1   
@<TRIPOS>SUBSTRUCTURE
     1 TF3         1 TEMP              0 ****  ****    0 ROOT
