@<TRIPOS>MOLECULE
TF3
   50    46     1     0     0
SMALL
bcc


@<TRIPOS>ATOM
      1 C1          0.4480   -1.0840   -0.1150 c1        1 TF3      0.058000
      2 C2          1.8480   -1.1450   -0.1290 c1        1 TF3     -0.077000
      3 C3         -0.2390   -1.0960    1.0990 c1        1 TF3     -0.127000
      4 O1         -0.2590   -0.9790   -1.3160 os        1 TF3     -0.219000
      5 C4          2.5520   -1.2190    1.0790 c1        1 TF3     -0.128000
      6 CL1         2.7040   -1.2200   -1.6410 cl        1 TF3      0.005000
      7 C5          0.4620   -1.1700    2.2970 c1        1 TF3     -0.107000
      8 C6         -0.5810    0.3140   -1.6570 c3        1 TF3      0.021000
      9 C7          1.8600   -1.2320    2.2890 c1        1 TF3     -0.080000
     10 C8         -1.3140    0.3270   -3.0290 c2        1 TF3     -0.091000
     11 C9          2.9250   -0.9090    3.2840 c3        1 TF3     -0.149000
     12 C10        -1.6610    1.6650   -3.2050 c2        1 TF3     -0.123000
     13 C11        -1.6890   -0.6250   -3.9850 c1        1 TF3     -0.099000
     14 C12         2.3880   -1.1390    4.7140 c2        1 TF3      0.306000
     15 C13        -2.3830    2.0570   -4.3360 c1        1 TF3     -0.127000
     16 C14        -2.4070   -0.2360   -5.1090 c1        1 TF3     -0.130000
     17 N1          3.3410   -1.2110    5.8640 n         1 TF3     -0.377000
     18 O2          1.1920   -1.3200    4.8960 o         1 TF3     -0.371000
     19 C15        -2.7560    1.1060   -5.2870 c1        1 TF3     -0.060000
     20 C16         2.9920   -0.6230    7.1320 c3        1 TF3     -0.070000
     21 C17        -3.4390    1.4170   -6.6130 c3        1 TF3     -0.072000
     22 C18         3.0480   -1.7340    8.2630 c3        1 TF3     -0.103000
     23 C19        -4.9010    1.8980   -6.3460 c3        1 TF3     -0.206000
     24 C20        -2.6510    2.5310   -7.3520 c3        1 TF3     -0.206000
     25 N2          2.8180   -1.1330    9.5440 n3        1 TF3     -0.335000
     26 H3         -1.2210   -1.0540    1.1080 ha        1 TF3      0.156000
     27 H4          3.5580   -1.2630    1.0720 ha        1 TF3      0.148000
     28 H5         -0.0190   -1.1790    3.1380 ha        1 TF3      0.148000
     29 H6C1       -1.1690    0.6970   -0.9640 h1        1 TF3      0.086500
     30 H6C2        0.2410    0.8490   -1.7210 h1        1 TF3      0.086500
     31 H9C1        3.7090   -1.4930    3.1280 hc        1 TF3      0.125500
     32 H9C2        3.1830    0.0000    3.1850 hc        1 TF3      0.125500
     33 H10        -1.3990    2.3290   -2.5380 ha        1 TF3      0.129000
     34 H11        -1.4510   -1.5450   -3.8630 ha        1 TF3      0.150000
     35 H13        -2.6240    2.9850   -4.4590 ha        1 TF3      0.133000
     36 H14        -2.6660   -0.8970   -5.7700 ha        1 TF3      0.133000
     37 H1          4.1650   -1.6000    5.7510 hn        1 TF3      0.228000
     38 H161        2.1090   -0.2600    7.0840 h1        1 TF3      0.096500
     39 H162        3.6290    0.0910    7.3450 h1        1 TF3      0.096500
     40 H17        -3.4580    0.6330   -7.1510 hc        1 TF3      0.091000
     41 H181        2.3460   -2.4210    8.0890 h1        1 TF3      0.094500
     42 H182        3.9040   -2.1480    8.2580 h1        1 TF3      0.094500
     43 H191       -5.2540    2.3250   -7.1460 hc        1 TF3      0.075667
     44 H192       -4.9050    2.5600   -5.5800 hc        1 TF3      0.075667
     45 H193       -5.4570    1.1320   -6.1160 hc        1 TF3      0.075667
     46 H201       -3.0670    2.6940   -8.2520 hc        1 TF3      0.075667
     47 H202       -2.6800    3.3490   -6.8290 hc        1 TF3      0.075667
     48 H203       -1.6910    2.2430   -7.4720 hc        1 TF3      0.075667
     49 H2N1        3.6350   -0.8860    9.9220 hn        1 TF3      0.145000
     50 H2N2        2.2860   -0.3840    9.4420 hn        1 TF3      0.145000
@<TRIPOS>BOND
     1    1    3 1   
     2    1    4 1   
     3    2    5 1   
     4    2    6 1   
     5    3   26 1   
     6    4    8 1   
     7    5   27 1   
     8    7    9 1   
     9    7   28 1   
    10    8   10 1   
    11    8   29 1   
    12    8   30 1   
    13    9   11 1   
    14   10   12 1   
    15   10   13 1   
    16   11   14 1   
    17   11   31 1   
    18   11   32 1   
    19   12   15 1   
    20   12   33 1   
    21   13   34 1   
    22   14   17 1   
    23   14   18 1   
    24   15   35 1   
    25   16   19 1   
    26   16   36 1   
    27   17   20 1   
    28   17   37 1   
    29   19   21 1   
    30   20   22 1   
    31   20   38 1   
    32   20   39 1   
    33   21   23 1   
    34   21   24 1   
    35   21   40 1   
    36   22   25 1   
    37   22   41 1   
    38   22   42 1   
    39   23   43 1   
    40   23   44 1   
    41   23   45 1   
    42   24   46 1   
    43   24   47 1   
    44   24   48 1   
    45   25   49 1   
    46   25   50 1   
@<TRIPOS>SUBSTRUCTURE
     1 TF3         1 TEMP              0 ****  ****    0 ROOT
