@<TRIPOS>MOLECULE
TF3
   52    53     1     0     0
SMALL
bcc


@<TRIPOS>ATOM
      1 C1         -0.8480    0.0250    1.3090 ca        1 TF3      0.210100
      2 C2          0.4950    0.4780    1.4680 ca        1 TF3     -0.028600
      3 C3         -1.6100   -0.2790    2.4520 ca        1 TF3     -0.211000
      4 O1         -1.2950   -0.1030    0.0360 os        1 TF3     -0.289900
      5 C4          1.0180    0.6230    2.7470 ca        1 TF3     -0.134000
      6 CL1         1.4620    0.8750    0.1420 cl        1 TF3     -0.011400
      7 C5         -1.0600   -0.1480    3.7210 ca        1 TF3     -0.049000
      8 C6         -2.7160   -0.3570   -0.1500 c3        1 TF3      0.186700
      9 C7          0.2610    0.2850    3.8820 ca        1 TF3     -0.260300
     10 C8         -2.9530   -0.3100   -1.6170 ca        1 TF3     -0.141300
     11 C9          0.8220    0.5050    5.2320 c3        1 TF3     -0.074100
     12 C10        -3.2140   -1.4880   -2.3250 ca        1 TF3     -0.094000
     13 C11        -2.9500    0.9160   -2.2910 ca        1 TF3     -0.094000
     14 C12         1.8090   -0.5360    5.6770 c         1 TF3      0.570100
     15 C13        -3.4840   -1.4370   -3.6900 ca        1 TF3     -0.128000
     16 C14        -3.2150    0.9630   -3.6560 ca        1 TF3     -0.128000
     17 N1          2.1960   -1.5660    4.5710 n4        1 TF3     -0.697800
     18 O2          2.3610   -0.7060    6.7440 o         1 TF3     -0.396100
     19 C15        -3.4880   -0.2120   -4.3700 ca        1 TF3     -0.029300
     20 C16         3.2360   -2.5200    5.0090 c3        1 TF3      0.073800
     21 C17        -3.7850   -0.1680   -5.8360 c3        1 TF3     -0.033400
     22 C18         3.6420   -3.5210    3.9080 c3        1 TF3      0.077800
     23 C19        -5.0370    0.6440   -6.1110 c3        1 TF3     -0.090600
     24 C20        -2.6070    0.3920   -6.6120 c3        1 TF3     -0.090600
     25 N2          4.7030   -4.4580    4.3640 n4        1 TF3     -0.833600
     26 H3         -2.6600   -0.6000    2.3490 ha        1 TF3      0.177000
     27 H4          2.0220    1.0660    2.8690 ha        1 TF3      0.142000
     28 H5         -1.6850   -0.3660    4.6040 ha        1 TF3      0.154000
     29 H6C1       -3.2930    0.4430    0.3850 h1        1 TF3      0.057700
     30 H6C2       -2.9500   -1.3670    0.2800 h1        1 TF3      0.057700
     31 H9C1        1.3620    1.4990    5.2890 hc        1 TF3      0.147200
     32 H9C2        0.0070    0.5270    6.0180 hc        1 TF3      0.147200
     33 H10        -3.2160   -2.4580   -1.8050 ha        1 TF3      0.131500
     34 H11        -2.7370    1.8440   -1.7390 ha        1 TF3      0.131500
     35 H13        -3.7000   -2.3680   -4.2370 ha        1 TF3      0.148000
     36 H14        -3.2160    1.9320   -4.1810 ha        1 TF3      0.148000
     37 H1          1.3310   -2.0550    4.3050 hn        1 TF3      0.473800
     38 H161        4.1330   -1.9160    5.3450 hx        1 TF3      0.133700
     39 H162        2.8390   -3.0690    5.9160 hx        1 TF3      0.133700
     40 H17        -3.9690   -1.2220   -6.1970 hc        1 TF3      0.059700
     41 H181        2.7500   -4.1410    3.5900 hx        1 TF3      0.135200
     42 H182        4.0370   -2.9720    3.0000 hx        1 TF3      0.135200
     43 H191       -5.9100    0.2140   -5.5640 hc        1 TF3      0.042867
     44 H192       -5.2630    0.6330   -7.2050 hc        1 TF3      0.042867
     45 H193       -4.9010    1.7040   -5.7880 hc        1 TF3      0.042867
     46 H201       -2.3960    1.4440   -6.3060 hc        1 TF3      0.042867
     47 H202       -1.6930   -0.2220   -6.4330 hc        1 TF3      0.042867
     48 H203       -2.8360    0.3800   -7.7060 hc        1 TF3      0.042867
     49 H2N1        4.3840   -5.0110    5.1710 hn        1 TF3      0.485467
     50 H2N2        5.5550   -3.9470    4.6330 hn        1 TF3      0.485467
     51 H12         2.5070   -1.0260    3.7500 hn        1 TF3      0.473800
     52 H23         4.9390   -5.1060    3.5950 hn        1 TF3      0.485467
@<TRIPOS>BOND
     1    1    2 ar  
     2    1    3 ar  
     3    1    4 1   
     4    2    5 ar  
     5    2    6 1   
     6    3    7 ar  
     7    3   26 1   
     8    4    8 1   
     9    5    9 ar  
    10    5   27 1   
    11    7    9 ar  
    12    7   28 1   
    13    8   10 1   
    14    8   29 1   
    15    8   30 1   
    16    9   11 1   
    17   10   12 ar  
    18   10   13 ar  
    19   11   14 1   
    20   11   31 1   
    21   11   32 1   
    22   12   15 ar  
    23   12   33 1   
    24   13   16 ar  
    25   13   34 1   
    26   14   17 1   
    27   14   18 2   
    28   15   19 ar  
    29   15   35 1   
    30   16   19 ar  
    31   16   36 1   
    32   17   20 1   
    33   17   37 1   
    34   17   51 1   
    35   19   21 1   
    36   20   22 1   
    37   20   38 1   
    38   20   39 1   
    39   21   23 1   
    40   21   24 1   
    41   21   40 1   
    42   22   25 1   
    43   22   41 1   
    44   22   42 1   
    45   23   43 1   
    46   23   44 1   
    47   23   45 1   
    48   24   46 1   
    49   24   47 1   
    50   24   48 1   
    51   25   49 1   
    52   25   50 1   
    53   25   52 1   
@<TRIPOS>SUBSTRUCTURE
     1 TF3         1 TEMP              0 ****  ****    0 ROOT
