@<TRIPOS>MOLECULE
TF3
   52    53     1     0     0
SMALL
bcc


@<TRIPOS>ATOM
      1 C1         -0.9170   -0.0520    1.3430 ca        1 TF3      0.210100
      2 C2          0.3910    0.4730    1.5650 ca        1 TF3     -0.028600
      3 C3         -1.6850   -0.4690    2.4450 ca        1 TF3     -0.211000
      4 O1         -1.3240   -0.1320    0.0520 os        1 TF3     -0.289900
      5 C4          0.8740    0.5750    2.8640 ca        1 TF3     -0.134000
      6 CL1         1.3630    1.0060    0.2900 cl        1 TF3     -0.011400
      7 C5         -1.1750   -0.3780    3.7340 ca        1 TF3     -0.049000
      8 C6         -2.7200   -0.4620   -0.1870 c3        1 TF3      0.186700
      9 C7          0.1120    0.1250    3.9550 ca        1 TF3     -0.260300
     10 C8         -2.9250   -0.3420   -1.6550 ca        1 TF3     -0.141300
     11 C9          0.6250    0.3000    5.3320 c3        1 TF3     -0.074100
     12 C10        -3.0790   -1.4890   -2.4390 ca        1 TF3     -0.094000
     13 C11        -2.9980    0.9210   -2.2530 ca        1 TF3     -0.094000
     14 C12         1.6650   -0.7020    5.7440 c         1 TF3      0.570100
     15 C13        -3.3190   -1.3730   -3.8060 ca        1 TF3     -0.128000
     16 C14        -3.2340    1.0330   -3.6210 ca        1 TF3     -0.128000
     17 N1          2.1420   -1.6400    4.5930 n4        1 TF3     -0.697800
     18 O2          2.2000   -0.9000    6.8140 o         1 TF3     -0.396100
     19 C15        -3.4000   -0.1120   -4.4110 ca        1 TF3     -0.029300
     20 C16         3.2290   -2.5530    5.0040 c3        1 TF3      0.073800
     21 C17        -3.6630    0.0010   -5.8800 c3        1 TF3     -0.033400
     22 C18         3.7240   -3.4610    3.8600 c3        1 TF3      0.077800
     23 C19        -4.9670    0.7320   -6.1420 c3        1 TF3     -0.090600
     24 C20        -2.5130    0.6940   -6.5870 c3        1 TF3     -0.090600
     25 N2          4.8300   -4.3570    4.2910 n4        1 TF3     -0.833600
     26 H3         -2.7090   -0.8470    2.2950 ha        1 TF3      0.177000
     27 H4          1.8430    1.0710    3.0390 ha        1 TF3      0.142000
     28 H5         -1.8060   -0.6860    4.5850 ha        1 TF3      0.154000
     29 H6C1       -2.9000   -1.5080    0.1770 h1        1 TF3      0.057700
     30 H6C2       -3.3600    0.2680    0.3780 h1        1 TF3      0.057700
     31 H9C1       -0.2080    0.2260    6.0940 hc        1 TF3      0.147200
     32 H9C2        1.1000    1.3200    5.4600 hc        1 TF3      0.147200
     33 H10        -3.0200   -2.4870   -1.9790 ha        1 TF3      0.131500
     34 H11        -2.8700    1.8260   -1.6410 ha        1 TF3      0.131500
     35 H13        -3.4500   -2.2820   -4.4150 ha        1 TF3      0.148000
     36 H14        -3.2950    2.0300   -4.0860 ha        1 TF3      0.148000
     37 H1          1.3170   -2.1650    4.2750 hn        1 TF3      0.473800
     38 H161        2.8450   -3.1770    5.8670 hx        1 TF3      0.133700
     39 H162        4.0790   -1.9150    5.3980 hx        1 TF3      0.133700
     40 H17        -3.7570   -1.0400   -6.3090 hc        1 TF3      0.059700
     41 H181        2.8800   -4.1140    3.4820 hx        1 TF3      0.135200
     42 H182        4.1060   -2.8360    2.9960 hx        1 TF3      0.135200
     43 H191       -4.9200    1.7770   -5.7520 hc        1 TF3      0.042867
     44 H192       -5.1640    0.7720   -7.2400 hc        1 TF3      0.042867
     45 H193       -5.8170    0.2050   -5.6470 hc        1 TF3      0.042867
     46 H201       -2.7130    0.7330   -7.6850 hc        1 TF3      0.042867
     47 H202       -2.3900    1.7380   -6.2120 hc        1 TF3      0.042867
     48 H203       -1.5590    0.1400   -6.4180 hc        1 TF3      0.042867
     49 H2N1        5.6420   -3.8110    4.6130 hn        1 TF3      0.485467
     50 H2N2        5.1250   -4.9430    3.4940 hn        1 TF3      0.485467
     51 H12         2.4380   -1.0350    3.8130 hn        1 TF3      0.473800
     52 H23         4.5270   -4.9740    5.0560 hn        1 TF3      0.485467
@<TRIPOS>BOND
     1    1    2 ar  
     2    1    3 ar  
     3    1    4 1   
     4    2    5 ar  
     5    2    6 1   
     6    3    7 ar  
     7    3   26 1   
     8    4    8 1   
     9    5    9 ar  
    10    5   27 1   
    11    7    9 ar  
    12    7   28 1   
    13    8   10 1   
    14    8   29 1   
    15    8   30 1   
    16    9   11 1   
    17   10   12 ar  
    18   10   13 ar  
    19   11   14 1   
    20   11   31 1   
    21   11   32 1   
    22   12   15 ar  
    23   12   33 1   
    24   13   16 ar  
    25   13   34 1   
    26   14   17 1   
    27   14   18 2   
    28   15   19 ar  
    29   15   35 1   
    30   16   19 ar  
    31   16   36 1   
    32   17   20 1   
    33   17   37 1   
    34   17   51 1   
    35   19   21 1   
    36   20   22 1   
    37   20   38 1   
    38   20   39 1   
    39   21   23 1   
    40   21   24 1   
    41   21   40 1   
    42   22   25 1   
    43   22   41 1   
    44   22   42 1   
    45   23   43 1   
    46   23   44 1   
    47   23   45 1   
    48   24   46 1   
    49   24   47 1   
    50   24   48 1   
    51   25   49 1   
    52   25   50 1   
    53   25   52 1   
@<TRIPOS>SUBSTRUCTURE
     1 TF3         1 TEMP              0 ****  ****    0 ROOT
