@<TRIPOS>MOLECULE
TF4
    7     6     1     0     0
SMALL
bcc


@<TRIPOS>ATOM
      1 C1          0.0210   -0.0740   -0.0240 c3        1 TF4      0.072100
      2 C           1.5810   -0.0020   -0.0050 c         1 TF4      0.929600
      3 O           2.2270   -0.7360    0.7760 o         1 TF4     -0.797800
      4 CL1        -0.5710   -1.6670   -0.5080 cl        1 TF4     -0.236400
      5 CL2        -0.6910    0.3910    1.5250 cl        1 TF4     -0.236400
      6 O2          2.0580    0.8320   -0.8210 o         1 TF4     -0.797800
      7 H1         -0.3930    0.6410   -0.7720 h2        1 TF4      0.067700
@<TRIPOS>BOND
     1    1    2 1   
     2    1    4 1   
     3    1    5 1   
     4    1    7 1   
     5    2    3 1   
     6    2    6 1   
@<TRIPOS>SUBSTRUCTURE
     1 TF4         1 TEMP              0 ****  ****    0 ROOT
