@<TRIPOS>MOLECULE
TF4
    7     6     1     0     0
SMALL
bcc


@<TRIPOS>ATOM
      1 C1         -0.1540   -0.1520   -0.4780 c3        1 TF4      0.072100
      2 C           1.1940    0.4990   -0.0380 c         1 TF4      0.929600
      3 O           1.2510    1.1460    1.0330 o         1 TF4     -0.797800
      4 CL1        -0.7170   -1.3710    0.6710 cl        1 TF4     -0.236400
      5 CL2        -1.4210    1.0500   -0.7540 cl        1 TF4     -0.236400
      6 O2          2.1400    0.2990   -0.8460 o         1 TF4     -0.797800
      7 H1         -0.0310   -0.6870   -1.4490 h2        1 TF4      0.067700
@<TRIPOS>BOND
     1    1    2 1   
     2    1    4 1   
     3    1    5 1   
     4    1    7 1   
     5    2    3 1   
     6    2    6 1   
@<TRIPOS>SUBSTRUCTURE
     1 TF4         1 TEMP              0 ****  ****    0 ROOT
