@<TRIPOS>MOLECULE
TF5
   30    29     1     0     0
SMALL
bcc


@<TRIPOS>ATOM
      1 C10        -0.6640    1.2000   -0.1190 c1        1 TF5     -0.071000
      2 C17         0.7040   -4.1270    5.8190 c2        1 TF5     -0.253000
      3 C16        -0.1950   -3.2460    5.3740 c2        1 TF5     -0.056000
      4 C8          1.4170   -0.0960    0.0760 c2        1 TF5      0.126000
      5 C7          1.0970   -0.4140    1.4730 c2        1 TF5      0.047000
      6 C5         -1.1830    0.5060    6.8390 c1        1 TF5     -0.150000
      7 C4         -1.8500   -2.2750    3.2960 c2        1 TF5     -0.269000
      8 C3         -0.7570   -1.6410    3.7400 c2        1 TF5      0.062000
      9 C2         -0.4300   -0.2370    3.4340 c2        1 TF5     -0.051000
     10 C          -0.8720    0.6030    5.6860 c1        1 TF5     -0.158000
     11 F13         2.5620   -0.5830   -0.4250 f         1 TF5     -0.054000
     12 F           2.0010   -1.1690    2.1390 f         1 TF5     -0.075000
     13 C9          0.5440    0.6910   -0.6760 c2        1 TF5     -0.023000
     14 F14         0.8500    0.9800   -1.9620 f         1 TF5     -0.072000
     15 C11        -0.9950    0.8820    1.2540 c3        1 TF5     -0.188000
     16 C6         -0.0550    0.0490    2.0470 c2        1 TF5     -0.070000
     17 C1         -0.5000    0.7570    4.3440 c2        1 TF5      0.014000
     18 O20         2.8880   -2.7890    4.0000 oh        1 TF5     -0.398000
     19 H10        -2.0100    0.3730    1.2280 hc        1 TF5      0.179500
     20 H171        2.1790   -3.0800    3.4180 ho        1 TF5      0.198500
     21 H172        0.4270   -4.8860    6.5600 ha        1 TF5      0.143500
     22 H161        1.7520   -4.1250    5.4850 ha        1 TF5      0.143500
     23 H162       -1.2520   -3.1930    5.6700 h4        1 TF5      0.140000
     24 H5         -2.0610   -3.3250    3.5320 ha        1 TF5      0.134000
     25 H4         -1.4560    0.4220    7.8610 ha        1 TF5      0.231000
     26 H          -2.5930   -1.7640    2.6720 ha        1 TF5      0.134000
     27 H11        -1.1690    1.8670    1.7900 hc        1 TF5      0.179500
     28 H1         -0.2510    1.7950    4.0460 ha        1 TF5      0.147000
     29 HO20        2.5470   -1.9660    4.3630 ho        1 TF5      0.198500
     30 O           0.2450   -2.2530    4.4930 os        1 TF5     -0.187000
@<TRIPOS>BOND
     1    1   13 1   
     2    1   15 1   
     3    2    3 1   
     4    2   21 1   
     5    2   22 1   
     6    3   23 1   
     7    3   30 1   
     8    4    5 1   
     9    4   11 1   
    10    4   13 1   
    11    5   12 1   
    12    5   16 1   
    13    6   10 1   
    14    6   25 1   
    15    7    8 1   
    16    7   24 1   
    17    7   26 1   
    18    8    9 1   
    19    8   30 1   
    20    9   16 1   
    21    9   17 1   
    22   10   17 1   
    23   13   14 1   
    24   15   16 1   
    25   15   19 1   
    26   15   27 1   
    27   17   28 1   
    28   18   20 1   
    29   18   29 1   
@<TRIPOS>SUBSTRUCTURE
     1 TF5         1 TEMP              0 ****  ****    0 ROOT
