@<TRIPOS>MOLECULE
TF5
   30    31     1     0     0
SMALL
bcc


@<TRIPOS>ATOM
      1 C10         5.1730   -4.5370    3.1270 ca        1 TF5     -0.159000
      2 C17         2.1320    0.3410    6.1600 c3        1 TF5      0.130400
      3 C16         1.5020    0.2370    4.7730 c3        1 TF5      0.084400
      4 C8          6.0580   -2.4810    4.0980 ca        1 TF5      0.051900
      5 C7          5.0040   -1.7510    3.4820 ca        1 TF5      0.137900
      6 C5          0.8370   -0.4330    0.6890 ca        1 TF5     -0.082000
      7 C4          0.9940   -0.2440    2.0590 ca        1 TF5     -0.204000
      8 C3          2.0490   -0.8780    2.7310 ca        1 TF5      0.156100
      9 C2          2.9500   -1.7140    2.0310 cp        1 TF5     -0.080000
     10 C           1.7180   -1.2530   -0.0150 ca        1 TF5     -0.165000
     11 F13         6.9760   -1.8360    4.8490 f         1 TF5     -0.112900
     12 F           4.9590   -0.4140    3.6700 f         1 TF5     -0.117900
     13 C9          6.1350   -3.8830    3.9150 ca        1 TF5      0.117900
     14 F14         7.1330   -4.5830    4.4970 f         1 TF5     -0.119900
     15 C11         4.1520   -3.8090    2.5330 ca        1 TF5     -0.091000
     16 C6          4.0430   -2.4210    2.6960 cp        1 TF5     -0.038000
     17 C1          2.7600   -1.8900    0.6540 ca        1 TF5     -0.082000
     18 O20         3.3650    1.0250    6.1180 oh        1 TF5     -0.597800
     19 H10         5.2410   -5.6270    2.9920 ha        1 TF5      0.159000
     20 H171        2.2660   -0.6830    6.6010 h1        1 TF5      0.058200
     21 H172        1.4740    0.9630    6.8240 h1        1 TF5      0.058200
     22 H161        1.5730    1.2160    4.2330 h1        1 TF5      0.053200
     23 H162        0.4350   -0.0990    4.8420 h1        1 TF5      0.053200
     24 H5          0.0110    0.0680    0.1620 ha        1 TF5      0.137000
     25 H4          0.2880    0.3980    2.6030 ha        1 TF5      0.142000
     26 H           1.5930   -1.3980   -1.0980 ha        1 TF5      0.138000
     27 H11         3.4000   -4.3320    1.9200 ha        1 TF5      0.151000
     28 H1          3.4550   -2.5380    0.0980 ha        1 TF5      0.139000
     29 HO20        3.9450    0.5310    5.5220 ho        1 TF5      0.418000
     30 O           2.2680   -0.7630    4.0880 os        1 TF5     -0.335900
@<TRIPOS>BOND
     1    1   13 ar  
     2    1   15 ar  
     3    1   19 1   
     4    2    3 1   
     5    2   18 1   
     6    2   20 1   
     7    2   21 1   
     8    3   22 1   
     9    3   23 1   
    10    3   30 1   
    11    4    5 ar  
    12    4   11 1   
    13    4   13 ar  
    14    5   12 1   
    15    5   16 ar  
    16    6    7 ar  
    17    6   10 ar  
    18    6   24 1   
    19    7    8 ar  
    20    7   25 1   
    21    8    9 ar  
    22    8   30 1   
    23    9   16 1   
    24    9   17 ar  
    25   10   17 ar  
    26   10   26 1   
    27   13   14 1   
    28   15   16 ar  
    29   15   27 1   
    30   17   28 1   
    31   18   29 1   
@<TRIPOS>SUBSTRUCTURE
     1 TF5         1 TEMP              0 ****  ****    0 ROOT
