@<TRIPOS>MOLECULE
TF5
   30    29     1     0     0
SMALL
bcc


@<TRIPOS>ATOM
      1 C10        -0.6340    1.2620   -0.0830 c1        1 TF5     -0.071000
      2 C17         0.6620   -4.1750    5.7700 c2        1 TF5     -0.253000
      3 C16        -0.2250   -3.2750    5.3400 c2        1 TF5     -0.056000
      4 C8          1.4270   -0.0680    0.0890 c2        1 TF5      0.126000
      5 C7          1.1040   -0.4030    1.4810 c2        1 TF5      0.047000
      6 C5         -1.1570    0.4670    6.8640 c1        1 TF5     -0.150000
      7 C4         -1.8670   -2.2480    3.2790 c2        1 TF5     -0.269000
      8 C3         -0.7650   -1.6370    3.7310 c2        1 TF5      0.062000
      9 C2         -0.4180   -0.2340    3.4460 c2        1 TF5     -0.051000
     10 C          -0.8460    0.5780    5.7120 c1        1 TF5     -0.158000
     11 F13         2.5630   -0.5640   -0.4210 f         1 TF5     -0.054000
     12 F           1.9970   -1.1820    2.1330 f         1 TF5     -0.075000
     13 C9          0.5650    0.7440   -0.6500 c2        1 TF5     -0.023000
     14 F14         0.8740    1.0490   -1.9320 f         1 TF5     -0.072000
     15 C11        -0.9690    0.9280    1.2850 c3        1 TF5     -0.188000
     16 C6         -0.0410    0.0690    2.0640 c2        1 TF5     -0.070000
     17 C1         -0.4730    0.7470    4.3720 c2        1 TF5      0.014000
     18 O20         2.8630   -2.8410    3.9690 oh        1 TF5     -0.398000
     19 H10        -1.9910    0.4350    1.2530 hc        1 TF5      0.179500
     20 H171        2.1490   -3.1140    3.3850 ho        1 TF5      0.198500
     21 H172        0.3740   -4.9410    6.5000 ha        1 TF5      0.143000
     22 H161        1.7100   -4.1830    5.4360 ha        1 TF5      0.143000
     23 H162       -1.2810   -3.2110    5.6380 h4        1 TF5      0.140000
     24 H5         -2.0940   -3.2990    3.4990 ha        1 TF5      0.134000
     25 H4         -1.4310    0.3710    7.8850 ha        1 TF5      0.231000
     26 H          -2.6030   -1.7180    2.6630 ha        1 TF5      0.134000
     27 H11        -1.1280    1.9070    1.8370 hc        1 TF5      0.179500
     28 H1         -0.2090    1.7860    4.0900 ha        1 TF5      0.147000
     29 HO20        2.5350   -2.0190    4.3450 ho        1 TF5      0.198500
     30 O           0.2290   -2.2750    4.4740 os        1 TF5     -0.187000
@<TRIPOS>BOND
     1    1   13 1   
     2    1   15 1   
     3    2    3 1   
     4    2   21 1   
     5    2   22 1   
     6    3   23 1   
     7    3   30 1   
     8    4    5 1   
     9    4   11 1   
    10    4   13 1   
    11    5   12 1   
    12    5   16 1   
    13    6   10 1   
    14    6   25 1   
    15    7    8 1   
    16    7   24 1   
    17    7   26 1   
    18    8    9 1   
    19    8   30 1   
    20    9   16 1   
    21    9   17 1   
    22   10   17 1   
    23   13   14 1   
    24   15   16 1   
    25   15   19 1   
    26   15   27 1   
    27   17   28 1   
    28   18   20 1   
    29   18   29 1   
@<TRIPOS>SUBSTRUCTURE
     1 TF5         1 TEMP              0 ****  ****    0 ROOT
