@<TRIPOS>MOLECULE
TF6
   45    45     1     0     0
SMALL
bcc


@<TRIPOS>ATOM
      1 N3          0.1670   -0.3010   -0.1930 n3        1 TF6     -0.299000
      2 C4          0.5310   -1.3750    0.7130 c3        1 TF6     -0.089000
      3 C5          0.3450   -1.0670    2.1990 c3        1 TF6     -0.189500
      4 C6          1.0440    0.2340    2.5720 c3        1 TF6     -0.104000
      5 C7          0.7670    0.5690    4.0320 c3        1 TF6     -0.074000
      6 C8         -0.0920   -0.9130   -2.9240 c1        1 TF6      0.435000
      7 C13         0.8420    3.0080    4.7200 c3        1 TF6      0.084000
      8 C15         2.3140    5.1060    5.3170 c1        1 TF6     -0.012000
      9 C17         2.8740    1.6170    4.7930 c1        1 TF6      0.201000
     10 C20         3.5940    8.4970    2.7960 c3        1 TF6     -0.129000
     11 C21         2.8170    9.0300    1.6790 c1        1 TF6     -0.210000
     12 C24         1.4900    8.7040    1.5660 c2        1 TF6     -0.397000
     13 O9          1.0640   -1.0360   -3.1730 o         1 TF6     -0.219000
     14 C2          0.7770    0.9640    0.1850 c3        1 TF6     -0.089000
     15 C1          0.5970    1.3580    1.6500 c3        1 TF6     -0.189500
     16 C12         1.5840    1.7140    4.5240 c2        1 TF6     -0.429000
     17 C14         1.6640    4.1210    5.0480 c1        1 TF6     -0.401000
     18 C16         3.0270    6.2080    5.6650 c2        1 TF6     -0.436000
     19 O18         3.5730    7.0710    4.7330 os        1 TF6     -0.025000
     20 C19         2.8330    7.6100    3.7640 c2        1 TF6      0.112000
     21 N24         1.5070    7.3480    3.5380 n3        1 TF6     -0.200000
     22 C23         0.8000    7.8660    2.4870 c1        1 TF6     -0.043000
     23 F28        -0.0090    8.3120   -0.3230 f         1 TF6     -0.195667
     24 F26        -0.3280   10.1340    0.7860 f         1 TF6     -0.195667
     25 F27         1.3540    9.9560   -0.5400 f         1 TF6     -0.195667
     26 H4         -0.8340   -0.1980   -0.2040 hn        1 TF6      0.146000
     27 H4A         1.6160   -1.6160    0.5280 h1        1 TF6      0.090250
     28 H5          0.7670   -1.9110    2.8020 hc        1 TF6      0.088500
     29 H5A        -0.0760   -2.2840    0.4470 h1        1 TF6      0.090250
     30 H6         -0.7460   -0.9900    2.4400 hc        1 TF6      0.088500
     31 H7          0.9810   -0.3400    4.6580 hc        1 TF6      0.079500
     32 H7A         2.1540    0.0910    2.4410 hc        1 TF6      0.095000
     33 O3         -1.2610   -0.8090   -2.7230 o         1 TF6     -0.219000
     34 H13        -0.3240    0.8080    4.1580 hc        1 TF6      0.079500
     35 H15         0.2780    3.2260    3.7660 hc        1 TF6      0.084000
     36 H17         3.3280    6.4890    6.6730 h4        1 TF6      0.163000
     37 H20         4.4560    7.9010    2.3860 hc        1 TF6      0.138500
     38 H21         4.0220    9.3540    3.3870 hc        1 TF6      0.138500
     39 H2          1.2020    2.2780    1.8610 hc        1 TF6      0.088500
     40 H2A         1.8790    0.8850   -0.0380 h1        1 TF6      0.090250
     41 H1          0.3490    1.7720   -0.4700 h1        1 TF6      0.090250
     42 H1A        -0.4770    1.6080    1.8510 hc        1 TF6      0.088500
     43 H14         0.0790    2.8390    5.5350 hc        1 TF6      0.084000
     44 H23         1.0210    6.7530    4.1830 hn        1 TF6      0.269000
     45 C25         0.6700    9.2520    0.4240 c3        1 TF6      0.517000
@<TRIPOS>BOND
     1    1    2 1   
     2    1   14 1   
     3    1   26 1   
     4    2    3 1   
     5    2   27 1   
     6    2   29 1   
     7    3    4 1   
     8    3   28 1   
     9    3   30 1   
    10    4    5 1   
    11    4   15 1   
    12    4   32 1   
    13    5   16 1   
    14    5   31 1   
    15    5   34 1   
    16    6   13 1   
    17    6   33 1   
    18    7   16 1   
    19    7   17 1   
    20    7   35 1   
    21    7   43 1   
    22    8   17 1   
    23    8   18 1   
    24    9   16 1   
    25   10   11 1   
    26   10   20 1   
    27   10   37 1   
    28   10   38 1   
    29   11   12 1   
    30   12   22 1   
    31   12   45 1   
    32   14   15 1   
    33   14   40 1   
    34   14   41 1   
    35   15   39 1   
    36   15   42 1   
    37   18   19 1   
    38   18   36 1   
    39   19   20 1   
    40   20   21 1   
    41   21   22 1   
    42   21   44 1   
    43   23   45 1   
    44   24   45 1   
    45   25   45 1   
@<TRIPOS>SUBSTRUCTURE
     1 TF6         1 TEMP              0 ****  ****    0 ROOT
