@<TRIPOS>MOLECULE
TF6
   45    42     1     0     0
SMALL
bcc


@<TRIPOS>ATOM
      1 N3          0.7380   -4.7710   -1.5290 n         1 TF6     -0.372000
      2 C4         -0.7240   -4.6480   -1.6990 c3        1 TF6     -0.015500
      3 C5         -1.1260   -3.3190   -2.3060 c3        1 TF6     -0.162000
      4 C6         -0.5340   -2.1560   -1.5750 c3        1 TF6     -0.097000
      5 C7         -0.8360   -0.8450   -2.3710 c3        1 TF6     -0.129000
      6 C8          1.3500   -6.0720   -1.4520 c2        1 TF6      0.409000
      7 C13        -2.5850    0.1670   -0.7890 c1        1 TF6     -0.123500
      8 C15        -2.2990    2.3990    0.1270 c1        1 TF6     -0.134000
      9 C17        -0.5460    1.4210   -1.2350 c1        1 TF6     -0.122000
     10 C20         1.5520    3.4850    1.2570 c1        1 TF6     -0.208000
     11 C21         2.1030    3.7630    2.4810 c1        1 TF6     -0.020000
     12 C24         1.3730    4.4110    3.4190 c1        1 TF6     -0.271000
     13 O9          2.5760   -6.1730   -1.2470 o         1 TF6     -0.569500
     14 C2          1.3330   -3.6210   -0.8050 c3        1 TF6     -0.015500
     15 C1          0.9350   -2.2860   -1.4090 c3        1 TF6     -0.162000
     16 C12        -1.3140    0.2580   -1.3950 c1        1 TF6     -0.036000
     17 C14        -3.0730    1.2380   -0.0290 c1        1 TF6     -0.123500
     18 C16        -1.0390    2.4890   -0.4750 c1        1 TF6      0.039000
     19 O18        -0.2730    3.7250   -0.3750 os        1 TF6     -0.149000
     20 C19         0.2520    3.8670    0.9810 c2        1 TF6      0.166000
     21 N24        -0.4750    4.5130    1.9190 n2        1 TF6     -0.179000
     22 C23         0.0710    4.7920    3.1390 c1        1 TF6      0.023000
     23 C25         1.9740    4.6690    4.7690 c3        1 TF6      0.481000
     24 F28         2.5990    5.8260    4.7570 f         1 TF6     -0.168667
     25 F26         1.0170    4.6960    5.6780 f         1 TF6     -0.168667
     26 F27         2.8430    3.6920    5.0680 f         1 TF6     -0.168667
     27 H4         -1.0520   -5.4070   -2.3130 h1        1 TF6      0.066500
     28 H4A        -1.1490   -4.7400   -0.8300 h1        1 TF6      0.066500
     29 H5         -2.1100   -3.2420   -2.2890 hc        1 TF6      0.066750
     30 H5A        -0.8230   -3.2940   -3.2270 hc        1 TF6      0.066750
     31 H6         -0.9700   -2.0900   -0.6440 hc        1 TF6      0.081000
     32 H7         -0.0180   -0.5420   -2.8260 hc        1 TF6      0.085500
     33 H7A        -1.5120   -1.0140   -3.0160 hc        1 TF6      0.085500
     34 O3          0.6330   -7.1040   -1.4890 o         1 TF6     -0.569500
     35 H13        -3.1270   -0.6480   -0.8960 ha        1 TF6      0.136000
     36 H15        -2.6520    3.1710    0.6760 ha        1 TF6      0.139000
     37 H17         0.3160    1.4840   -1.6430 ha        1 TF6      0.150000
     38 H20         2.0890    3.0490    0.5670 ha        1 TF6      0.166000
     39 H21         2.9910    3.5030    2.6710 ha        1 TF6      0.153000
     40 H2          1.0300   -3.6470    0.1580 h1        1 TF6      0.066500
     41 H2A         2.2780   -3.6980   -0.8300 h1        1 TF6      0.066500
     42 H1          1.2530   -1.5660   -0.8230 hc        1 TF6      0.066750
     43 H1A         1.3670   -2.1930   -2.2970 hc        1 TF6      0.066750
     44 H14        -3.9860    1.2030    0.3410 ha        1 TF6      0.136000
     45 H23        -0.4510    5.2540    3.8070 ha        1 TF6      0.181000
@<TRIPOS>BOND
     1    1    2 1   
     2    1    6 1   
     3    1   14 1   
     4    2    3 1   
     5    2   27 1   
     6    2   28 1   
     7    3    4 1   
     8    3   29 1   
     9    3   30 1   
    10    4    5 1   
    11    4   15 1   
    12    4   31 1   
    13    5   16 1   
    14    5   32 1   
    15    5   33 1   
    16    6   13 1   
    17    6   34 1   
    18    7   17 1   
    19    7   35 1   
    20    8   18 1   
    21    8   36 1   
    22    9   16 1   
    23    9   37 1   
    24   10   20 1   
    25   10   38 1   
    26   11   12 1   
    27   11   39 1   
    28   12   23 1   
    29   14   15 1   
    30   14   40 1   
    31   14   41 1   
    32   15   42 1   
    33   15   43 1   
    34   17   44 1   
    35   18   19 1   
    36   19   20 1   
    37   20   21 1   
    38   21   22 1   
    39   22   45 1   
    40   23   24 1   
    41   23   25 1   
    42   23   26 1   
@<TRIPOS>SUBSTRUCTURE
     1 TF6         1 TEMP              0 ****  ****    0 ROOT
