@<TRIPOS>MOLECULE
TF6
   45    42     1     0     0
SMALL
bcc


@<TRIPOS>ATOM
      1 N3          0.6800    2.1190   -0.5190 n2        1 TF6     -0.246000
      2 C4          1.5030    2.9760   -0.9890 c2        1 TF6     -0.110000
      3 C5          2.2170   -0.3900    1.3130 c3        1 TF6     -0.205000
      4 C6          1.5720    0.6910    2.1550 c3        1 TF6     -0.101000
      5 C7          1.5390    0.2370    3.6170 c3        1 TF6     -0.042000
      6 C8         -0.1160    0.0240   -2.1740 c1        1 TF6      0.441000
      7 C13        -1.6640    3.3720    9.2240 c1        1 TF6     -0.254000
      8 C15         0.4090    5.2330    5.9740 c1        1 TF6     -0.163000
      9 C17         0.8640    2.1850    5.2510 c1        1 TF6     -0.185000
     10 C20         2.3780    8.1380    2.5870 c3        1 TF6     -0.140000
     11 C21         2.7730    7.9360    1.1980 c1        1 TF6     -0.185000
     12 C24         2.5800    6.7070    0.6120 c2        1 TF6     -0.396000
     13 O9          0.5800    0.4440   -3.0430 o         1 TF6     -0.222500
     14 C2          0.1210    2.2860    0.8000 c3        1 TF6     -0.103000
     15 C1          0.1720    1.0210    1.6570 c3        1 TF6     -0.150000
     16 C12         1.1690    1.2940    4.5100 c1        1 TF6     -0.231000
     17 C14        -1.0840    3.8710    8.3020 c1        1 TF6     -0.254000
     18 C16         0.8920    6.0790    5.2390 c1        1 TF6     -0.555000
     19 O18         1.4260    7.1180    4.5520 os        1 TF6      0.014000
     20 C19         1.7740    6.9270    3.2750 c2        1 TF6      0.167000
     21 N24         1.6230    5.7580    2.5910 n3        1 TF6     -0.192000
     22 C23         1.9990    5.5970    1.2770 c1        1 TF6     -0.045000
     23 F28         3.8300    5.4180   -1.0380 f         1 TF6     -0.190000
     24 F26         1.9490    6.2420   -1.6960 f         1 TF6     -0.190000
     25 F27         3.6580    7.5250   -1.4340 f         1 TF6     -0.190000
     26 H4          1.8750    2.8080   -2.0180 h4        1 TF6      0.134500
     27 H4A         1.8830    3.8890   -0.4770 h4        1 TF6      0.134500
     28 H5          2.2340   -0.0870    0.2390 hc        1 TF6      0.069000
     29 H5A         1.6500   -1.3490    1.4010 hc        1 TF6      0.069000
     30 H6          3.2680   -0.5690    1.6470 hc        1 TF6      0.069000
     31 H7          2.5570   -0.1500    3.9010 hc        1 TF6      0.084000
     32 H7A         2.2110    1.6170    2.0950 hc        1 TF6      0.103000
     33 O3         -0.8310   -0.4520   -1.3500 o         1 TF6     -0.222500
     34 H13         0.8150   -0.6190    3.7210 hc        1 TF6      0.084000
     35 H15        -0.5580    4.3260    7.4680 ha        1 TF6      0.242000
     36 H17         0.5930    3.0040    5.8860 ha        1 TF6      0.265000
     37 H20         3.2780    8.4570    3.1840 hc        1 TF6      0.153500
     38 H21         1.6230    8.9730    2.6380 hc        1 TF6      0.153500
     39 H2          0.6000    3.1350    1.3750 h1        1 TF6      0.087000
     40 H2A        -0.9660    2.5540    0.6520 h1        1 TF6      0.087000
     41 H1         -0.2480    0.1520    1.0840 hc        1 TF6      0.089500
     42 H1A        -0.5030    1.2010    2.5370 hc        1 TF6      0.089500
     43 H14        -2.1770    2.9290   10.0360 ha        1 TF6      0.242000
     44 H23         1.2240    4.9690    3.0700 hn        1 TF6      0.279000
     45 C25         2.9900    6.4910   -0.8250 c3        1 TF6      0.513000
@<TRIPOS>BOND
     1    1    2 1   
     2    1   14 1   
     3    2   26 1   
     4    2   27 1   
     5    3    4 1   
     6    3   28 1   
     7    3   29 1   
     8    3   30 1   
     9    4    5 1   
    10    4   15 1   
    11    4   32 1   
    12    5   16 1   
    13    5   31 1   
    14    5   34 1   
    15    6   13 1   
    16    6   33 1   
    17    7   17 1   
    18    7   43 1   
    19    8   18 1   
    20    9   16 1   
    21    9   36 1   
    22   10   11 1   
    23   10   20 1   
    24   10   37 1   
    25   10   38 1   
    26   11   12 1   
    27   12   22 1   
    28   12   45 1   
    29   14   15 1   
    30   14   39 1   
    31   14   40 1   
    32   15   41 1   
    33   15   42 1   
    34   17   35 1   
    35   18   19 1   
    36   19   20 1   
    37   20   21 1   
    38   21   22 1   
    39   21   44 1   
    40   23   45 1   
    41   24   45 1   
    42   25   45 1   
@<TRIPOS>SUBSTRUCTURE
     1 TF6         1 TEMP              0 ****  ****    0 ROOT
