@<TRIPOS>MOLECULE
TF6
   45    47     1     0     0
SMALL
bcc


@<TRIPOS>ATOM
      1 N3          5.3680    1.4480    0.1960 n         1 TF6     -0.485800
      2 C4          4.8590    1.3060    1.5330 c3        1 TF6      0.086000
      3 C5          4.2180   -0.0510    1.8540 c3        1 TF6     -0.106400
      4 C6          3.1820   -0.4260    0.8040 c3        1 TF6     -0.054700
      5 C7          2.6320   -1.8190    1.1000 c3        1 TF6     -0.044100
      6 C8          6.7920    1.1470   -0.0130 c         1 TF6      0.990600
      7 C13         1.4420   -2.6600   -0.9440 ca        1 TF6     -0.121000
      8 C15        -0.9750   -2.7490   -1.0650 ca        1 TF6     -0.134000
      9 C17         0.1350   -1.8890    0.9390 ca        1 TF6     -0.125000
     10 C20        -4.3580   -1.1510    1.2610 ca        1 TF6     -0.274300
     11 C21        -5.3590   -0.2730    0.8750 ca        1 TF6     -0.021000
     12 C24        -5.1730    0.5110   -0.2730 ca        1 TF6     -0.345600
     13 O9          7.5550    1.1870    0.9970 o         1 TF6     -0.834300
     14 C2          4.4510    1.0150   -0.8230 c3        1 TF6      0.086000
     15 C1          3.7990   -0.3530   -0.5830 c3        1 TF6     -0.106400
     16 C12         1.3830   -2.1250    0.3500 ca        1 TF6     -0.043300
     17 C14         0.2760   -2.9650   -1.6440 ca        1 TF6     -0.123000
     18 C16        -1.0240   -2.2150    0.2250 ca        1 TF6      0.081100
     19 O18        -2.2400   -2.1090    0.9170 os        1 TF6     -0.364400
     20 C19        -3.1800   -1.2100    0.4620 ca        1 TF6      0.665600
     21 N24        -2.9850   -0.4600   -0.6570 nb        1 TF6     -0.704000
     22 C23        -3.9740    0.3820   -0.9990 ca        1 TF6      0.487200
     23 F28        -6.1530    2.7330   -0.1330 f         1 TF6     -0.240300
     24 F26        -6.2480    1.7580   -2.0650 f         1 TF6     -0.240300
     25 F27        -7.5280    1.0920   -0.4480 f         1 TF6     -0.240300
     26 H4          5.7030    1.4860    2.2580 h1        1 TF6      0.039200
     27 H4A         4.0720    2.1000    1.6950 h1        1 TF6      0.039200
     28 H5          5.0140   -0.8390    1.8940 hc        1 TF6      0.031700
     29 H5A         3.7350    0.0020    2.8630 hc        1 TF6      0.031700
     30 H6          2.3350    0.3140    0.8590 hc        1 TF6      0.040700
     31 H7          3.4170   -2.5820    0.8460 hc        1 TF6      0.046700
     32 H7A         2.4300   -1.9010    2.2020 hc        1 TF6      0.046700
     33 O3          7.1750    0.9070   -1.1960 o         1 TF6     -0.834300
     34 H13         2.4250   -2.8280   -1.4110 ha        1 TF6      0.148000
     35 H15        -1.9000   -2.9790   -1.6100 ha        1 TF6      0.138000
     36 H17         0.0600   -1.4620    1.9490 ha        1 TF6      0.147000
     37 H20        -4.4450   -1.7880    2.1510 ha        1 TF6      0.166000
     38 H21        -6.2910   -0.1890    1.4550 ha        1 TF6      0.153000
     39 H2          3.6220    1.7790   -0.8970 h1        1 TF6      0.039200
     40 H2A         4.9990    0.9860   -1.8070 h1        1 TF6      0.039200
     41 H1          4.5720   -1.1560   -0.6950 hc        1 TF6      0.031700
     42 H1A         3.0090   -0.5260   -1.3580 hc        1 TF6      0.031700
     43 H14         0.3390   -3.3770   -2.6620 ha        1 TF6      0.131000
     44 H23        -3.7940    0.9850   -1.9100 h4        1 TF6      0.043100
     45 C25        -6.2390    1.4900   -0.7170 c3        1 TF6      0.702200
@<TRIPOS>BOND
     1    1    2 1   
     2    1    6 1   
     3    1   14 1   
     4    2    3 1   
     5    2   26 1   
     6    2   27 1   
     7    3    4 1   
     8    3   28 1   
     9    3   29 1   
    10    4    5 1   
    11    4   15 1   
    12    4   30 1   
    13    5   16 1   
    14    5   31 1   
    15    5   32 1   
    16    6   13 1   
    17    6   33 1   
    18    7   16 ar  
    19    7   17 ar  
    20    7   34 1   
    21    8   17 ar  
    22    8   18 ar  
    23    8   35 1   
    24    9   16 ar  
    25    9   18 ar  
    26    9   36 1   
    27   10   11 ar  
    28   10   20 ar  
    29   10   37 1   
    30   11   12 ar  
    31   11   38 1   
    32   12   22 ar  
    33   12   45 1   
    34   14   15 1   
    35   14   39 1   
    36   14   40 1   
    37   15   41 1   
    38   15   42 1   
    39   17   43 1   
    40   18   19 1   
    41   19   20 1   
    42   20   21 ar  
    43   21   22 ar  
    44   22   44 1   
    45   23   45 1   
    46   24   45 1   
    47   25   45 1   
@<TRIPOS>SUBSTRUCTURE
     1 TF6         1 TEMP              0 ****  ****    0 ROOT
