@<TRIPOS>MOLECULE
TF6
   45    43     1     0     0
SMALL
bcc


@<TRIPOS>ATOM
      1 N3          1.2140    1.6860   -0.7940 n         1 TF6     -0.142000
      2 C4          2.5350    2.1240   -1.2270 c3        1 TF6     -0.083000
      3 C5          3.6760    1.4760   -0.4600 c3        1 TF6     -0.222000
      4 C6          0.0020    1.6580    3.8350 c2        1 TF6     -0.178000
      5 C7          1.0580    0.6090    3.9100 c3        1 TF6     -0.034000
      6 C8          0.7310    0.2870   -1.3020 c2        1 TF6      0.401000
      7 C13        -1.0850    4.4380    8.9930 c2        1 TF6     -0.269000
      8 C15        -0.2660    4.7300    6.5760 c1        1 TF6     -0.284000
      9 C17         3.4420    1.5210    3.2690 c1        1 TF6     -0.238000
     10 C20         1.6660    7.1960    3.0390 c3        1 TF6     -0.158000
     11 C21         2.0100    7.2010    1.6210 c1        1 TF6     -0.167000
     12 C24         1.7220    6.0900    0.8580 c2        1 TF6     -0.386000
     13 O9          1.5070   -0.2590   -2.1040 o         1 TF6     -0.453000
     14 C2          0.4730    2.4090   -0.0210 c2        1 TF6     -0.036000
     15 C1         -1.0120    1.6070    2.9750 c2        1 TF6     -0.238000
     16 C12         2.3570    1.1130    3.5670 c1        1 TF6     -0.144000
     17 C14        -0.6630    4.6050    7.7690 c1        1 TF6     -0.072000
     18 C16         0.0920    4.6930    5.3110 c1        1 TF6     -0.196000
     19 O18         0.6940    5.9210    4.8380 os        1 TF6     -0.135000
     20 C19         1.0130    5.9270    3.5550 c2        1 TF6      0.243000
     21 N24         0.7870    4.8840    2.7020 n7        1 TF6     -0.190000
     22 C23         1.1240    4.9210    1.3750 c1        1 TF6     -0.089000
     23 F28         1.2820    5.3060   -1.4130 f         1 TF6     -0.188667
     24 F26         2.0510    7.3080   -1.2400 f         1 TF6     -0.188667
     25 F27         3.3470    5.6140   -0.8940 f         1 TF6     -0.188667
     26 H4          2.6250    1.8460   -2.3170 h1        1 TF6      0.120000
     27 H4A         2.6070    3.2480   -1.1330 h1        1 TF6      0.120000
     28 H5          4.6380    1.8820   -0.8540 hc        1 TF6      0.088000
     29 H5A         3.6630    0.3680   -0.6070 hc        1 TF6      0.088000
     30 H6          3.6130    1.6970    0.6330 hc        1 TF6      0.088000
     31 H7          0.8100   -0.2540    3.2270 hc        1 TF6      0.102500
     32 H7A         0.1060    2.4910    4.5630 ha        1 TF6      0.180000
     33 O3         -0.3630   -0.0610   -0.8210 o         1 TF6     -0.453000
     34 H13         1.0860    0.2040    4.9630 hc        1 TF6      0.102500
     35 H15        -1.5320    3.4960    9.3350 ha        1 TF6      0.104000
     36 H17         4.4010    1.8870    3.0070 ha        1 TF6      0.217000
     37 H20         2.6010    7.3710    3.6440 hc        1 TF6      0.159000
     38 H21         0.9670    8.0550    3.2490 hc        1 TF6      0.159000
     39 H2          0.7820    3.4360    0.3950 h4        1 TF6      0.210000
     40 H2A        -0.5210    2.0080    0.2720 h4        1 TF6      0.210000
     41 H1         -1.7920    2.3800    2.9580 ha        1 TF6      0.115500
     42 H1A        -1.1420    0.7990    2.2410 ha        1 TF6      0.115500
     43 H14        -1.0160    5.2310    9.7470 ha        1 TF6      0.104000
     44 H23         0.3670    4.0460    3.0840 hn        1 TF6      0.299000
     45 C25         2.0840    6.0890   -0.6090 c3        1 TF6      0.512000
@<TRIPOS>BOND
     1    1    2 1   
     2    1    6 1   
     3    1   14 1   
     4    2    3 1   
     5    2   26 1   
     6    2   27 1   
     7    3   28 1   
     8    3   29 1   
     9    3   30 1   
    10    4    5 1   
    11    4   15 1   
    12    4   32 1   
    13    5   16 1   
    14    5   31 1   
    15    5   34 1   
    16    6   13 1   
    17    6   33 1   
    18    7   17 1   
    19    7   35 1   
    20    7   43 1   
    21    8   17 1   
    22    8   18 1   
    23    9   16 1   
    24    9   36 1   
    25   10   11 1   
    26   10   20 1   
    27   10   37 1   
    28   10   38 1   
    29   11   12 1   
    30   12   22 1   
    31   12   45 1   
    32   14   39 1   
    33   14   40 1   
    34   15   41 1   
    35   15   42 1   
    36   18   19 1   
    37   19   20 1   
    38   20   21 1   
    39   21   22 1   
    40   21   44 1   
    41   23   45 1   
    42   24   45 1   
    43   25   45 1   
@<TRIPOS>SUBSTRUCTURE
     1 TF6         1 TEMP              0 ****  ****    0 ROOT
