@<TRIPOS>MOLECULE
TF7
   30    30     1     0     0
SMALL
bcc


@<TRIPOS>ATOM
      1 S1          1.7130    0.6410   -0.5460 s6        1 TF7      1.676000
      2 C2         -0.2650    0.0280    0.0160 c2        1 TF7     -0.628000
      3 C3         -0.2180    0.2000    1.4880 c3        1 TF7     -0.050000
      4 N4         -1.0920   -0.7640    2.2670 n4        1 TF7     -0.069000
      5 C9          1.2290    0.1380    2.0490 c2        1 TF7      0.345000
      6 O10         1.4680   -0.3210    3.1760 o         1 TF7     -0.411000
      7 O11         2.1470    0.6410    1.2790 os        1 TF7     -0.571000
      8 O12         1.7570    0.0100   -2.1510 oh        1 TF7     -0.692000
      9 O13         3.4100    0.7830   -0.7070 oh        1 TF7     -0.692000
     10 C14        -0.3800   -1.3400   -0.5970 c3        1 TF7      0.046000
     11 N15         0.4670   -2.3800   -0.0360 na        1 TF7     -0.164000
     12 N16         0.1700   -3.1390    1.0460 n2        1 TF7     -0.090000
     13 N17         1.0720   -4.0210    1.2220 n2        1 TF7     -0.079000
     14 C18         2.0570   -3.8980    0.2260 c2        1 TF7     -0.222000
     15 C19         1.6690   -2.8280   -0.6020 c2        1 TF7     -0.117000
     16 C20        -1.1880    0.9730   -0.6790 c3        1 TF7     -0.149000
     17 H3         -0.5900    1.2390    1.7500 hx        1 TF7      0.123000
     18 HN4        -1.7230   -0.2590    2.8840 hn        1 TF7      0.241333
     19 HN4A       -0.4880   -1.3710    2.8440 hn        1 TF7      0.241333
     20 HO12        2.6030    0.1200   -2.5830 ho        1 TF7      0.248000
     21 HO13        3.9150    0.6770    0.0960 ho        1 TF7      0.248000
     22 H14        -1.4500   -1.7070   -0.5510 h1        1 TF7      0.100000
     23 H14A       -0.1020   -1.2510   -1.6920 h1        1 TF7      0.100000
     24 H18         2.9290   -4.5460    0.1840 h4        1 TF7      0.196000
     25 H19         2.1090   -2.3590   -1.4850 h4        1 TF7      0.213000
     26 H20        -1.0520    2.0180   -0.3060 hc        1 TF7      0.061000
     27 H20A       -2.2620    0.6910   -0.5290 hc        1 TF7      0.061000
     28 H20B       -0.9840    0.9680   -1.7800 hc        1 TF7      0.061000
     29 HS1         1.4350    1.8700   -0.7690 hs        1 TF7     -0.268000
     30 H43        -1.6370   -1.3380    1.6220 hn        1 TF7      0.241333
@<TRIPOS>BOND
     1    1    7 1   
     2    1    8 1   
     3    1    9 1   
     4    1   29 1   
     5    2    3 1   
     6    2   10 1   
     7    2   16 1   
     8    3    4 1   
     9    3    5 1   
    10    3   17 1   
    11    4   18 1   
    12    4   19 1   
    13    4   30 1   
    14    5    6 1   
    15    5    7 1   
    16    8   20 1   
    17    9   21 1   
    18   10   11 1   
    19   10   22 1   
    20   10   23 1   
    21   11   12 1   
    22   11   15 1   
    23   12   13 1   
    24   13   14 1   
    25   14   15 1   
    26   14   24 1   
    27   15   25 1   
    28   16   26 1   
    29   16   27 1   
    30   16   28 1   
@<TRIPOS>SUBSTRUCTURE
     1 TF7         1 TEMP              0 ****  ****    0 ROOT
