@<TRIPOS>MOLECULE
TF7
   30    30     1     0     0
SMALL
bcc


@<TRIPOS>ATOM
      1 S1          2.3840    0.5340    0.0770 s6        1 TF7      1.663000
      2 C2          0.2260    0.2610   -0.3530 c2        1 TF7     -0.622000
      3 C3         -0.2340    0.2820    1.0510 c3        1 TF7     -0.050000
      4 N4         -1.6280   -0.2760    1.2590 n4        1 TF7     -0.065000
      5 C9          0.7450   -0.4540    2.0000 c2        1 TF7      0.341000
      6 O10         0.3460   -1.1290    2.9610 o         1 TF7     -0.416000
      7 O11         2.0070   -0.2810    1.7400 os        1 TF7     -0.590000
      8 O12         2.9540    1.5800   -1.1600 oh        1 TF7     -0.678000
      9 O13         3.8290    0.9250    0.8870 oh        1 TF7     -0.678000
     10 C14         0.2010   -1.0220   -1.0970 c3        1 TF7      0.063000
     11 N15        -1.0330   -1.3490   -1.8280 na        1 TF7     -0.152000
     12 N16        -2.2540   -1.5340   -1.2860 n2        1 TF7     -0.105000
     13 N17        -3.1120   -1.7990   -2.1950 n2        1 TF7     -0.092000
     14 C18        -2.4800   -1.8020   -3.4470 c2        1 TF7     -0.225000
     15 C19        -1.1210   -1.5050   -3.2160 c2        1 TF7     -0.131000
     16 C20        -0.0800    1.4770   -1.1490 c3        1 TF7     -0.140000
     17 H3         -0.2830    1.3550    1.4130 hx        1 TF7      0.125000
     18 HN4        -1.9170   -0.1370    2.2280 hn        1 TF7      0.240667
     19 HN4A       -1.6110   -1.2840    1.0770 hn        1 TF7      0.240667
     20 HO12        3.7840    2.0110   -0.9570 ho        1 TF7      0.254000
     21 HO13        3.9180    0.6090    1.7840 ho        1 TF7      0.254000
     22 H14         1.0020   -1.0040   -1.8940 h1        1 TF7      0.097500
     23 H14A        0.4080   -1.8830   -0.3960 h1        1 TF7      0.097500
     24 H18        -3.0120   -2.0070   -4.3730 h4        1 TF7      0.193000
     25 H19        -0.2710   -1.3990   -3.8870 h4        1 TF7      0.193000
     26 H20        -1.1580    1.5300   -1.4450 hc        1 TF7      0.062667
     27 H20A        0.1630    2.4050   -0.5720 hc        1 TF7      0.062667
     28 H20B        0.5400    1.4900   -2.0810 hc        1 TF7      0.062667
     29 HS1         2.7490   -0.5690   -0.4680 hs        1 TF7     -0.247000
     30 H43        -2.2790    0.1760    0.6170 hn        1 TF7      0.240667
@<TRIPOS>BOND
     1    1    7 1   
     2    1    8 1   
     3    1    9 1   
     4    1   29 1   
     5    2    3 1   
     6    2   10 1   
     7    2   16 1   
     8    3    4 1   
     9    3    5 1   
    10    3   17 1   
    11    4   18 1   
    12    4   19 1   
    13    4   30 1   
    14    5    6 1   
    15    5    7 1   
    16    8   20 1   
    17    9   21 1   
    18   10   11 1   
    19   10   22 1   
    20   10   23 1   
    21   11   12 1   
    22   11   15 1   
    23   12   13 1   
    24   13   14 1   
    25   14   15 1   
    26   14   24 1   
    27   15   25 1   
    28   16   26 1   
    29   16   27 1   
    30   16   28 1   
@<TRIPOS>SUBSTRUCTURE
     1 TF7         1 TEMP              0 ****  ****    0 ROOT
