@<TRIPOS>MOLECULE
TFA
    7     6     1     0     0
SMALL
bcc


@<TRIPOS>ATOM
      1 C1          1.0920    0.1170   -0.0010 c         1 TFA      0.944600
      2 C2         -0.5200   -0.0380    0.0000 c3        1 TFA      0.439900
      3 O           1.5100    1.2910   -0.0020 o         1 TFA     -0.764800
      4 F1         -1.2320    1.1370    0.0040 f         1 TFA     -0.285633
      5 F2         -1.0350   -0.7130   -1.0810 f         1 TFA     -0.285633
      6 F3         -1.0330   -0.7190    1.0790 f         1 TFA     -0.285633
      7 OXT         1.7200   -0.9600   -0.0000 o         1 TFA     -0.764800
@<TRIPOS>BOND
     1    1    2 1   
     2    1    3 1   
     3    1    7 1   
     4    2    4 1   
     5    2    5 1   
     6    2    6 1   
@<TRIPOS>SUBSTRUCTURE
     1 TFA         1 TEMP              0 ****  ****    0 ROOT
