@<TRIPOS>MOLECULE
TFB
   15    15     1     0     0
SMALL
bcc


@<TRIPOS>ATOM
      1 OA          0.6990    1.0940   -0.8760 os        1 TFB     -0.425600
      2 CA         -0.3410    0.6960    0.0390 c3        1 TFB      0.015100
      3 C           0.2320   -0.1350    1.2170 c         1 TFB      0.907600
      4 OXT         0.0150    0.3110    2.3790 o         1 TFB     -0.839300
      5 CB         -1.3660   -0.1100   -0.7670 c3        1 TFB     -0.087400
      6 CG         -0.7060   -0.3880   -2.1130 c3        1 TFB     -0.098400
      7 CD          0.6940    0.2140   -1.9990 c3        1 TFB      0.137400
      8 OB          0.8410   -1.2110    0.9650 o         1 TFB     -0.839300
      9 HA         -0.7660    1.6590    0.4240 h1        1 TFB      0.047700
     10 HB1        -1.6020   -1.0640   -0.2340 hc        1 TFB      0.037700
     11 HB2        -2.3150    0.4630   -0.8970 hc        1 TFB      0.037700
     12 HG1        -0.6480   -1.4840   -2.3170 hc        1 TFB      0.024700
     13 HG2        -1.2780    0.0880   -2.9470 hc        1 TFB      0.024700
     14 HD1         1.4630   -0.5830   -1.8280 h1        1 TFB      0.029200
     15 HD2         0.9720    0.8380   -2.8850 h1        1 TFB      0.029200
@<TRIPOS>BOND
     1    1    2 1   
     2    1    7 1   
     3    2    3 1   
     4    2    5 1   
     5    2    9 1   
     6    3    4 1   
     7    3    8 1   
     8    5    6 1   
     9    5   10 1   
    10    5   11 1   
    11    6    7 1   
    12    6   12 1   
    13    6   13 1   
    14    7   14 1   
    15    7   15 1   
@<TRIPOS>SUBSTRUCTURE
     1 TFB         1 TEMP              0 ****  ****    0 ROOT
