@<TRIPOS>MOLECULE
TFB
   15    15     1     0     0
SMALL
bcc


@<TRIPOS>ATOM
      1 OA          0.5520    0.8460   -0.2640 os        1 TFB     -0.425600
      2 CA          1.7730    0.1550    0.0660 c3        1 TFB      0.015100
      3 C           1.7850   -1.2820   -0.5190 c         1 TFB      0.907600
      4 OXT         2.7480   -1.5700   -1.2850 o         1 TFB     -0.838800
      5 CB          1.8810    0.1370    1.5950 c3        1 TFB     -0.087400
      6 CG          0.5190    0.5910    2.1100 c3        1 TFB     -0.098400
      7 CD         -0.3300    0.7910    0.8550 c3        1 TFB      0.137400
      8 OB          0.8740   -2.0860   -0.1800 o         1 TFB     -0.838800
      9 HA          2.5840    0.7660   -0.4090 h1        1 TFB      0.047700
     10 HB1         2.6900    0.8190    1.9490 hc        1 TFB      0.037700
     11 HB2         2.1150   -0.8980    1.9460 hc        1 TFB      0.037700
     12 HG1         0.0620   -0.1770    2.7770 hc        1 TFB      0.024700
     13 HG2         0.6050    1.5430    2.6880 hc        1 TFB      0.024700
     14 HD1        -1.0380   -0.0640    0.7070 h1        1 TFB      0.029200
     15 HD2        -0.8890    1.7610    0.8590 h1        1 TFB      0.029200
@<TRIPOS>BOND
     1    1    2 1   
     2    1    7 1   
     3    2    3 1   
     4    2    5 1   
     5    2    9 1   
     6    3    4 1   
     7    3    8 1   
     8    5    6 1   
     9    5   10 1   
    10    5   11 1   
    11    6    7 1   
    12    6   12 1   
    13    6   13 1   
    14    7   14 1   
    15    7   15 1   
@<TRIPOS>SUBSTRUCTURE
     1 TFB         1 TEMP              0 ****  ****    0 ROOT
