@<TRIPOS>MOLECULE
TFB
   15    15     1     0     0
SMALL
bcc


@<TRIPOS>ATOM
      1 OA          0.5290    0.8420   -0.2490 os        1 TFB     -0.425600
      2 CA          1.7490    0.1280    0.0330 c3        1 TFB      0.015100
      3 C           1.7080   -1.3110   -0.5460 c         1 TFB      0.907600
      4 OXT         2.6270   -1.6190   -1.3570 o         1 TFB     -0.839300
      5 CB          1.9200    0.1140    1.5560 c3        1 TFB     -0.087400
      6 CG          0.5930    0.6020    2.1250 c3        1 TFB     -0.098400
      7 CD         -0.3050    0.8140    0.9070 c3        1 TFB      0.137400
      8 OB          0.8010   -2.0980   -0.1580 o         1 TFB     -0.839300
      9 HA          2.5510    0.7210   -0.4790 h1        1 TFB      0.047700
     10 HB1         2.7600    0.7790    1.8720 hc        1 TFB      0.037700
     11 HB2         2.1450   -0.9250    1.9020 hc        1 TFB      0.037700
     12 HG1         0.1480   -0.1520    2.8170 hc        1 TFB      0.024700
     13 HG2         0.7250    1.5550    2.6930 hc        1 TFB      0.024700
     14 HD1        -0.8420    1.7960    0.9280 h1        1 TFB      0.029200
     15 HD2        -1.0380   -0.0260    0.7950 h1        1 TFB      0.029200
@<TRIPOS>BOND
     1    1    2 1   
     2    1    7 1   
     3    2    3 1   
     4    2    5 1   
     5    2    9 1   
     6    3    4 1   
     7    3    8 1   
     8    5    6 1   
     9    5   10 1   
    10    5   11 1   
    11    6    7 1   
    12    6   12 1   
    13    6   13 1   
    14    7   14 1   
    15    7   15 1   
@<TRIPOS>SUBSTRUCTURE
     1 TFB         1 TEMP              0 ****  ****    0 ROOT
