@<TRIPOS>MOLECULE
TFC
   35    34     1     0     0
SMALL
bcc


@<TRIPOS>ATOM
      1 C1         -5.6450   -0.3700   -3.4200 c3        1 TFC     -0.093100
      2 C2         -4.1360   -0.2500   -3.4230 c3        1 TFC     -0.080400
      3 C3         -3.6250   -0.2780   -2.0000 c3        1 TFC     -0.079400
      4 C4         -2.1150   -0.1810   -2.0040 c3        1 TFC     -0.079400
      5 C5         -1.6070   -0.1530   -0.5800 c3        1 TFC     -0.079400
      6 C6         -0.0980   -0.0590   -0.5840 c3        1 TFC     -0.076400
      7 C7          0.4120   -0.0600    0.8400 c3        1 TFC     -0.071400
      8 C8          1.9170    0.0980    0.8380 c3        1 TFC     -0.028300
      9 S1          2.4960    0.2660    2.5050 ss        1 TFC     -0.229200
     10 C9          4.2690    0.3060    2.5140 c3        1 TFC     -0.135300
     11 C10         4.7690    0.1850    3.9360 c         1 TFC      0.553100
     12 O1          4.0530   -0.2930    4.7930 o         1 TFC     -0.433100
     13 C11         6.1620    0.6570    4.2910 c3        1 TFC      0.522900
     14 F1          7.0270    0.2340    3.3600 f         1 TFC     -0.227300
     15 F2          6.1800    1.9950    4.3430 f         1 TFC     -0.227300
     16 F3          6.5110    0.1590    5.4840 f         1 TFC     -0.227300
     17 H11        -5.9060   -1.1880   -2.9470 hc        1 TFC      0.033033
     18 H12        -5.9710   -0.4080   -4.3430 hc        1 TFC      0.033033
     19 H13        -6.0330    0.4080   -2.9670 hc        1 TFC      0.033033
     20 H21        -3.8770    0.5930   -3.8460 hc        1 TFC      0.038700
     21 H22        -3.7510   -0.9970   -3.9230 hc        1 TFC      0.038700
     22 H31        -3.8960   -1.1150   -1.5730 hc        1 TFC      0.040200
     23 H32        -3.9990    0.4770   -1.5040 hc        1 TFC      0.040200
     24 H41        -1.8430    0.6390   -2.4630 hc        1 TFC      0.040200
     25 H42        -1.7400   -0.9550   -2.4690 hc        1 TFC      0.040200
     26 H51        -1.8820   -0.9720   -0.1200 hc        1 TFC      0.042200
     27 H52        -1.9810    0.6220   -0.1150 hc        1 TFC      0.042200
     28 H61         0.1760    0.7690   -1.0280 hc        1 TFC      0.043200
     29 H62         0.2760   -0.8250   -1.0640 hc        1 TFC      0.043200
     30 H71         0.1740   -0.9050    1.2720 hc        1 TFC      0.057700
     31 H72         0.0070    0.6830    1.3320 hc        1 TFC      0.057700
     32 H81         2.1600    0.8960    0.3260 h1        1 TFC      0.069700
     33 H82         2.3270   -0.6900    0.4280 h1        1 TFC      0.069700
     34 H91         4.5780    1.1510    2.1300 h1        1 TFC      0.113700
     35 H92         4.6140   -0.4390    1.9820 h1        1 TFC      0.113700
@<TRIPOS>BOND
     1    1    2 1   
     2    1   17 1   
     3    1   18 1   
     4    1   19 1   
     5    2    3 1   
     6    2   20 1   
     7    2   21 1   
     8    3    4 1   
     9    3   22 1   
    10    3   23 1   
    11    4    5 1   
    12    4   24 1   
    13    4   25 1   
    14    5    6 1   
    15    5   26 1   
    16    5   27 1   
    17    6    7 1   
    18    6   28 1   
    19    6   29 1   
    20    7    8 1   
    21    7   30 1   
    22    7   31 1   
    23    8    9 1   
    24    8   32 1   
    25    8   33 1   
    26    9   10 1   
    27   10   11 1   
    28   10   34 1   
    29   10   35 1   
    30   11   12 2   
    31   11   13 1   
    32   13   14 1   
    33   13   15 1   
    34   13   16 1   
@<TRIPOS>SUBSTRUCTURE
     1 TFC         1 TEMP              0 ****  ****    0 ROOT
