@<TRIPOS>MOLECULE
TFC
   35    34     1     0     0
SMALL
bcc


@<TRIPOS>ATOM
      1 C1          9.1110   -0.0770    0.0000 c3        1 TFC     -0.093100
      2 C2          7.8200    0.6990   -0.0020 c3        1 TFC     -0.080400
      3 C3          6.6180   -0.2230    0.0010 c3        1 TFC     -0.079400
      4 C4          5.3230    0.5610   -0.0020 c3        1 TFC     -0.079400
      5 C5          4.1240   -0.3620    0.0010 c3        1 TFC     -0.079400
      6 C6          2.8290    0.4220   -0.0010 c3        1 TFC     -0.076400
      7 C7          1.6310   -0.5060    0.0020 c3        1 TFC     -0.073400
      8 C8          0.3440    0.2800   -0.0010 c3        1 TFC     -0.020300
      9 S1         -0.9750   -0.9000    0.0030 ss        1 TFC     -0.229200
     10 C9         -2.3640    0.1870   -0.0010 c3        1 TFC     -0.134300
     11 C10        -3.6650   -0.5290    0.0020 c         1 TFC      0.568100
     12 O1         -3.8730   -1.7330    0.0050 o         1 TFC     -0.421100
     13 C11        -4.9070    0.4410   -0.0010 c3        1 TFC      0.522900
     14 F1         -5.7180    0.2770    1.0900 f         1 TFC     -0.226633
     15 F2         -4.5870    1.7740   -0.0050 f         1 TFC     -0.226633
     16 F3         -5.7180    0.2700   -1.0910 f         1 TFC     -0.226633
     17 H11         9.1810   -0.7250    0.9070 hc        1 TFC      0.033033
     18 H12         9.1810   -0.7300   -0.9030 hc        1 TFC      0.033033
     19 H13         9.9830    0.6210   -0.0020 hc        1 TFC      0.033033
     20 H21         7.7800    1.3670    0.8990 hc        1 TFC      0.038700
     21 H22         7.7800    1.3620   -0.9060 hc        1 TFC      0.038700
     22 H31         6.6560   -0.8910   -0.9000 hc        1 TFC      0.040700
     23 H32         6.6560   -0.8850    0.9050 hc        1 TFC      0.040700
     24 H41         5.2860    1.2290    0.8990 hc        1 TFC      0.039700
     25 H42         5.2860    1.2240   -0.9060 hc        1 TFC      0.039700
     26 H51         4.1610   -1.0300   -0.9000 hc        1 TFC      0.042700
     27 H52         4.1610   -1.0250    0.9060 hc        1 TFC      0.042700
     28 H61         2.7910    1.0890    0.9000 hc        1 TFC      0.041700
     29 H62         2.7910    1.0840   -0.9060 hc        1 TFC      0.041700
     30 H71         1.6710   -1.1720   -0.9010 hc        1 TFC      0.058700
     31 H72         1.6710   -1.1670    0.9080 hc        1 TFC      0.058700
     32 H81         0.2830    0.9390    0.8990 h1        1 TFC      0.062700
     33 H82         0.2830    0.9330   -0.9050 h1        1 TFC      0.062700
     34 H91        -2.3330    0.8600    0.8980 h1        1 TFC      0.102700
     35 H92        -2.3330    0.8540   -0.9040 h1        1 TFC      0.102700
@<TRIPOS>BOND
     1    1    2 1   
     2    1   17 1   
     3    1   18 1   
     4    1   19 1   
     5    2    3 1   
     6    2   20 1   
     7    2   21 1   
     8    3    4 1   
     9    3   22 1   
    10    3   23 1   
    11    4    5 1   
    12    4   24 1   
    13    4   25 1   
    14    5    6 1   
    15    5   26 1   
    16    5   27 1   
    17    6    7 1   
    18    6   28 1   
    19    6   29 1   
    20    7    8 1   
    21    7   30 1   
    22    7   31 1   
    23    8    9 1   
    24    8   32 1   
    25    8   33 1   
    26    9   10 1   
    27   10   11 1   
    28   10   34 1   
    29   10   35 1   
    30   11   12 2   
    31   11   13 1   
    32   13   14 1   
    33   13   15 1   
    34   13   16 1   
@<TRIPOS>SUBSTRUCTURE
     1 TFC         1 TEMP              0 ****  ****    0 ROOT
