@<TRIPOS>MOLECULE
TFC
   35    34     1     0     0
SMALL
bcc


@<TRIPOS>ATOM
      1 C1          0.4940    0.5720   -0.1420 c3        1 TFC     -0.093100
      2 C2          1.9870    0.4400    0.0090 c3        1 TFC     -0.080400
      3 C3          2.3810    0.2150    1.4530 c3        1 TFC     -0.079400
      4 C4          3.8820    0.0830    1.5990 c3        1 TFC     -0.079400
      5 C5          4.2740   -0.1420    3.0440 c3        1 TFC     -0.079400
      6 C6          5.7750   -0.2730    3.1890 c3        1 TFC     -0.076400
      7 C7          6.1640   -0.4980    4.6360 c3        1 TFC     -0.071400
      8 C8          7.6600   -0.6260    4.7760 c3        1 TFC     -0.028300
      9 S1          7.9820   -0.8960    6.4950 ss        1 TFC     -0.229200
     10 C9          9.7290   -1.0870    6.5620 c3        1 TFC     -0.135300
     11 C10        10.4410    0.1880    6.8560 c         1 TFC      0.553100
     12 O1         10.5950    0.6860    7.9630 o         1 TFC     -0.433100
     13 C11        11.0700    0.9200    5.6140 c3        1 TFC      0.522900
     14 F1         11.6700    0.0710    4.7200 f         1 TFC     -0.226967
     15 F2         10.1620    1.6290    4.8710 f         1 TFC     -0.226967
     16 F3         12.0420    1.8230    5.9480 f         1 TFC     -0.226967
     17 H11         0.2250    0.7370   -1.2140 hc        1 TFC      0.033033
     18 H12        -0.0220   -0.3530    0.2120 hc        1 TFC      0.033033
     19 H13         0.1120    1.4350    0.4540 hc        1 TFC      0.033033
     20 H21         2.4880    1.3680   -0.3750 hc        1 TFC      0.038700
     21 H22         2.3550   -0.4160   -0.6170 hc        1 TFC      0.038700
     22 H31         1.8830   -0.7130    1.8380 hc        1 TFC      0.040200
     23 H32         2.0150    1.0710    2.0790 hc        1 TFC      0.040200
     24 H41         4.2480   -0.7720    0.9730 hc        1 TFC      0.040200
     25 H42         4.3800    1.0120    1.2150 hc        1 TFC      0.040200
     26 H51         3.7760   -1.0700    3.4290 hc        1 TFC      0.042200
     27 H52         3.9090    0.7140    3.6710 hc        1 TFC      0.042200
     28 H61         6.2740    0.6570    2.8070 hc        1 TFC      0.043200
     29 H62         6.1420   -1.1280    2.5630 hc        1 TFC      0.043200
     30 H71         5.6650   -1.4290    5.0180 hc        1 TFC      0.057700
     31 H72         5.7960    0.3590    5.2610 hc        1 TFC      0.057700
     32 H81         8.1700    0.3020    4.4190 h1        1 TFC      0.069700
     33 H82         8.0410   -1.4820    4.1670 h1        1 TFC      0.069700
     34 H91         9.9220   -1.8040    7.4070 h1        1 TFC      0.113700
     35 H92        10.1270   -1.5440    5.6200 h1        1 TFC      0.113700
@<TRIPOS>BOND
     1    1    2 1   
     2    1   17 1   
     3    1   18 1   
     4    1   19 1   
     5    2    3 1   
     6    2   20 1   
     7    2   21 1   
     8    3    4 1   
     9    3   22 1   
    10    3   23 1   
    11    4    5 1   
    12    4   24 1   
    13    4   25 1   
    14    5    6 1   
    15    5   26 1   
    16    5   27 1   
    17    6    7 1   
    18    6   28 1   
    19    6   29 1   
    20    7    8 1   
    21    7   30 1   
    22    7   31 1   
    23    8    9 1   
    24    8   32 1   
    25    8   33 1   
    26    9   10 1   
    27   10   11 1   
    28   10   34 1   
    29   10   35 1   
    30   11   12 2   
    31   11   13 1   
    32   13   14 1   
    33   13   15 1   
    34   13   16 1   
@<TRIPOS>SUBSTRUCTURE
     1 TFC         1 TEMP              0 ****  ****    0 ROOT
