@<TRIPOS>MOLECULE
TFC
   35    34     1     0     0
SMALL
bcc


@<TRIPOS>ATOM
      1 C1          0.0330   -0.0000   -0.0030 c3        1 TFC     -0.093100
      2 C2          1.5400    0.0000    0.0230 c3        1 TFC     -0.080400
      3 C3          2.0710    0.0000    1.4400 c3        1 TFC     -0.079400
      4 C4          3.5850    0.0010    1.4600 c3        1 TFC     -0.079400
      5 C5          4.1140    0.0010    2.8780 c3        1 TFC     -0.079400
      6 C6          5.6280    0.0010    2.8980 c3        1 TFC     -0.076400
      7 C7          6.1540    0.0010    4.3190 c3        1 TFC     -0.071400
      8 C8          7.6620    0.0020    4.3330 c3        1 TFC     -0.026300
      9 S1          8.1570    0.0020    6.0320 ss        1 TFC     -0.231200
     10 C9          9.9110    0.0020    5.8440 c3        1 TFC     -0.135300
     11 C10        10.6360    0.0020    7.1410 c         1 TFC      0.553100
     12 O1         10.1760    0.0020    8.2720 o         1 TFC     -0.436100
     13 C11        12.2030    0.0030    6.9740 c3        1 TFC      0.523900
     14 F1         12.8030   -1.0870    7.5460 f         1 TFC     -0.226967
     15 F2         12.6360    0.0030    5.6740 f         1 TFC     -0.226967
     16 F3         12.8020    1.0940    7.5450 f         1 TFC     -0.226967
     17 H11        -0.3380   -0.0000   -1.0560 hc        1 TFC      0.032700
     18 H12        -0.3700   -0.9050    0.5130 hc        1 TFC      0.032700
     19 H13        -0.3700    0.9050    0.5130 hc        1 TFC      0.032700
     20 H21         1.9250    0.9030   -0.5210 hc        1 TFC      0.038700
     21 H22         1.9260   -0.9020   -0.5210 hc        1 TFC      0.038700
     22 H31         1.6880   -0.9020    1.9850 hc        1 TFC      0.040200
     23 H32         1.6870    0.9030    1.9850 hc        1 TFC      0.040200
     24 H41         3.9690   -0.9020    0.9150 hc        1 TFC      0.040200
     25 H42         3.9680    0.9040    0.9160 hc        1 TFC      0.040200
     26 H51         3.7310   -0.9020    3.4230 hc        1 TFC      0.042200
     27 H52         3.7310    0.9030    3.4240 hc        1 TFC      0.042200
     28 H61         6.0110    0.9050    2.3540 hc        1 TFC      0.043200
     29 H62         6.0120   -0.9020    2.3540 hc        1 TFC      0.043200
     30 H71         5.7690   -0.9030    4.8610 hc        1 TFC      0.057700
     31 H72         5.7690    0.9060    4.8610 hc        1 TFC      0.057700
     32 H81         8.0600    0.9040    3.8080 h1        1 TFC      0.068700
     33 H82         8.0610   -0.9000    3.8080 h1        1 TFC      0.068700
     34 H91        10.2390   -0.8990    5.2590 h1        1 TFC      0.114700
     35 H92        10.2380    0.9040    5.2590 h1        1 TFC      0.114700
@<TRIPOS>BOND
     1    1    2 1   
     2    1   17 1   
     3    1   18 1   
     4    1   19 1   
     5    2    3 1   
     6    2   20 1   
     7    2   21 1   
     8    3    4 1   
     9    3   22 1   
    10    3   23 1   
    11    4    5 1   
    12    4   24 1   
    13    4   25 1   
    14    5    6 1   
    15    5   26 1   
    16    5   27 1   
    17    6    7 1   
    18    6   28 1   
    19    6   29 1   
    20    7    8 1   
    21    7   30 1   
    22    7   31 1   
    23    8    9 1   
    24    8   32 1   
    25    8   33 1   
    26    9   10 1   
    27   10   11 1   
    28   10   34 1   
    29   10   35 1   
    30   11   12 2   
    31   11   13 1   
    32   13   14 1   
    33   13   15 1   
    34   13   16 1   
@<TRIPOS>SUBSTRUCTURE
     1 TFC         1 TEMP              0 ****  ****    0 ROOT
