@<TRIPOS>MOLECULE
TFD
   44    36     1     0     0
SMALL
bcc


@<TRIPOS>ATOM
      1 F1         -4.4210   -1.5870    6.4400 f         1 TFD     -0.158667
      2 C18        -3.1950   -1.4800    5.9070 c3        1 TFD      0.477000
      3 F2         -2.8970   -0.1870    5.7290 f         1 TFD     -0.158667
      4 F3         -2.2980   -2.0350    6.7340 f         1 TFD     -0.158667
      5 C14        -3.1600   -2.1980    4.5640 c1        1 TFD     -0.053000
      6 N6         -2.8610   -1.4970    3.4230 n1        1 TFD     -0.162000
      7 C15        -3.5630   -3.5300    4.4770 c1        1 TFD     -0.128250
      8 C16        -3.6600   -4.1370    3.2530 c1        1 TFD     -0.128250
      9 C17        -3.3600   -3.4330    2.1120 c1        1 TFD     -0.202000
     10 C13        -2.9570   -2.1030    2.2010 c1        1 TFD      0.113000
     11 N5         -2.7140   -1.3370    0.9900 n3        1 TFD     -0.263000
     12 C11        -1.7610   -0.2430    1.0040 c3        1 TFD     -0.060000
     13 C10        -1.0980   -0.1270   -0.3650 c3        1 TFD     -0.071000
     14 N4         -0.9900    1.2720   -0.7340 n3        1 TFD     -0.279000
     15 C7          0.0770    1.7110   -1.6210 c1        1 TFD      0.170000
     16 C8         -0.1020    2.8130   -2.4170 c1        1 TFD     -0.088000
     17 CL         -1.6300    3.6520   -2.4140 cl        1 TFD      0.007000
     18 N3          1.2560    1.0640   -1.6260 n1        1 TFD     -0.201000
     19 C6          2.2780    1.5070   -2.4290 c1        1 TFD      0.111000
     20 N2          2.0990    2.6050   -3.2210 n1        1 TFD     -0.192000
     21 C9          0.9190    3.2540   -3.2170 c1        1 TFD     -0.088000
     22 C12         0.6770    4.3860   -4.1940 c2        1 TFD     -0.182000
     23 C5          3.6430    0.7890   -2.4060 c2        1 TFD      0.037000
     24 N1          3.7760   -0.4470   -2.9800 n2        1 TFD     -0.107000
     25 C1          4.9750   -1.0930   -2.9390 c1        1 TFD     -0.075000
     26 C2          6.0660   -0.4970   -2.3140 c1        1 TFD     -0.128250
     27 C3          5.9360    0.7350   -1.7420 c1        1 TFD     -0.128250
     28 C4          4.7300    1.3840   -1.7830 c1        1 TFD     -0.142000
     29 H1         -3.7760   -4.0290    5.2880 ha        1 TFD      0.149500
     30 H2         -3.9440   -5.0740    3.1910 ha        1 TFD      0.149500
     31 H3         -3.4290   -3.8660    1.2390 ha        1 TFD      0.150000
     32 H4         -3.1100   -1.5860    0.2070 hn        1 TFD      0.204000
     33 H5         -2.2250    0.5910    1.2120 h1        1 TFD      0.113500
     34 H6         -1.0790   -0.4130    1.6820 h1        1 TFD      0.113500
     35 H7         -0.2080   -0.5230   -0.3290 h1        1 TFD      0.102500
     36 H8         -1.6380   -0.5980   -1.0280 h1        1 TFD      0.102500
     37 H9         -1.5710    1.8910   -0.3710 hn        1 TFD      0.226000
     38 H10         1.5150    4.6110   -4.6460 ha        1 TFD      0.104000
     39 H11         0.3460    5.1690   -3.7100 ha        1 TFD      0.104000
     40 H12         0.0120    4.1070   -4.8580 ha        1 TFD      0.104000
     41 H13         5.0690   -1.9850   -3.3540 ha        1 TFD      0.161000
     42 H14         6.9320   -0.9640   -2.2850 ha        1 TFD      0.149500
     43 H15         6.7060    1.1570   -1.3000 ha        1 TFD      0.149500
     44 H16         4.6340    2.2730   -1.3710 ha        1 TFD      0.155000
@<TRIPOS>BOND
     1    1    2 1   
     2    2    3 1   
     3    2    4 1   
     4    2    5 1   
     5    5    6 1   
     6    7    8 1   
     7    7   29 1   
     8    8   30 1   
     9    9   10 1   
    10    9   31 1   
    11   10   11 1   
    12   11   12 1   
    13   11   32 1   
    14   12   13 1   
    15   12   33 1   
    16   12   34 1   
    17   13   14 1   
    18   13   35 1   
    19   13   36 1   
    20   14   15 1   
    21   14   37 1   
    22   15   18 1   
    23   16   21 1   
    24   19   20 1   
    25   19   23 1   
    26   22   38 1   
    27   22   39 1   
    28   22   40 1   
    29   23   24 1   
    30   23   28 1   
    31   24   25 1   
    32   25   41 1   
    33   26   27 1   
    34   26   42 1   
    35   27   43 1   
    36   28   44 1   
@<TRIPOS>SUBSTRUCTURE
     1 TFD         1 TEMP              0 ****  ****    0 ROOT
