@<TRIPOS>MOLECULE
TFD
   46    48     1     0     0
SMALL
bcc


@<TRIPOS>ATOM
      1 F1          3.1670    0.8930   -3.9890 f         1 TFD     -0.198967
      2 C18         2.7120    0.4010   -2.7960 c3        1 TFD      0.610600
      3 F2          1.5570   -0.2720   -3.0810 f         1 TFD     -0.198967
      4 F3          3.6180   -0.5450   -2.4090 f         1 TFD     -0.198967
      5 C14         2.5120    1.5170   -1.7260 ca        1 TFD      0.361600
      6 N6          1.6500    2.4980   -2.0390 nb        1 TFD     -0.631000
      7 C15         3.2210    1.4630   -0.5040 ca        1 TFD     -0.124300
      8 C16         3.0230    2.4860    0.4240 ca        1 TFD     -0.059000
      9 C17         2.1360    3.5300    0.1320 ca        1 TFD     -0.169300
     10 C13         1.4730    3.4810   -1.1140 ca        1 TFD      0.427200
     11 N5          0.4790    4.5390   -1.4480 n4        1 TFD     -0.731700
     12 C11         0.6080    5.0240   -2.8540 c3        1 TFD      0.077800
     13 C10        -0.3330    6.2130   -3.1350 c3        1 TFD      0.078800
     14 N4         -0.3560    6.5760   -4.5810 n4        1 TFD     -0.743700
     15 C7         -1.1650    7.8050   -4.8320 ca        1 TFD      0.484200
     16 C8         -0.6630    8.8090   -5.6830 ca        1 TFD     -0.230200
     17 CL          0.8440    8.6970   -6.4140 cl        1 TFD      0.008600
     18 N3         -2.3760    7.8650   -4.2210 nb        1 TFD     -0.694000
     19 C6         -3.1160    8.9920   -4.4550 cp        1 TFD      0.698000
     20 N2         -2.7250   10.0220   -5.2790 nb        1 TFD     -0.636000
     21 C9         -1.5310    9.9420   -5.8890 ca        1 TFD      0.534600
     22 C12        -1.0770   11.0400   -6.7920 c3        1 TFD     -0.182400
     23 C5         -4.4350    9.1180   -3.7600 cp        1 TFD      0.295300
     24 N1         -4.5210    8.6460   -2.4840 nb        1 TFD     -0.656000
     25 C1         -5.6990    8.7860   -1.8630 ca        1 TFD      0.397200
     26 C2         -6.8360    9.3800   -2.4580 ca        1 TFD     -0.184300
     27 C3         -6.7310    9.8510   -3.7620 ca        1 TFD     -0.091000
     28 C4         -5.5080    9.7260   -4.4370 ca        1 TFD     -0.163300
     29 H1          3.9140    0.6240   -0.2990 ha        1 TFD      0.218000
     30 H2          3.5620    2.4780    1.3910 ha        1 TFD      0.205000
     31 H3          1.9760    4.3390    0.8630 ha        1 TFD      0.181000
     32 H4         -0.4650    4.1460   -1.3030 hn        1 TFD      0.472300
     33 H5          0.3700    4.1580   -3.5450 hx        1 TFD      0.138700
     34 H6          1.6860    5.3200   -3.0180 hx        1 TFD      0.138700
     35 H7         -1.3940    5.9660   -2.8200 hx        1 TFD      0.142200
     36 H8         -0.0020    7.1280   -2.5580 hx        1 TFD      0.142200
     37 H9          0.6020    6.7530   -4.9240 hn        1 TFD      0.474800
     38 H10        -1.8330   11.8630   -6.8680 hc        1 TFD      0.099033
     39 H11        -0.1190   11.4720   -6.4040 hc        1 TFD      0.099033
     40 H12        -0.8970   10.6270   -7.8190 hc        1 TFD      0.099033
     41 H13        -5.7420    8.4070   -0.8240 h4        1 TFD      0.041100
     42 H14        -7.7760    9.4640   -1.8910 ha        1 TFD      0.175000
     43 H15        -7.5910   10.3230   -4.2640 ha        1 TFD      0.173000
     44 H16        -5.4040   10.1000   -5.4670 ha        1 TFD      0.170000
     45 H52         0.6180    5.3190   -0.7910 hn        1 TFD      0.472300
     46 H42        -0.7690    5.8050   -5.1290 hn        1 TFD      0.474800
@<TRIPOS>BOND
     1    1    2 1   
     2    2    3 1   
     3    2    4 1   
     4    2    5 1   
     5    5    6 ar  
     6    5    7 ar  
     7    6   10 ar  
     8    7    8 ar  
     9    7   29 1   
    10    8    9 ar  
    11    8   30 1   
    12    9   10 ar  
    13    9   31 1   
    14   10   11 1   
    15   11   12 1   
    16   11   32 1   
    17   11   45 1   
    18   12   13 1   
    19   12   33 1   
    20   12   34 1   
    21   13   14 1   
    22   13   35 1   
    23   13   36 1   
    24   14   15 1   
    25   14   37 1   
    26   14   46 1   
    27   15   16 ar  
    28   15   18 ar  
    29   16   17 1   
    30   16   21 ar  
    31   18   19 ar  
    32   19   20 ar  
    33   19   23 1   
    34   20   21 ar  
    35   21   22 1   
    36   22   38 1   
    37   22   39 1   
    38   22   40 1   
    39   23   24 ar  
    40   23   28 ar  
    41   24   25 ar  
    42   25   26 ar  
    43   25   41 1   
    44   26   27 ar  
    45   26   42 1   
    46   27   28 ar  
    47   27   43 1   
    48   28   44 1   
@<TRIPOS>SUBSTRUCTURE
     1 TFD         1 TEMP              0 ****  ****    0 ROOT
