@<TRIPOS>MOLECULE
TFD
   44    46     1     0     0
SMALL
bcc


@<TRIPOS>ATOM
      1 F1          0.4320   -0.4800   -0.2210 f         1 TFD     -0.229300
      2 C18         1.1310    0.5000    0.4340 c3        1 TFD      0.596600
      3 F2          0.2370    1.0420    1.3210 f         1 TFD     -0.229300
      4 F3          2.0200   -0.1860    1.2240 f         1 TFD     -0.229300
      5 C14         1.7980    1.5340   -0.5000 ca        1 TFD      0.370600
      6 N6          0.9690    2.2340   -1.2970 nb        1 TFD     -0.685000
      7 C15         3.1920    1.6920   -0.4620 ca        1 TFD     -0.244300
      8 C16         3.7590    2.6410   -1.3170 ca        1 TFD     -0.066000
      9 C17         2.9460    3.3800   -2.1650 ca        1 TFD     -0.263300
     10 C13         1.5340    3.1510   -2.1470 ca        1 TFD      0.637200
     11 N5          0.6980    3.8060   -3.0710 nu        1 TFD     -0.830900
     12 C11         1.0470    5.1580   -3.4440 c3        1 TFD      0.175800
     13 C10        -0.1990    6.0120   -3.7780 c3        1 TFD      0.183800
     14 N4          0.1760    7.3390   -4.2050 nu        1 TFD     -0.838900
     15 C7         -0.8060    8.2650   -4.5540 ca        1 TFD      0.686200
     16 C8         -0.4310    9.4980   -5.1910 ca        1 TFD     -0.295200
     17 Cl          1.1760    9.7940   -5.6340 cl        1 TFD     -0.072400
     18 N3         -2.1200    8.0300   -4.2280 nb        1 TFD     -0.723000
     19 C6         -3.0060    9.0210   -4.5140 cp        1 TFD      0.639000
     20 N2         -2.7320   10.2270   -5.0950 nb        1 TFD     -0.714000
     21 C9         -1.4410   10.4570   -5.4340 ca        1 TFD      0.491600
     22 C12        -1.0840   11.7550   -6.0840 c3        1 TFD     -0.159400
     23 C5         -4.4430    8.7660   -4.1530 cp        1 TFD      0.362300
     24 N1         -5.0700    7.7140   -4.7330 nb        1 TFD     -0.633000
     25 C1         -6.3540    7.5070   -4.3890 ca        1 TFD      0.392200
     26 C2         -7.0600    8.3110   -3.4750 ca        1 TFD     -0.235300
     27 C3         -6.3980    9.3910   -2.8930 ca        1 TFD     -0.098000
     28 C4         -5.0650    9.6330   -3.2330 ca        1 TFD     -0.207300
     29 H1          3.8100    1.0900    0.2170 ha        1 TFD      0.165000
     30 H2          4.8490    2.7990   -1.3180 ha        1 TFD      0.147000
     31 H3          3.3820    4.1190   -2.8520 ha        1 TFD      0.150000
     32 H4         -0.2830    3.6530   -2.9340 hn        1 TFD      0.425800
     33 H5          1.7120    5.0880   -4.3540 h1        1 TFD      0.050700
     34 H6          1.6360    5.6720   -2.6300 h1        1 TFD      0.050700
     35 H7         -0.8430    6.1070   -2.8560 h1        1 TFD      0.067700
     36 H8         -0.8100    5.4890   -4.5710 h1        1 TFD      0.067700
     37 H9          1.0120    7.3940   -4.7500 hn        1 TFD      0.426800
     38 H10        -0.6390   11.5540   -7.0900 hc        1 TFD      0.066033
     39 H11        -0.3250   12.2860   -5.4560 hc        1 TFD      0.066033
     40 H12        -1.9730   12.4200   -6.2120 hc        1 TFD      0.066033
     41 H13        -6.8410    6.6440   -4.8790 h4        1 TFD      0.026100
     42 H14        -8.1070    8.0880   -3.2330 ha        1 TFD      0.146000
     43 H15        -6.9150   10.0470   -2.1770 ha        1 TFD      0.142000
     44 H16        -4.5130   10.4790   -2.8030 ha        1 TFD      0.154000
@<TRIPOS>BOND
     1    1    2 1   
     2    2    3 1   
     3    2    4 1   
     4    2    5 1   
     5    5    6 ar  
     6    5    7 ar  
     7    6   10 ar  
     8    7    8 ar  
     9    7   29 1   
    10    8    9 ar  
    11    8   30 1   
    12    9   10 ar  
    13    9   31 1   
    14   10   11 1   
    15   11   12 1   
    16   11   32 1   
    17   12   13 1   
    18   12   33 1   
    19   12   34 1   
    20   13   14 1   
    21   13   35 1   
    22   13   36 1   
    23   14   15 1   
    24   14   37 1   
    25   15   16 ar  
    26   15   18 ar  
    27   16   17 1   
    28   16   21 ar  
    29   18   19 ar  
    30   19   20 ar  
    31   19   23 1   
    32   20   21 ar  
    33   21   22 1   
    34   22   38 1   
    35   22   39 1   
    36   22   40 1   
    37   23   24 ar  
    38   23   28 ar  
    39   24   25 ar  
    40   25   26 ar  
    41   25   41 1   
    42   26   27 ar  
    43   26   42 1   
    44   27   28 ar  
    45   27   43 1   
    46   28   44 1   
@<TRIPOS>SUBSTRUCTURE
     1 TFD         1 TEMP              0 ****  ****    0 ROOT
