@<TRIPOS>MOLECULE
TFD
   44    46     1     0     0
SMALL
bcc


@<TRIPOS>ATOM
      1 F1          0.4090   -0.4810   -0.2070 f         1 TFD     -0.229300
      2 C18         1.1000    0.4990    0.4560 c3        1 TFD      0.596600
      3 F2          0.1980    1.0400    1.3350 f         1 TFD     -0.229300
      4 F3          1.9830   -0.1870    1.2530 f         1 TFD     -0.229300
      5 C14         1.7750    1.5350   -0.4720 ca        1 TFD      0.370600
      6 N6          0.9530    2.2350   -1.2750 nb        1 TFD     -0.685000
      7 C15         3.1680    1.6940   -0.4200 ca        1 TFD     -0.244300
      8 C16         3.7430    2.6440   -1.2690 ca        1 TFD     -0.066000
      9 C17         2.9370    3.3830   -2.1240 ca        1 TFD     -0.263300
     10 C13         1.5250    3.1540   -2.1190 ca        1 TFD      0.637200
     11 N5          0.6970    3.8080   -3.0500 nh        1 TFD     -0.830900
     12 C11         1.0500    5.1600   -3.4200 c3        1 TFD      0.175800
     13 C10        -0.1940    6.0130   -3.7680 c3        1 TFD      0.183800
     14 N4          0.1850    7.3400   -4.1910 nh        1 TFD     -0.838900
     15 C7         -0.7940    8.2660   -4.5520 ca        1 TFD      0.686200
     16 C8         -0.4130    9.4990   -5.1840 ca        1 TFD     -0.295200
     17 CL          1.1990    9.7960   -5.6080 cl        1 TFD     -0.072400
     18 N3         -2.1110    8.0290   -4.2400 nb        1 TFD     -0.723000
     19 C6         -2.9950    9.0190   -4.5370 cp        1 TFD      0.639000
     20 N2         -2.7160   10.2260   -5.1140 nb        1 TFD     -0.714000
     21 C9         -1.4200   10.4570   -5.4390 ca        1 TFD      0.491600
     22 C12        -1.0570   11.7560   -6.0840 c3        1 TFD     -0.159400
     23 C5         -4.4360    8.7630   -4.1920 cp        1 TFD      0.362300
     24 N1         -5.0550    7.7110   -4.7800 nb        1 TFD     -0.633000
     25 C1         -6.3430    7.5030   -4.4520 ca        1 TFD      0.392200
     26 C2         -7.0600    8.3060   -3.5450 ca        1 TFD     -0.235300
     27 C3         -6.4060    9.3860   -2.9540 ca        1 TFD     -0.098000
     28 C4         -5.0690    9.6290   -3.2790 ca        1 TFD     -0.207300
     29 H1          3.7810    1.0910    0.2640 ha        1 TFD      0.165000
     30 H2          4.8320    2.8030   -1.2600 ha        1 TFD      0.147000
     31 H3          3.3790    4.1230   -2.8060 ha        1 TFD      0.150000
     32 H4         -0.2850    3.6550   -2.9230 hn        1 TFD      0.425800
     33 H5          1.7240    5.0910   -4.3230 h1        1 TFD      0.050700
     34 H6          1.6290    5.6750   -2.6000 h1        1 TFD      0.050700
     35 H7         -0.8480    6.1080   -2.8540 h1        1 TFD      0.067700
     36 H8         -0.7950    5.4900   -4.5680 h1        1 TFD      0.067700
     37 H9          1.0270    7.3960   -4.7260 hn        1 TFD      0.426800
     38 H10        -1.9450   12.4200   -6.2210 hc        1 TFD      0.066033
     39 H11        -0.6010   11.5550   -7.0850 hc        1 TFD      0.066033
     40 H12        -0.3060   12.2870   -5.4470 hc        1 TFD      0.066033
     41 H13        -6.8230    6.6400   -4.9470 h4        1 TFD      0.026100
     42 H14        -8.1100    8.0820   -3.3160 ha        1 TFD      0.146000
     43 H15        -6.9310   10.0410   -2.2440 ha        1 TFD      0.142000
     44 H16        -4.5220   10.4760   -2.8420 ha        1 TFD      0.154000
@<TRIPOS>BOND
     1    1    2 1   
     2    2    3 1   
     3    2    4 1   
     4    2    5 1   
     5    5    6 ar  
     6    5    7 ar  
     7    6   10 ar  
     8    7    8 ar  
     9    7   29 1   
    10    8    9 ar  
    11    8   30 1   
    12    9   10 ar  
    13    9   31 1   
    14   10   11 1   
    15   11   12 1   
    16   11   32 1   
    17   12   13 1   
    18   12   33 1   
    19   12   34 1   
    20   13   14 1   
    21   13   35 1   
    22   13   36 1   
    23   14   15 1   
    24   14   37 1   
    25   15   16 ar  
    26   15   18 ar  
    27   16   17 1   
    28   16   21 ar  
    29   18   19 ar  
    30   19   20 ar  
    31   19   23 1   
    32   20   21 ar  
    33   21   22 1   
    34   22   38 1   
    35   22   39 1   
    36   22   40 1   
    37   23   24 ar  
    38   23   28 ar  
    39   24   25 ar  
    40   25   26 ar  
    41   25   41 1   
    42   26   27 ar  
    43   26   42 1   
    44   27   28 ar  
    45   27   43 1   
    46   28   44 1   
@<TRIPOS>SUBSTRUCTURE
     1 TFD         1 TEMP              0 ****  ****    0 ROOT
