@<TRIPOS>MOLECULE
TFD
   44    46     1     0     0
SMALL
bcc


@<TRIPOS>ATOM
      1 F1         -6.6410   -2.1570    0.5470 f         1 TFD     -0.229300
      2 C18        -6.4280   -1.3920   -0.5700 c3        1 TFD      0.596600
      3 F2         -5.9270   -2.2590   -1.5060 f         1 TFD     -0.229300
      4 F3         -7.6900   -1.0940   -1.0240 f         1 TFD     -0.229300
      5 C14        -5.5450   -0.1480   -0.3250 ca        1 TFD      0.370600
      6 N6         -4.2970   -0.3860    0.1210 nb        1 TFD     -0.685000
      7 C15        -6.0710    1.1270   -0.5840 ca        1 TFD     -0.244300
      8 C16        -5.2400    2.2280   -0.3570 ca        1 TFD     -0.066000
      9 C17        -3.9500    2.0340    0.1130 ca        1 TFD     -0.263300
     10 C13        -3.4930    0.7000    0.3590 ca        1 TFD      0.637200
     11 N5         -2.2300    0.4780    0.9390 nh        1 TFD     -0.830900
     12 C11        -1.1630    1.3830    0.5750 c3        1 TFD      0.175800
     13 C10         0.2200    0.6880    0.5840 c3        1 TFD      0.183800
     14 N4          1.2770    1.6230    0.2770 nh        1 TFD     -0.838900
     15 C7          2.6020    1.1910    0.2370 ca        1 TFD      0.686200
     16 C8          3.6650    2.1550    0.1570 ca        1 TFD     -0.295200
     17 CL          3.3400    3.8150    0.2310 cl        1 TFD     -0.072400
     18 N3          2.8870   -0.1530    0.2030 nb        1 TFD     -0.723000
     19 C6          4.1960   -0.4950    0.0670 cp        1 TFD      0.639000
     20 N2          5.2610    0.3530   -0.0380 nb        1 TFD     -0.714000
     21 C9          4.9880    1.6800    0.0110 ca        1 TFD      0.491600
     22 C12         6.1160    2.6550   -0.0880 c3        1 TFD     -0.159400
     23 C5          4.5080   -1.9650    0.0250 cp        1 TFD      0.362300
     24 N1          4.1780   -2.7180    1.1030 nb        1 TFD     -0.633000
     25 C1          4.4650   -4.0300    1.0380 ca        1 TFD      0.392200
     26 C2          5.0760   -4.6460   -0.0720 ca        1 TFD     -0.235300
     27 C3          5.4110   -3.8520   -1.1680 ca        1 TFD     -0.098000
     28 C4          5.1280   -2.4850   -1.1280 ca        1 TFD     -0.207300
     29 H1         -7.0990    1.2490   -0.9530 ha        1 TFD      0.165000
     30 H2         -5.6130    3.2460   -0.5490 ha        1 TFD      0.147000
     31 H3         -3.2920    2.8920    0.3090 ha        1 TFD      0.150000
     32 H4         -1.9560   -0.4830    1.0000 hn        1 TFD      0.425800
     33 H5         -1.3360    1.8390   -0.4430 h1        1 TFD      0.050700
     34 H6         -1.1680    2.2220    1.3310 h1        1 TFD      0.050700
     35 H7          0.3890    0.2030    1.5900 h1        1 TFD      0.067700
     36 H8          0.2320   -0.1270   -0.1960 h1        1 TFD      0.067700
     37 H9          1.1510    2.5460    0.6370 hn        1 TFD      0.426800
     38 H10         6.1440    3.2820    0.8390 hc        1 TFD      0.066033
     39 H11         7.1040    2.1460   -0.2040 hc        1 TFD      0.066033
     40 H12         5.9500    3.3240   -0.9690 hc        1 TFD      0.066033
     41 H13         4.1880   -4.6200    1.9310 h4        1 TFD      0.026100
     42 H14         5.2820   -5.7240   -0.0650 ha        1 TFD      0.146000
     43 H15         5.8940   -4.2920   -2.0530 ha        1 TFD      0.142000
     44 H16         5.3860   -1.8260   -1.9680 ha        1 TFD      0.154000
@<TRIPOS>BOND
     1    1    2 1   
     2    2    3 1   
     3    2    4 1   
     4    2    5 1   
     5    5    6 ar  
     6    5    7 ar  
     7    6   10 ar  
     8    7    8 ar  
     9    7   29 1   
    10    8    9 ar  
    11    8   30 1   
    12    9   10 ar  
    13    9   31 1   
    14   10   11 1   
    15   11   12 1   
    16   11   32 1   
    17   12   13 1   
    18   12   33 1   
    19   12   34 1   
    20   13   14 1   
    21   13   35 1   
    22   13   36 1   
    23   14   15 1   
    24   14   37 1   
    25   15   16 ar  
    26   15   18 ar  
    27   16   17 1   
    28   16   21 ar  
    29   18   19 ar  
    30   19   20 ar  
    31   19   23 1   
    32   20   21 ar  
    33   21   22 1   
    34   22   38 1   
    35   22   39 1   
    36   22   40 1   
    37   23   24 ar  
    38   23   28 ar  
    39   24   25 ar  
    40   25   26 ar  
    41   25   41 1   
    42   26   27 ar  
    43   26   42 1   
    44   27   28 ar  
    45   27   43 1   
    46   28   44 1   
@<TRIPOS>SUBSTRUCTURE
     1 TFD         1 TEMP              0 ****  ****    0 ROOT
