@<TRIPOS>MOLECULE
TFE
   41    42     1     0     0
SMALL
bcc


@<TRIPOS>ATOM
      1 P           3.9460   -0.7860   -3.4880 p5        1 TFE      1.429800
      2 OP1         5.3250   -1.2100   -3.8100 o         1 TFE     -0.843000
      3 OP2         3.4520   -0.0710   -4.8740 oh        1 TFE     -0.780400
      4 O5'         4.0450    0.5700   -2.5520 os        1 TFE     -0.584200
      5 C5'         2.8540    1.0760   -2.0310 c3        1 TFE      0.183400
      6 C4'         2.8400    0.9220   -0.5010 c3        1 TFE      0.090100
      7 O4'         2.2820    2.0960    0.1060 os        1 TFE     -0.432600
      8 C1'         1.0140    1.8210    0.7430 c3        1 TFE      0.334500
      9 N1         -0.0290    2.7150    0.2830 n         1 TFE     -0.323400
     10 C6         -0.8970    2.3240   -0.7090 c1        1 TFE     -0.090900
     11 C2         -0.0890    4.0050    0.8750 c         1 TFE      0.724100
     12 O2          0.6520    4.3780    1.8270 o         1 TFE     -0.705100
     13 N3         -1.0610    4.8920    0.3930 n         1 TFE     -0.595500
     14 C4         -1.9780    4.5460   -0.6320 c         1 TFE      0.677300
     15 O4         -2.7940    5.4440   -0.9640 o         1 TFE     -0.719100
     16 C5         -1.8670    3.2040   -1.1590 ce        1 TFE     -0.494500
     17 C5M        -2.8210    2.7980   -2.2060 c3        1 TFE      0.043100
     18 C2'         0.7050    0.3150    0.4920 c3        1 TFE      0.071100
     19 O2'         0.3560   -0.2260    1.7750 os        1 TFE     -0.413600
     20 CB'        -0.1490   -1.5440    1.6630 c3        1 TFE      0.111400
     21 CC'        -0.5350   -1.9910    3.1060 c3        1 TFE      0.622900
     22 FD'         0.4760   -1.9300    4.0280 f         1 TFE     -0.250300
     23 FE'        -0.9530   -3.3020    3.1540 f         1 TFE     -0.250300
     24 FF'        -1.5690   -1.2960    3.6760 f         1 TFE     -0.250300
     25 C3'         2.0250   -0.2930   -0.0250 c3        1 TFE      0.073100
     26 O3'         2.6900   -1.0100    0.9990 oh        1 TFE     -0.600800
     27 OP3         2.8590   -1.6220   -2.9380 o         1 TFE     -0.843000
     28 H5'         2.8080    2.1760   -2.2690 h1        1 TFE      0.046700
     29 H5''        1.9710    0.5540   -2.4910 h1        1 TFE      0.046700
     30 H4'         3.8980    0.8650   -0.1230 h1        1 TFE      0.072700
     31 H1'         1.1910    2.0210    1.8440 h2        1 TFE      0.080700
     32 H6          4.1890    0.1900   -5.4130 ho        1 TFE      0.419000
     33 HN3        -1.0900    5.7990    0.7950 hn        1 TFE      0.301500
     34 H71        -2.5230    1.8150   -2.6460 hc        1 TFE      0.002033
     35 H72        -2.8610    3.5610   -3.0240 hc        1 TFE      0.002033
     36 H73        -3.8560    2.7000   -1.7900 hc        1 TFE      0.002033
     37 H2'        -0.1350    0.1810   -0.2440 h1        1 TFE      0.134700
     38 HB'1        0.6440   -2.2340    1.2710 h1        1 TFE      0.080200
     39 HB'2       -1.0700   -1.5690    1.0260 h1        1 TFE      0.080200
     40 H3'         1.8740   -1.0460   -0.8520 h1        1 TFE      0.154700
     41 HO3'        2.7810   -0.4090    1.7490 ho        1 TFE      0.394000
@<TRIPOS>BOND
     1    1    2 1   
     2    1    3 1   
     3    1    4 1   
     4    1   27 1   
     5    3   32 1   
     6    4    5 1   
     7    5    6 1   
     8    5   28 1   
     9    5   29 1   
    10    6    7 1   
    11    6   25 1   
    12    6   30 1   
    13    7    8 1   
    14    8    9 1   
    15    8   18 1   
    16    8   31 1   
    17    9   10 2   
    18    9   11 1   
    19   10   16 2   
    20   11   12 2   
    21   11   13 1   
    22   13   14 1   
    23   13   33 1   
    24   14   15 2   
    25   14   16 1   
    26   16   17 1   
    27   17   34 1   
    28   17   35 1   
    29   17   36 1   
    30   18   19 1   
    31   18   25 1   
    32   18   37 1   
    33   19   20 1   
    34   20   21 1   
    35   20   38 1   
    36   20   39 1   
    37   21   22 1   
    38   21   23 1   
    39   21   24 1   
    40   25   26 1   
    41   25   40 1   
    42   26   41 1   
@<TRIPOS>SUBSTRUCTURE
     1 TFE         1 TEMP              0 ****  ****    0 ROOT
