@<TRIPOS>MOLECULE
TFF
   47    47     1     0     0
SMALL
bcc


@<TRIPOS>ATOM
      1 N1         -6.0500   -0.6750    0.5200 n         1 TFF     -0.265000
      2 C2         -7.4290   -0.8550    0.7550 c2        1 TFF      0.393000
      3 O2         -7.9060   -1.9110    1.2390 o         1 TFF     -0.407000
      4 N3         -8.3080    0.1860    0.4040 n         1 TFF     -0.375000
      5 C4         -7.8740    1.4090   -0.1400 c2        1 TFF      0.360000
      6 O4         -8.7430    2.2650   -0.4070 o         1 TFF     -0.391000
      7 C5         -6.4290    1.5520   -0.3370 c2        1 TFF     -0.273000
      8 C6         -5.5940    0.5260    0.0110 c2        1 TFF      0.077000
      9 PA          0.0050    0.3820   -0.3040 p5        1 TFF      2.011000
     10 PB          3.3970    0.1610   -0.5400 p5        1 TFF      2.909000
     11 PG          6.8670   -0.4270    0.7160 p3        1 TFF      2.496000
     12 C1'        -5.1020   -1.7300    0.9460 c3        1 TFF      0.154000
     13 F1A         1.8460    1.5500    0.9600 f         1 TFF     -0.191500
     14 O1A        -0.4910    1.6880   -0.7790 o         1 TFF     -0.862000
     15 F1B         5.3110    1.6140    0.4410 f         1 TFF     -0.152500
     16 O1B         3.2960    0.7870   -1.8590 o         1 TFF     -1.165000
     17 O1G         7.3030   -0.1170    2.0970 o         1 TFF     -1.171333
     18 C2'        -4.4230   -2.4500   -0.2350 c3        1 TFF     -0.209000
     19 F2A         1.7380   -0.6080    1.2520 f         1 TFF     -0.191500
     20 O2A        -0.4450   -0.8490   -1.0040 o         1 TFF     -0.862000
     21 F2B         4.5850    0.0050    1.7410 f         1 TFF     -0.152500
     22 O2B         3.3790   -1.4390   -0.6830 oh        1 TFF     -0.838000
     23 O2G         6.2680   -1.7560    0.4230 o         1 TFF     -1.171333
     24 C3'        -2.9770   -1.9320   -0.2450 c3        1 TFF      0.041000
     25 O3'        -2.1160   -3.0390   -0.3720 oh        1 TFF     -0.371000
     26 C3A         1.6760    0.3630    0.2660 c3        1 TFF     -0.952000
     27 C3B         4.5120    0.5140    0.4780 c2        1 TFF     -1.146000
     28 O3G         7.5870    0.2570   -0.3830 o         1 TFF     -1.171333
     29 C4'        -2.7910   -1.2260    1.1140 c3        1 TFF     -0.057000
     30 O4'        -4.0880   -1.1620    1.7620 os        1 TFF     -0.287000
     31 C5'        -2.2100    0.2000    1.0200 c3        1 TFF      0.062000
     32 O5'        -0.8380    0.1800    1.1530 os        1 TFF     -0.714000
     33 C5M        -5.9300    2.8200   -0.9030 c3        1 TFF     -0.146000
     34 HN3        -9.2770    0.0370    0.5760 hn        1 TFF      0.244000
     35 H6         -4.4870    0.5980   -0.0980 h4        1 TFF      0.214000
     36 H1'        -5.6870   -2.4380    1.6050 h2        1 TFF      0.133000
     37 H2'        -4.4340   -3.5510   -0.0420 hc        1 TFF      0.101000
     38 H2'A       -4.9240   -2.2600   -1.2110 hc        1 TFF      0.101000
     39 H3'        -2.8080   -1.2170   -1.0970 h1        1 TFF      0.128000
     40 HO3'       -1.2380   -2.6760   -0.6140 ho        1 TFF      0.293000
     41 H4'        -2.1440   -1.8450    1.7940 h1        1 TFF      0.138000
     42 H5'        -2.5020    0.6780    0.0410 h1        1 TFF      0.053000
     43 H5'A       -2.6470    0.8020    1.8680 h1        1 TFF      0.053000
     44 H5M        -6.3250    2.9590   -1.9410 hc        1 TFF      0.087333
     45 H5MA       -6.2820    3.6820   -0.2830 hc        1 TFF      0.087333
     46 H5MB       -4.8120    2.8320   -0.9390 hc        1 TFF      0.087333
     47 H14         4.1010   -1.8990   -0.2440 ho        1 TFF      0.298000
@<TRIPOS>BOND
     1    1    2 1   
     2    1    8 1   
     3    1   12 1   
     4    2    3 1   
     5    2    4 1   
     6    4    5 1   
     7    4   34 1   
     8    5    6 1   
     9    5    7 1   
    10    7    8 1   
    11    7   33 1   
    12    8   35 1   
    13    9   14 1   
    14    9   20 1   
    15    9   26 1   
    16    9   32 1   
    17   10   16 1   
    18   10   22 1   
    19   10   26 1   
    20   10   27 1   
    21   11   17 1   
    22   11   23 1   
    23   11   28 1   
    24   12   18 1   
    25   12   30 1   
    26   12   36 1   
    27   13   26 1   
    28   15   27 1   
    29   18   24 1   
    30   18   37 1   
    31   18   38 1   
    32   19   26 1   
    33   21   27 1   
    34   22   47 1   
    35   24   25 1   
    36   24   29 1   
    37   24   39 1   
    38   25   40 1   
    39   29   30 1   
    40   29   31 1   
    41   29   41 1   
    42   31   32 1   
    43   31   42 1   
    44   31   43 1   
    45   33   44 1   
    46   33   45 1   
    47   33   46 1   
@<TRIPOS>SUBSTRUCTURE
     1 TFF         1 TEMP              0 ****  ****    0 ROOT
