@<TRIPOS>MOLECULE
TFG
   45    48     1     0     0
SMALL
bcc


@<TRIPOS>ATOM
      1 C14        -0.4340   -0.3650    0.0140 ca        1 TFG     -0.120500
      2 C15         0.9180   -0.5730   -0.2440 ca        1 TFG     -0.127000
      3 C16         1.8440   -0.5550    0.8000 ca        1 TFG     -0.126000
      4 C17         1.4110   -0.3320    2.1060 ca        1 TFG     -0.127000
      5 C18         0.0580   -0.1250    2.3720 ca        1 TFG     -0.120500
      6 C13        -0.8770   -0.1370    1.3280 ca        1 TFG     -0.009000
      7 C19        -2.2930    0.0530    1.5610 cc        1 TFG     -0.153600
      8 C12        -3.3790   -0.5420    0.8680 cd        1 TFG      0.309200
      9 N3         -4.5910   -0.0960    1.3730 nd        1 TFG     -0.652000
     10 C11        -4.2740    0.7720    2.3690 cc        1 TFG      0.359800
     11 C10        -5.2360    1.5770    3.2040 c3        1 TFG      0.061700
     12 N2         -2.8790    0.8870    2.5220 na        1 TFG     -0.182900
     13 C9         -2.2800    1.7440    3.5030 c3        1 TFG      0.009300
     14 C8         -3.2900    2.7910    4.0370 c3        1 TFG      0.065000
     15 N1         -4.6060    2.2570    4.3190 n         1 TFG     -0.451800
     16 C7         -4.9400    1.9590    5.6450 c         1 TFG      0.700700
     17 O1         -4.1430    2.2300    6.5660 o         1 TFG     -0.589100
     18 C4         -6.2790    1.4170    5.9390 cc        1 TFG     -0.196700
     19 S1         -6.5480    0.2360    7.0810 ss        1 TFG      0.217200
     20 C3         -7.4680    1.8720    5.3780 cd        1 TFG     -0.131000
     21 C2         -8.5900    1.2020    5.9310 cd        1 TFG     -0.094000
     22 C1         -8.2040    0.2630    6.8840 cc        1 TFG     -0.214400
     23 C5         -9.1770   -0.5820    7.6220 c3        1 TFG      0.416900
     24 C6         -9.2920   -2.0610    7.0290 c3        1 TFG      0.614900
     25 F1         -9.4120   -2.1080    5.6680 f         1 TFG     -0.224633
     26 F2         -8.2380   -2.8750    7.3340 f         1 TFG     -0.224633
     27 F3        -10.4050   -2.7070    7.5040 f         1 TFG     -0.224633
     28 O3        -10.4450    0.0290    7.5970 oh        1 TFG     -0.605300
     29 O2         -8.8870   -0.7780    8.9860 oh        1 TFG     -0.605300
     30 H14        -1.1640   -0.3770   -0.8090 ha        1 TFG      0.135500
     31 H15         1.2560   -0.7510   -1.2760 ha        1 TFG      0.134500
     32 H16         2.9110   -0.7180    0.5930 ha        1 TFG      0.134000
     33 H17         2.1370   -0.3240    2.9330 ha        1 TFG      0.134500
     34 H18        -0.2720    0.0310    3.4100 ha        1 TFG      0.135500
     35 H12        -3.3300   -1.2630    0.0520 h4        1 TFG      0.046100
     36 H101       -5.6950    2.3640    2.5350 h1        1 TFG      0.085200
     37 H102       -6.0580    0.8920    3.5610 h1        1 TFG      0.085200
     38 H9C1       -1.4000    2.2820    3.0510 h1        1 TFG      0.070700
     39 H9C2       -1.9080    1.1160    4.3640 h1        1 TFG      0.070700
     40 H8C1       -3.4180    3.6030    3.2660 h1        1 TFG      0.083200
     41 H8C2       -2.8520    3.2440    4.9710 h1        1 TFG      0.083200
     42 H3         -7.5430    2.6510    4.6150 ha        1 TFG      0.169000
     43 H2         -9.6280    1.4010    5.6500 ha        1 TFG      0.180000
     44 HA        -11.0520   -0.5340    8.1030 ho        1 TFG      0.440000
     45 HB         -8.7990    0.0930    9.3970 ho        1 TFG      0.440000
@<TRIPOS>BOND
     1    1    2 ar  
     2    1    6 ar  
     3    1   30 1   
     4    2    3 ar  
     5    2   31 1   
     6    3    4 ar  
     7    3   32 1   
     8    4    5 ar  
     9    4   33 1   
    10    5    6 ar  
    11    5   34 1   
    12    6    7 1   
    13    7    8 2   
    14    7   12 1   
    15    8    9 1   
    16    8   35 1   
    17    9   10 2   
    18   10   11 1   
    19   10   12 1   
    20   11   15 1   
    21   11   36 1   
    22   11   37 1   
    23   12   13 1   
    24   13   14 1   
    25   13   38 1   
    26   13   39 1   
    27   14   15 1   
    28   14   40 1   
    29   14   41 1   
    30   15   16 1   
    31   16   17 2   
    32   16   18 1   
    33   18   19 1   
    34   18   20 2   
    35   19   22 1   
    36   20   21 1   
    37   20   42 1   
    38   21   22 2   
    39   21   43 1   
    40   22   23 1   
    41   23   24 1   
    42   23   28 1   
    43   23   29 1   
    44   24   25 1   
    45   24   26 1   
    46   24   27 1   
    47   28   44 1   
    48   29   45 1   
@<TRIPOS>SUBSTRUCTURE
     1 TFG         1 TEMP              0 ****  ****    0 ROOT
