@<TRIPOS>MOLECULE
TFG
   45    48     1     0     0
SMALL
bcc


@<TRIPOS>ATOM
      1 C14        -0.4540   -0.3340   -0.0120 ca        1 TFG     -0.120500
      2 C15         0.8920   -0.5730   -0.2780 ca        1 TFG     -0.127000
      3 C16         1.8160   -0.6230    0.7660 ca        1 TFG     -0.126000
      4 C17         1.3880   -0.4360    2.0800 ca        1 TFG     -0.127000
      5 C18         0.0420   -0.1990    2.3540 ca        1 TFG     -0.120500
      6 C13        -0.8910   -0.1420    1.3100 ca        1 TFG     -0.009000
      7 C19        -2.3010    0.0810    1.5490 cc        1 TFG     -0.153600
      8 C12        -3.4040   -0.4540    0.8340 cd        1 TFG      0.309200
      9 N3         -4.6020    0.0090    1.3550 nd        1 TFG     -0.652000
     10 C11        -4.2610    0.8280    2.3830 cc        1 TFG      0.359800
     11 C10        -5.1990    1.6300    3.2480 c3        1 TFG      0.061700
     12 N2         -2.8630    0.8950    2.5410 na        1 TFG     -0.182900
     13 C9         -2.2400    1.6960    3.5540 c3        1 TFG      0.009300
     14 C8         -3.2180    2.7520    4.1270 c3        1 TFG      0.065000
     15 N1         -4.5510    2.2470    4.3880 n         1 TFG     -0.451800
     16 C7         -4.8950    1.9100    5.7020 c         1 TFG      0.700700
     17 O1         -4.0910    2.1210    6.6330 o         1 TFG     -0.589100
     18 C4         -6.2510    1.3990    5.9740 cc        1 TFG     -0.196700
     19 S1         -6.5570    0.1840    7.0710 ss        1 TFG      0.217200
     20 C3         -7.4250    1.9100    5.4300 cd        1 TFG     -0.131000
     21 C2         -8.5670    1.2540    5.9580 cd        1 TFG     -0.094000
     22 C1         -8.2120    0.2680    6.8750 cc        1 TFG     -0.214400
     23 C5         -9.2110   -0.5730    7.5800 c3        1 TFG      0.416900
     24 C6         -9.3710   -2.0240    6.9310 c3        1 TFG      0.614900
     25 F1         -9.4910   -2.0150    5.5690 f         1 TFG     -0.224633
     26 F2         -8.3430   -2.8810    7.2050 f         1 TFG     -0.224633
     27 F3        -10.5040   -2.6520    7.3820 f         1 TFG     -0.224633
     28 O3        -10.4590    0.0770    7.5790 oh        1 TFG     -0.605300
     29 O2         -8.9290   -0.8300    8.9360 oh        1 TFG     -0.605300
     30 H14        -1.1830   -0.2930   -0.8360 ha        1 TFG      0.135500
     31 H15         1.2250   -0.7220   -1.3150 ha        1 TFG      0.134500
     32 H16         2.8790   -0.8100    0.5530 ha        1 TFG      0.134000
     33 H17         2.1130   -0.4810    2.9060 ha        1 TFG      0.134500
     34 H18        -0.2850   -0.0720    3.3960 ha        1 TFG      0.135500
     35 H12        -3.3760   -1.1450   -0.0090 h4        1 TFG      0.046100
     36 H101       -6.0420    0.9570    3.5780 h1        1 TFG      0.085200
     37 H102       -5.6330    2.4550    2.6090 h1        1 TFG      0.085200
     38 H9C1       -1.8890    1.0240    4.3910 h1        1 TFG      0.070700
     39 H9C2       -1.3440    2.2240    3.1230 h1        1 TFG      0.070700
     40 H8C1       -3.3220    3.5960    3.3870 h1        1 TFG      0.083200
     41 H8C2       -2.7680    3.1560    5.0780 h1        1 TFG      0.083200
     42 H3         -7.4740    2.7200    4.6980 ha        1 TFG      0.169000
     43 H2         -9.5990    1.4960    5.6850 ha        1 TFG      0.180000
     44 HA        -11.0840   -0.4850    8.0630 ho        1 TFG      0.440000
     45 HB         -8.8140    0.0220    9.3800 ho        1 TFG      0.440000
@<TRIPOS>BOND
     1    1    2 ar  
     2    1    6 ar  
     3    1   30 1   
     4    2    3 ar  
     5    2   31 1   
     6    3    4 ar  
     7    3   32 1   
     8    4    5 ar  
     9    4   33 1   
    10    5    6 ar  
    11    5   34 1   
    12    6    7 1   
    13    7    8 2   
    14    7   12 1   
    15    8    9 1   
    16    8   35 1   
    17    9   10 2   
    18   10   11 1   
    19   10   12 1   
    20   11   15 1   
    21   11   36 1   
    22   11   37 1   
    23   12   13 1   
    24   13   14 1   
    25   13   38 1   
    26   13   39 1   
    27   14   15 1   
    28   14   40 1   
    29   14   41 1   
    30   15   16 1   
    31   16   17 2   
    32   16   18 1   
    33   18   19 1   
    34   18   20 2   
    35   19   22 1   
    36   20   21 1   
    37   20   42 1   
    38   21   22 2   
    39   21   43 1   
    40   22   23 1   
    41   23   24 1   
    42   23   28 1   
    43   23   29 1   
    44   24   25 1   
    45   24   26 1   
    46   24   27 1   
    47   28   44 1   
    48   29   45 1   
@<TRIPOS>SUBSTRUCTURE
     1 TFG         1 TEMP              0 ****  ****    0 ROOT
