@<TRIPOS>MOLECULE
TFG
   45    48     1     0     0
SMALL
bcc


@<TRIPOS>ATOM
      1 C14        16.9570   74.5920   43.2160 ca        1 TFG     -0.120500
      2 C15        16.7280   74.6910   44.5860 ca        1 TFG     -0.127000
      3 C16        17.2600   75.7580   45.3110 ca        1 TFG     -0.125000
      4 C17        18.0190   76.7290   44.6590 ca        1 TFG     -0.127000
      5 C18        18.2500   76.6370   43.2880 ca        1 TFG     -0.120500
      6 C13        17.7230   75.5660   42.5540 ca        1 TFG     -0.010000
      7 C19        17.9200   75.4410   41.1250 cc        1 TFG     -0.152600
      8 C12        17.0170   74.9180   40.1620 cd        1 TFG      0.307200
      9 N3         17.5760   74.9490   38.8940 nd        1 TFG     -0.655000
     10 C11        18.8160   75.4810   39.0540 cc        1 TFG      0.356800
     11 C10        19.8600   75.6790   37.9850 c3        1 TFG      0.061700
     12 N2         19.0640   75.8010   40.4020 na        1 TFG     -0.181900
     13 C9         20.2980   76.3870   40.8400 c3        1 TFG      0.008300
     14 C8         21.4150   76.2310   39.7780 c3        1 TFG      0.063000
     15 N1         20.9830   76.4850   38.4180 n         1 TFG     -0.449800
     16 C7         21.2380   77.7460   37.8620 c         1 TFG      0.700700
     17 O1         21.8990   78.5890   38.5010 o         1 TFG     -0.585100
     18 C4         20.7960   78.0170   36.4820 cc        1 TFG     -0.220700
     19 S1         20.1740   79.4770   35.9960 ss        1 TFG      0.291200
     20 C3         20.9180   77.1260   35.4160 cd        1 TFG     -0.124000
     21 C2         20.4650   77.7080   34.2080 cd        1 TFG     -0.132000
     22 C1         20.0170   79.0140   34.4110 cc        1 TFG     -0.228400
     23 C5         19.4660   79.8370   33.3070 c3        1 TFG      0.418900
     24 C6         20.5990   80.3530   32.3060 c3        1 TFG      0.614900
     25 F1         21.6590   80.9570   32.9240 f         1 TFG     -0.226300
     26 F2         21.1390   79.3720   31.5240 f         1 TFG     -0.226300
     27 F3         20.1150   81.2950   31.4350 f         1 TFG     -0.226300
     28 O3         18.7650   80.9440   33.8180 oh        1 TFG     -0.606800
     29 O2         18.5430   79.1760   32.4750 oh        1 TFG     -0.606800
     30 H14        16.5390   73.7490   42.6440 ha        1 TFG      0.135500
     31 H15        16.1270   73.9240   45.0960 ha        1 TFG      0.135000
     32 H16        17.0790   75.8330   46.3930 ha        1 TFG      0.135000
     33 H17        18.4340   77.5750   45.2270 ha        1 TFG      0.135000
     34 H18        18.8350   77.4200   42.7830 ha        1 TFG      0.135500
     35 H12        16.0110   74.5390   40.3350 h4        1 TFG      0.046100
     36 H101       20.2580   74.6600   37.7010 h1        1 TFG      0.084200
     37 H102       19.3630   76.1300   37.0800 h1        1 TFG      0.084200
     38 H9C1       20.1330   77.4860   41.0420 h1        1 TFG      0.070700
     39 H9C2       20.6320   75.8970   41.7970 h1        1 TFG      0.070700
     40 H8C1       22.2500   76.9350   40.0530 h1        1 TFG      0.083200
     41 H8C2       21.8050   75.1740   39.8090 h1        1 TFG      0.083200
     42 H3         21.3200   76.1120   35.4910 ha        1 TFG      0.169000
     43 H2         20.4760   77.2050   33.2370 ha        1 TFG      0.173000
     44 HA         18.2960   81.3610   33.0780 ho        1 TFG      0.444000
     45 HB         18.0570   78.5320   33.0080 ho        1 TFG      0.444000
@<TRIPOS>BOND
     1    1    2 ar  
     2    1    6 ar  
     3    1   30 1   
     4    2    3 ar  
     5    2   31 1   
     6    3    4 ar  
     7    3   32 1   
     8    4    5 ar  
     9    4   33 1   
    10    5    6 ar  
    11    5   34 1   
    12    6    7 1   
    13    7    8 2   
    14    7   12 1   
    15    8    9 1   
    16    8   35 1   
    17    9   10 2   
    18   10   11 1   
    19   10   12 1   
    20   11   15 1   
    21   11   36 1   
    22   11   37 1   
    23   12   13 1   
    24   13   14 1   
    25   13   38 1   
    26   13   39 1   
    27   14   15 1   
    28   14   40 1   
    29   14   41 1   
    30   15   16 1   
    31   16   17 2   
    32   16   18 1   
    33   18   19 1   
    34   18   20 2   
    35   19   22 1   
    36   20   21 1   
    37   20   42 1   
    38   21   22 2   
    39   21   43 1   
    40   22   23 1   
    41   23   24 1   
    42   23   28 1   
    43   23   29 1   
    44   24   25 1   
    45   24   26 1   
    46   24   27 1   
    47   28   44 1   
    48   29   45 1   
@<TRIPOS>SUBSTRUCTURE
     1 TFG         1 TEMP              0 ****  ****    0 ROOT
