@<TRIPOS>MOLECULE
TFG
   45    48     1     0     0
SMALL
bcc


@<TRIPOS>ATOM
      1 C14        -0.3790   -0.4380    0.0640 ca        1 TFG     -0.120500
      2 C15         0.9790   -0.6120   -0.1900 ca        1 TFG     -0.127000
      3 C16         1.9060   -0.5120    0.8480 ca        1 TFG     -0.126000
      4 C17         1.4690   -0.2410    2.1440 ca        1 TFG     -0.127000
      5 C18         0.1110   -0.0670    2.4060 ca        1 TFG     -0.120500
      6 C13        -0.8260   -0.1610    1.3670 ca        1 TFG     -0.009000
      7 C19        -2.2470   -0.0090    1.5970 cc        1 TFG     -0.153600
      8 C12        -3.3140   -0.6730    0.9370 cd        1 TFG      0.309200
      9 N3         -4.5390   -0.2450    1.4260 nd        1 TFG     -0.652000
     10 C11        -4.2490    0.6800    2.3770 cc        1 TFG      0.359800
     11 C10        -5.2360    1.4910    3.1770 c3        1 TFG      0.061700
     12 N2         -2.8580    0.8490    2.5190 na        1 TFG     -0.182900
     13 C9         -2.2870    1.7730    3.4550 c3        1 TFG      0.009300
     14 C8         -3.3300    2.8090    3.9430 c3        1 TFG      0.064000
     15 N1         -4.6280    2.2440    4.2550 n         1 TFG     -0.450800
     16 C7         -4.9450    1.9960    5.5960 c         1 TFG      0.701700
     17 O1         -4.1520    2.3320    6.4990 o         1 TFG     -0.590100
     18 C4         -6.2650    1.4250    5.9220 cc        1 TFG     -0.220700
     19 S1         -6.4970    0.2980    7.1180 ss        1 TFG      0.291200
     20 C3         -7.4700    1.8180    5.3400 cd        1 TFG     -0.125000
     21 C2         -8.5660    1.1420    5.9270 cd        1 TFG     -0.132000
     22 C1         -8.1440    0.2620    6.9260 cc        1 TFG     -0.229400
     23 C5         -9.1000   -0.5690    7.6980 c3        1 TFG      0.418900
     24 C6         -9.6990   -1.7720    6.8340 c3        1 TFG      0.614900
     25 F1        -10.5770   -1.3760    5.8650 f         1 TFG     -0.226300
     26 F2         -8.7540   -2.5230    6.1930 f         1 TFG     -0.226300
     27 F3        -10.3880   -2.6620    7.6170 f         1 TFG     -0.226300
     28 O3        -10.2330    0.1170    8.1740 oh        1 TFG     -0.606800
     29 O2         -8.4820   -1.0920    8.8480 oh        1 TFG     -0.606800
     30 H14        -1.1100   -0.5150   -0.7550 ha        1 TFG      0.135500
     31 H15         1.3200   -0.8280   -1.2130 ha        1 TFG      0.134500
     32 H16         2.9780   -0.6480    0.6440 ha        1 TFG      0.134000
     33 H17         2.1970   -0.1680    2.9660 ha        1 TFG      0.134500
     34 H18        -0.2220    0.1270    3.4360 ha        1 TFG      0.135500
     35 H12        -3.2420   -1.4310    0.1580 h4        1 TFG      0.046100
     36 H101       -5.7230    2.2290    2.4730 h1        1 TFG      0.085200
     37 H102       -6.0330    0.7970    3.5690 h1        1 TFG      0.085200
     38 H9C1       -1.4270    2.3180    2.9740 h1        1 TFG      0.070200
     39 H9C2       -1.8920    1.2000    4.3440 h1        1 TFG      0.070200
     40 H8C1       -2.9060    3.3210    4.8530 h1        1 TFG      0.083200
     41 H8C2       -3.4890    3.5780    3.1340 h1        1 TFG      0.083200
     42 H3         -7.5660    2.5570    4.5400 ha        1 TFG      0.169000
     43 H2         -9.6090    1.2780    5.6270 ha        1 TFG      0.173000
     44 HA         -9.9810    1.0310    8.3620 ho        1 TFG      0.444000
     45 HB         -9.1750   -1.4900    9.3980 ho        1 TFG      0.444000
@<TRIPOS>BOND
     1    1    2 ar  
     2    1    6 ar  
     3    1   30 1   
     4    2    3 ar  
     5    2   31 1   
     6    3    4 ar  
     7    3   32 1   
     8    4    5 ar  
     9    4   33 1   
    10    5    6 ar  
    11    5   34 1   
    12    6    7 1   
    13    7    8 2   
    14    7   12 1   
    15    8    9 1   
    16    8   35 1   
    17    9   10 2   
    18   10   11 1   
    19   10   12 1   
    20   11   15 1   
    21   11   36 1   
    22   11   37 1   
    23   12   13 1   
    24   13   14 1   
    25   13   38 1   
    26   13   39 1   
    27   14   15 1   
    28   14   40 1   
    29   14   41 1   
    30   15   16 1   
    31   16   17 2   
    32   16   18 1   
    33   18   19 1   
    34   18   20 2   
    35   19   22 1   
    36   20   21 1   
    37   20   42 1   
    38   21   22 2   
    39   21   43 1   
    40   22   23 1   
    41   23   24 1   
    42   23   28 1   
    43   23   29 1   
    44   24   25 1   
    45   24   26 1   
    46   24   27 1   
    47   28   44 1   
    48   29   45 1   
@<TRIPOS>SUBSTRUCTURE
     1 TFG         1 TEMP              0 ****  ****    0 ROOT
