@<TRIPOS>MOLECULE
TFI
   55    56     1     0     0
SMALL
bcc


@<TRIPOS>ATOM
      1 C1         -0.9620   -3.2070    2.9610 c3        1 TFI      0.530900
      2 C2         -1.2030   -1.7560    2.4050 c         1 TFI      0.534100
      3 C3         -0.3650   -0.6330    3.0190 c3        1 TFI      0.024700
      4 C4         -1.2140    0.1210    4.0750 c3        1 TFI     -0.072700
      5 C5         -2.3840    0.8610    3.4660 c3        1 TFI     -0.108100
      6 C6         -1.6800   -0.8470    5.1420 c3        1 TFI     -0.108100
      7 C8          1.9400    1.2920    0.6030 c3        1 TFI      0.008000
      8 C9          0.1030    1.4560   -1.0140 c         1 TFI      0.679700
      9 C10        -0.4210    1.1370   -2.3650 cc        1 TFI     -0.016200
     10 C11         0.4280    0.5000   -3.2550 cd        1 TFI      0.093600
     11 C12         2.1770    0.3790   -1.7120 cc        1 TFI      0.556500
     12 C13         3.5840   -0.0020   -1.4270 ca        1 TFI     -0.224900
     13 C14         3.9100   -0.9010   -0.4060 ca        1 TFI     -0.042500
     14 C15         5.2260   -1.2880   -0.2030 ca        1 TFI     -0.206500
     15 C16         6.2630   -0.7770   -1.0230 ca        1 TFI      0.184600
     16 C17         5.9170    0.1230   -2.0630 ca        1 TFI     -0.206500
     17 C18         4.5950    0.4960   -2.2590 ca        1 TFI     -0.042500
     18 C19        -3.3670   -0.5040   -2.6630 c3        1 TFI     -0.376300
     19 N1          0.1540    0.2280    1.9890 n         1 TFI     -0.561900
     20 N2          1.4120    1.0140   -0.7110 n         1 TFI     -0.366300
     21 N3          1.7060    0.1240   -2.9300 nd        1 TFI     -0.603300
     22 N5          7.5910   -1.0920   -0.7690 nh        1 TFI     -0.833200
     23 O1         -2.0280   -1.6190    1.5120 o         1 TFI     -0.453100
     24 O3         -0.5430    2.1000   -0.1580 o         1 TFI     -0.665500
     25 O4         -3.8570    1.6500   -3.8820 o         1 TFI     -0.648300
     26 O5         -2.1340    0.2100   -4.7400 o         1 TFI     -0.648300
     27 F1         -2.1110   -3.7990    3.4170 f         1 TFI     -0.225633
     28 F2         -0.4660   -4.0600    2.0110 f         1 TFI     -0.225633
     29 F3         -0.0840   -3.2980    4.0080 f         1 TFI     -0.225633
     30 S1         -2.7910    0.7660   -3.6260 s6        1 TFI      1.468900
     31 H3          0.5140   -1.1080    3.5610 h1        1 TFI      0.120700
     32 H4         -0.5290    0.8750    4.5600 hc        1 TFI      0.070700
     33 H51        -3.0570    1.2380    4.2750 hc        1 TFI      0.048033
     34 H52        -2.0380    1.7390    2.8680 hc        1 TFI      0.048033
     35 H53        -2.9780    0.1900    2.7980 hc        1 TFI      0.048033
     36 H61        -2.3830   -1.6040    4.7130 hc        1 TFI      0.048033
     37 H62        -0.8110   -1.3900    5.5880 hc        1 TFI      0.048033
     38 H63        -2.2100   -0.2920    5.9530 hc        1 TFI      0.048033
     39 H81         1.6050    2.3250    0.9160 h1        1 TFI      0.107700
     40 H82         3.0680    1.2660    0.5780 h1        1 TFI      0.107700
     41 H11         0.1210    0.2320   -4.2890 h4        1 TFI      0.212000
     42 H14         3.1230   -1.3050    0.2540 ha        1 TFI      0.150000
     43 H15         5.4580   -1.9920    0.6110 ha        1 TFI      0.142000
     44 H17         6.6960    0.5320   -2.7220 ha        1 TFI      0.142000
     45 H18         4.3430    1.1850   -3.0810 ha        1 TFI      0.150000
     46 H191       -4.1410   -1.0950   -3.2180 h1        1 TFI      0.121700
     47 H192       -2.5790   -1.2380   -2.3630 h1        1 TFI      0.121700
     48 H193       -3.8590   -0.1670   -1.7180 h1        1 TFI      0.121700
     49 HN1        -0.4920    0.8410    1.5380 hn        1 TFI      0.352500
     50 HN4        -2.0070    2.3380   -2.1340 hn        1 TFI      0.473800
     51 HN51        8.2250   -0.9530   -1.5220 hn        1 TFI      0.406800
     52 HN52        7.7500   -1.9120   -0.2310 hn        1 TFI      0.406800
     53 C7          1.4960    0.2950    1.6930 c         1 TFI      0.646100
     54 N4         -1.7270    1.5320   -2.6560 nh        1 TFI     -0.759900
     55 O2          2.3440   -0.3980    2.2880 o         1 TFI     -0.601100
@<TRIPOS>BOND
     1    1    2 1   
     2    1   27 1   
     3    1   28 1   
     4    1   29 1   
     5    2    3 1   
     6    2   23 2   
     7    3    4 1   
     8    3   19 1   
     9    3   31 1   
    10    4    5 1   
    11    4    6 1   
    12    4   32 1   
    13    5   33 1   
    14    5   34 1   
    15    5   35 1   
    16    6   36 1   
    17    6   37 1   
    18    6   38 1   
    19    7   20 1   
    20    7   39 1   
    21    7   40 1   
    22    7   53 1   
    23    8    9 1   
    24    8   20 1   
    25    8   24 2   
    26    9   10 2   
    27    9   54 1   
    28   10   21 1   
    29   10   41 1   
    30   11   12 1   
    31   11   20 1   
    32   11   21 2   
    33   12   13 ar  
    34   12   17 ar  
    35   13   14 ar  
    36   13   42 1   
    37   14   15 ar  
    38   14   43 1   
    39   15   16 ar  
    40   15   22 1   
    41   16   17 ar  
    42   16   44 1   
    43   17   45 1   
    44   18   30 1   
    45   18   46 1   
    46   18   47 1   
    47   18   48 1   
    48   19   49 1   
    49   19   53 1   
    50   22   51 1   
    51   22   52 1   
    52   25   30 2   
    53   26   30 2   
    54   30   54 1   
    55   50   54 1   
    56   53   55 2   
@<TRIPOS>SUBSTRUCTURE
     1 TFI         1 TEMP              0 ****  ****    0 ROOT
