@<TRIPOS>MOLECULE
TFI
   56    54     1     0     0
SMALL
bcc


@<TRIPOS>ATOM
      1 C1          2.4860   -0.4200   -0.4220 c3        1 TFI      0.395000
      2 C2          2.2810    0.6190    0.7460 c2        1 TFI      0.221000
      3 C3          1.4890    1.6790    0.4640 c1        1 TFI     -0.076000
      4 C4          0.4120    2.5730    0.3850 c3        1 TFI     -0.043000
      5 C5          0.5220    3.5840   -0.7470 c3        1 TFI     -0.214500
      6 C6         -0.9700    1.9480    0.4400 c3        1 TFI     -0.214500
      7 C8          5.4390   -1.9900    3.4830 c1        1 TFI      0.051000
      8 C9          4.5130   -2.6100    5.6930 c2        1 TFI      0.317000
      9 C10         4.7610   -3.6460    6.6940 c2        1 TFI     -0.238000
     10 C11         6.0950   -3.9560    6.9720 c2        1 TFI      0.090000
     11 C12         6.9640   -2.6120    5.2490 c2        1 TFI      0.265000
     12 C13         8.0580   -2.0300    4.5960 c2        1 TFI     -0.287000
     13 C14         9.4160   -2.1740    5.0080 c2        1 TFI      0.100000
     14 C15        10.2630   -1.4380    4.1820 c2        1 TFI     -0.301000
     15 C16         9.9220    0.0130    2.2150 c1        1 TFI     -0.158000
     16 C17         9.4820   -0.7830    3.1790 c2        1 TFI      0.139000
     17 C18         8.0200   -1.1530    3.3760 c3        1 TFI     -0.062000
     18 C19         3.3220   -6.7630    6.8020 c3        1 TFI     -0.946000
     19 N1          4.1060   -1.8450    2.8880 nz        1 TFI     -0.153000
     20 N2          5.6110   -2.3390    4.7590 n         1 TFI     -0.229000
     21 N3          7.1500   -3.4250    6.3230 n2        1 TFI     -0.268000
     22 N5         10.3510    0.7640    1.2970 n8        1 TFI     -0.044000
     23 O1          2.9550    0.4210    1.7880 o         1 TFI     -0.416000
     24 O4          1.3820   -5.1680    7.0710 o         1 TFI     -0.953500
     25 O5          2.7650   -4.9700    5.1170 o         1 TFI     -0.953500
     26 F1          3.1540   -1.5340    0.0260 f         1 TFI     -0.152667
     27 F2          1.3290   -0.8960   -0.9740 f         1 TFI     -0.152667
     28 F3          3.2340    0.0470   -1.4660 f         1 TFI     -0.152667
     29 S1          2.6710   -5.2260    6.5150 s6        1 TFI      2.835000
     30 H3          3.4930   -1.1920    3.3980 hn        1 TFI      0.274667
     31 H4          0.5960    3.1390    1.3810 hc        1 TFI      0.205000
     32 H51         0.3160    3.0860   -1.7240 hc        1 TFI      0.101667
     33 H52         1.5430    4.0340   -0.7790 hc        1 TFI      0.101667
     34 H53        -0.2310    4.3940   -0.5930 hc        1 TFI      0.101667
     35 H61        -1.0560    1.2390    1.2970 hc        1 TFI      0.101667
     36 H62        -1.1810    1.3940   -0.5070 hc        1 TFI      0.101667
     37 H63        -1.7380    2.7500    0.5570 hc        1 TFI      0.101667
     38 H81         5.3330    0.6390    3.0550 ha        1 TFI      0.001500
     39 H82         4.8440    1.1070    3.0140 ha        1 TFI      0.001500
     40 H11         6.3640   -4.6650    7.7810 h4        1 TFI      0.180000
     41 H14         9.7420   -2.7760    5.8640 ha        1 TFI      0.180000
     42 H15        11.3450   -1.3600    4.2750 ha        1 TFI      0.168000
     43 H17         7.3860   -0.2420    3.5280 hc        1 TFI      0.132500
     44 H18         7.6410   -1.7120    2.4800 hc        1 TFI      0.132500
     45 H191        3.2910   -7.0650    7.8780 h1        1 TFI      0.162667
     46 H192        2.7370   -7.5450    6.2500 h1        1 TFI      0.162667
     47 H193        4.3810   -6.8800    6.4680 h1        1 TFI      0.162667
     48 HN1         4.2560   -1.4600    1.9480 hn        1 TFI      0.274667
     49 HN4         3.4480   -3.8620    8.2280 hn        1 TFI      0.260000
     50 HN51       10.4490    1.7560    1.4310 hn        1 TFI      0.251000
     51 HN52       10.6240    0.3990    0.4010 hn        1 TFI      0.251000
     52 C7          2.6960   -4.2990    2.7520 c1        1 TFI      0.139000
     53 N4          3.6640   -4.2290    7.3290 nu        1 TFI     -0.797000
     54 O2          2.0970   -5.2950    2.7450 o         1 TFI     -0.082000
     55 H12         3.5950   -2.7800    2.8190 hn        1 TFI      0.274667
     56 O3          3.4610   -1.9710    5.5250 o         1 TFI     -0.341000
@<TRIPOS>BOND
     1    1    2 1   
     2    1   26 1   
     3    1   27 1   
     4    1   28 1   
     5    2    3 1   
     6    2   23 1   
     7    3    4 1   
     8    4    5 1   
     9    4    6 1   
    10    4   31 1   
    11    5   32 1   
    12    5   33 1   
    13    5   34 1   
    14    6   35 1   
    15    6   36 1   
    16    6   37 1   
    17    7   19 1   
    18    7   20 1   
    19    8    9 1   
    20    8   20 1   
    21    8   56 1   
    22    9   10 1   
    23    9   53 1   
    24   10   21 1   
    25   10   40 1   
    26   11   12 1   
    27   11   20 1   
    28   11   21 1   
    29   12   13 1   
    30   12   17 1   
    31   13   14 1   
    32   13   41 1   
    33   14   16 1   
    34   14   42 1   
    35   15   16 1   
    36   15   22 1   
    37   16   17 1   
    38   17   43 1   
    39   17   44 1   
    40   18   29 1   
    41   18   45 1   
    42   18   46 1   
    43   18   47 1   
    44   19   30 1   
    45   19   48 1   
    46   19   55 1   
    47   22   50 1   
    48   22   51 1   
    49   24   29 1   
    50   25   29 1   
    51   29   53 1   
    52   38   39 1   
    53   49   53 1   
    54   52   54 1   
@<TRIPOS>SUBSTRUCTURE
     1 TFI         1 TEMP              0 ****  ****    0 ROOT
