@<TRIPOS>MOLECULE
TFI
   58    55     1     0     0
SMALL
bcc


@<TRIPOS>ATOM
      1 C1       -497.2010  383.4920  -51.7860 c3        1 TFI      0.418000
      2 C2       -495.6340  383.3540  -51.8280 c2        1 TFI      0.127000
      3 C3       -494.9010  384.2210  -50.8690 c2        1 TFI      0.142000
      4 C4       -493.7830  383.8350  -50.1650 c2        1 TFI     -0.255000
      5 C5          5.8080   -1.9680    1.5570 c3        1 TFI     -0.266000
      6 C6       -493.1630  382.6000  -50.2900 c2        1 TFI      0.212000
      7 C8        167.6010 -127.4040   18.3550 c2        1 TFI     -0.296000
      8 C9        165.8110 -129.0170   18.8000 c2        1 TFI      0.250000
      9 C10       164.3840 -129.2500   19.3640 c3        1 TFI      0.002000
     10 C11       164.1550 -128.3180   20.5400 c2        1 TFI     -0.050000
     11 C12       165.9270 -126.8880   19.9740 c2        1 TFI     -0.052000
     12 C13       166.4560 -125.5220   20.1970 c2        1 TFI      0.070000
     13 C14       166.6470 -124.6810   19.0330 c2        1 TFI     -0.474000
     14 C15       167.1210 -123.4460   19.0450 c1        1 TFI      0.251000
     15 C16       167.1250 -123.3750   23.1880 c2        1 TFI      0.165000
     16 C17       167.0780 -123.6750   21.7270 c3        1 TFI     -0.185000
     17 C18       166.6640 -125.0740   21.4570 c2        1 TFI     -0.167000
     18 C19       167.4470 -123.8690   28.5140 c2        1 TFI     -1.460000
     19 N1        168.8940 -129.7900   16.1050 n3        1 TFI     -0.230000
     20 N2        166.4530 -127.7130   19.0160 n         1 TFI      0.011000
     21 N3        164.8370 -127.2510   20.7860 n2        1 TFI     -0.097000
     22 N5        167.0850 -122.1780   23.6980 n3        1 TFI     -0.150000
     23 O1       -495.0790  382.5940  -52.6100 o         1 TFI     -0.119000
     24 O4        167.4540 -125.7910   26.9630 o         1 TFI     -0.562900
     25 O5        167.3100 -123.6560   26.0780 o         1 TFI     -0.562900
     26 F1       -497.8010  382.9640  -52.8870 f         1 TFI     -0.116333
     27 F2       -497.7320  382.8600  -50.6970 f         1 TFI     -0.116333
     28 F3       -497.5980  384.7980  -51.7040 f         1 TFI     -0.116333
     29 S1        167.4070 -124.4450   27.2390 s4        1 TFI      2.075800
     30 H3       -495.3210  385.2470  -50.7400 ha        1 TFI      0.224000
     31 H4       -493.3380  384.5770  -49.4600 ha        1 TFI      0.214000
     32 H51         5.7500   -2.7820    0.8030 hc        1 TFI      0.066250
     33 H52         5.7960   -2.4060    2.5780 hc        1 TFI      0.066250
     34 H53         4.9370   -1.2870    1.4350 hc        1 TFI      0.066250
     35 H61      -492.2230  382.3810  -49.7430 ha        1 TFI      0.192000
     36 H62      -493.5590  381.7930  -50.9400 ha        1 TFI      0.192000
     37 H63         6.7490   -1.3940    1.4110 hc        1 TFI      0.066250
     38 H81       168.2420 -126.5460   18.5850 h5        1 TFI      0.238000
     39 H82       168.9880 -129.5440   18.2270 h5        1 TFI      0.230000
     40 H11       163.6990 -128.8930   18.5210 h1        1 TFI      0.181000
     41 H14       166.3300 -125.0910   18.0460 ha        1 TFI      0.219000
     42 H15       166.3790 -122.9580   21.1920 hc        1 TFI      0.166500
     43 H17       168.1130 -123.4880   21.2970 hc        1 TFI      0.166500
     44 H18       166.5090 -125.7350   22.3250 ha        1 TFI      0.170000
     45 H191      167.5230 -124.3890   29.4940 h4        1 TFI      0.258500
     46 H192      167.4130 -122.8000   28.8060 h4        1 TFI      0.258500
     47 H193      163.2970 -128.5550   21.2060 h4        1 TFI      0.222000
     48 HN1       168.5520 -129.4470   15.2240 hn        1 TFI      0.293000
     49 HN4       164.0380 -131.1900   18.8380 hn        1 TFI      0.206000
     50 HN51      167.2120 -124.2360   23.9040 h4        1 TFI      0.230000
     51 HN52      167.1370 -122.0540   24.7060 hn        1 TFI      0.296500
     52 C7        168.6330 -129.1760   17.2380 c2        1 TFI      0.262000
     53 N4        164.0670 -130.6030   19.6460 n3        1 TFI     -0.340000
     54 O2        167.8880 -128.0370   17.1460 os        1 TFI     -0.097000
     55 H12       169.4420 -130.6300   16.0900 hn        1 TFI      0.293000
     56 H531      167.0030 -121.3460   23.1400 hn        1 TFI      0.296500
     57 H42       164.5780 -131.0070   20.4000 hn        1 TFI      0.206000
     58 O3        166.4390 -129.8630   18.1600 o         1 TFI     -0.295000
@<TRIPOS>BOND
     1    1    2 1   
     2    1   26 1   
     3    1   27 1   
     4    1   28 1   
     5    2    3 1   
     6    2   23 1   
     7    3    4 1   
     8    3   30 1   
     9    4    6 1   
    10    4   31 1   
    11    5   32 1   
    12    5   33 1   
    13    5   34 1   
    14    5   37 1   
    15    6   35 1   
    16    6   36 1   
    17    7   20 1   
    18    7   38 1   
    19    7   54 1   
    20    8    9 1   
    21    8   20 1   
    22    8   58 1   
    23    9   10 1   
    24    9   40 1   
    25    9   53 1   
    26   10   21 1   
    27   10   47 1   
    28   11   12 1   
    29   11   20 1   
    30   11   21 1   
    31   12   13 1   
    32   12   17 1   
    33   13   14 1   
    34   13   41 1   
    35   15   16 1   
    36   15   22 1   
    37   15   50 1   
    38   16   17 1   
    39   16   42 1   
    40   16   43 1   
    41   17   44 1   
    42   18   29 1   
    43   18   45 1   
    44   18   46 1   
    45   19   48 1   
    46   19   52 1   
    47   19   55 1   
    48   22   51 1   
    49   22   56 1   
    50   24   29 1   
    51   25   29 1   
    52   39   52 1   
    53   49   53 1   
    54   52   54 1   
    55   53   57 1   
@<TRIPOS>SUBSTRUCTURE
     1 TFI         1 TEMP              0 ****  ****    0 ROOT
