@<TRIPOS>MOLECULE
TFK
   58    55     1     0     0
SMALL
bcc


@<TRIPOS>ATOM
      1 C1         -0.2690    2.4110    0.7940 c3        1 TFK      0.582900
      2 C2          0.6880    1.8130   -0.2940 c         1 TFK      0.374800
      3 C3          1.7730    0.9270    0.2710 ce        1 TFK      0.367200
      4 C4          4.4420    2.5250    0.4490 c2        1 TFK     -0.073200
      5 C5          5.5290    2.0480   -0.4220 c3        1 TFK     -0.105900
      6 C6          3.2290    2.8940    0.0100 c2        1 TFK     -0.353000
      7 C8          3.6120   -2.8690    3.5130 c3        1 TFK     -0.031000
      8 C9          4.9350   -3.0790    5.5420 c         1 TFK      0.636100
      9 C10         5.2510   -3.5770    7.0480 c3        1 TFK      0.294600
     10 C11         4.0900   -4.3970    7.3080 c1        1 TFK     -0.213100
     11 C12         3.0730   -4.6140    6.6800 c1        1 TFK     -0.042100
     12 C13         2.6110   -4.2140    5.3520 c3        1 TFK      0.261000
     13 C14         2.3480   -5.3860    4.4600 c2        1 TFK     -0.266200
     14 C15         1.0980   -5.7690    4.1520 ce        1 TFK     -0.034000
     15 C16         0.8170   -6.9280    3.3360 ce        1 TFK     -0.188000
     16 C17        -0.4420   -7.3380    3.0790 cf        1 TFK      0.072300
     17 C18        -0.7460   -8.4610    2.3000 ch        1 TFK     -0.229300
     18 C19        -1.0340   -9.4210    1.6430 c1        1 TFK     -0.051500
     19 C20         7.6780   -4.8420    9.4770 ce        1 TFK      0.237600
     20 N1          2.3450   -0.0150   -0.4250 nv        1 TFK     -0.290100
     21 N2          3.7340   -3.3320    4.8760 n         1 TFK     -0.482800
     22 N4          7.6370   -4.4140   10.6880 nv        1 TFK     -0.203100
     23 O1          0.5490    2.0220   -1.4870 o         1 TFK     -0.344100
     24 O4          7.5700   -2.4720    8.5540 o         1 TFK     -0.571300
     25 O5          8.9880   -4.0980    7.4240 o         1 TFK     -0.571300
     26 F1         -1.0590    3.4090    0.3160 f         1 TFK     -0.191633
     27 F2         -1.1000    1.4550    1.3130 f         1 TFK     -0.191633
     28 F3          0.4160    2.9260    1.8630 f         1 TFK     -0.191633
     29 S1          7.7730   -3.6960    7.9350 sy        1 TFK      1.413000
     30 H3          1.9990    1.0220    1.3650 h4        1 TFK      0.111800
     31 H4          4.6930    2.5870    1.5250 ha        1 TFK      0.139000
     32 H51         2.1590   -0.1470   -1.4060 hn        1 TFK      0.345200
     33 H52         5.9660    1.0950   -0.0290 hc        1 TFK      0.069367
     34 H53         5.1940    1.8880   -1.4760 hc        1 TFK      0.069367
     35 H61         2.9870    2.9410   -1.0630 ha        1 TFK      0.131000
     36 H62         2.5020    3.3770    0.6810 ha        1 TFK      0.131000
     37 H63         6.3490    2.8160   -0.4360 hc        1 TFK      0.069367
     38 H81         2.9840   -3.6010    2.9230 h1        1 TFK      0.112700
     39 H82         4.6400   -2.8310    3.0340 h1        1 TFK      0.112700
     40 H11         5.2630   -2.6370    7.6840 h1        1 TFK      0.128700
     41 H12         1.6930   -3.5550    5.4330 h1        1 TFK      0.095700
     42 H15         0.2220   -5.2080    4.5280 ha        1 TFK      0.131000
     43 H16         1.6840   -7.4800    2.9360 ha        1 TFK      0.145000
     44 H17        -1.3180   -6.7950    3.4870 ha        1 TFK      0.144000
     45 H18        -1.2940  -10.2730    1.0620 ha        1 TFK      0.183500
     46 H19         3.2290   -5.9490    4.1150 ha        1 TFK      0.148000
     47 H201        8.2970   -6.4980    7.2220 ha        1 TFK      0.001500
     48 H202        8.7830   -6.8360    6.8890 ha        1 TFK      0.001500
     49 H203        7.6080   -3.4210   10.8930 hn        1 TFK      0.335200
     50 HN1         2.7230   -0.9380    4.2930 h4        1 TFK      0.033200
     51 HN3         6.5840   -5.0510    6.5560 hn        1 TFK      0.495800
     52 HN4         7.7210   -5.9380    9.2810 h5        1 TFK      0.083800
     53 C7          3.0010   -1.4900    3.3680 c         1 TFK      0.609900
     54 N3          6.5330   -4.2260    7.1250 n7        1 TFK     -0.911100
     55 O2          2.8250   -0.9910    2.2480 o         1 TFK     -0.635100
     56 H121        3.0040   -0.6470    0.0100 hn        1 TFK      0.345200
     57 H42         7.6400   -5.0250   11.4920 hn        1 TFK      0.335200
     58 O3          5.8220   -2.3850    5.0150 o         1 TFK     -0.579100
@<TRIPOS>BOND
     1    1    2 1   
     2    1   26 1   
     3    1   27 1   
     4    1   28 1   
     5    2    3 1   
     6    2   23 2   
     7    3   20 2   
     8    3   30 1   
     9    4    5 1   
    10    4    6 2   
    11    4   31 1   
    12    5   33 1   
    13    5   34 1   
    14    5   37 1   
    15    6   35 1   
    16    6   36 1   
    17    7   21 1   
    18    7   38 1   
    19    7   39 1   
    20    7   53 1   
    21    8    9 1   
    22    8   21 1   
    23    8   58 2   
    24    9   10 1   
    25    9   40 1   
    26    9   54 1   
    27   10   11 3   
    28   11   12 1   
    29   12   13 1   
    30   12   21 1   
    31   12   41 1   
    32   13   14 2   
    33   13   46 1   
    34   14   15 1   
    35   14   42 1   
    36   15   16 2   
    37   15   43 1   
    38   16   17 1   
    39   16   44 1   
    40   17   18 3   
    41   18   45 1   
    42   19   22 2   
    43   19   29 1   
    44   19   52 1   
    45   20   32 1   
    46   20   56 1   
    47   22   49 1   
    48   22   57 1   
    49   24   29 2   
    50   25   29 2   
    51   29   54 1   
    52   47   48 1   
    53   50   53 1   
    54   51   54 1   
    55   53   55 2   
@<TRIPOS>SUBSTRUCTURE
     1 TFK         1 TEMP              0 ****  ****    0 ROOT
