@<TRIPOS>MOLECULE
TFK
   56    57     1     0     0
SMALL
bcc


@<TRIPOS>ATOM
      1 C1         -1.9760    0.8560   -5.4430 c3        1 TFK      0.530900
      2 C2         -2.1000    1.1370   -3.9010 c         1 TFK      0.531100
      3 C3         -1.5520    0.0650   -2.9590 c3        1 TFK      0.026700
      4 C4         -2.7270   -0.7950   -2.4250 c3        1 TFK     -0.070700
      5 C5         -3.6550   -0.0170   -1.5190 c3        1 TFK     -0.108600
      6 C6         -3.4840   -1.4030   -3.5860 c3        1 TFK     -0.108600
      7 C8          1.3070    1.2250   -0.6530 c3        1 TFK      0.010000
      8 C9          0.0060    0.6490    1.3410 c         1 TFK      0.675700
      9 C10        -0.1120   -0.0800    2.6310 cc        1 TFK      0.033800
     10 C11         0.9250   -0.8780    3.0490 cd        1 TFK     -0.090000
     11 C12         2.1180   -0.9450    2.2820 cd        1 TFK     -0.204000
     12 C13         2.2470   -0.2660    1.0900 cc        1 TFK      0.107400
     13 C14         3.5400   -0.3420    0.3820 ca        1 TFK     -0.100800
     14 C15         4.6930    0.0940    1.0530 ca        1 TFK     -0.101500
     15 C16         5.9390   -0.0200    0.4420 ca        1 TFK     -0.132000
     16 C17         6.0460   -0.5750   -0.8350 ca        1 TFK     -0.111000
     17 C18         4.9020   -1.0120   -1.5010 ca        1 TFK     -0.132000
     18 C19         3.6490   -0.8960   -0.8980 ca        1 TFK     -0.101500
     19 C20        -1.7580    2.7570    5.3990 c3        1 TFK      0.207100
     20 N1         -0.7720    0.6610   -1.9060 n         1 TFK     -0.556900
     21 N2          1.1900    0.4990    0.5920 n         1 TFK     -0.320000
     22 N4         -0.9860    1.5580    5.4450 n3        1 TFK     -0.921100
     23 O1         -2.6120    2.1930   -3.5540 o         1 TFK     -0.446100
     24 O3         -0.9090    1.3790    0.8910 o         1 TFK     -0.680500
     25 O4         -0.6820   -0.8720    5.5610 o         1 TFK     -0.644300
     26 O5         -2.9100   -0.0020    5.1880 o         1 TFK     -0.644300
     27 F1         -3.1800    0.9250   -6.0950 f         1 TFK     -0.226633
     28 F2         -1.1660    1.7580   -6.0820 f         1 TFK     -0.226633
     29 F3         -1.4700   -0.3710   -5.7800 f         1 TFK     -0.226633
     30 S1         -1.5150    0.1080    4.9620 s6        1 TFK      1.575800
     31 H3         -0.8710   -0.6160   -3.5620 h1        1 TFK      0.118700
     32 H4         -2.2670   -1.6340   -1.8280 hc        1 TFK      0.069700
     33 H51        -4.5670   -0.6230   -1.3000 hc        1 TFK      0.048367
     34 H52        -3.1590    0.2250   -0.5470 hc        1 TFK      0.048367
     35 H53        -3.9740    0.9400   -2.0020 hc        1 TFK      0.048367
     36 H61        -3.9840   -0.6100   -4.1950 hc        1 TFK      0.048367
     37 H62        -2.7910   -1.9720   -4.2540 hc        1 TFK      0.048367
     38 H63        -4.2670   -2.1020   -3.2050 hc        1 TFK      0.048367
     39 H81         0.8720    2.2580   -0.5090 h1        1 TFK      0.102200
     40 H82         2.3930    1.3230   -0.9420 h1        1 TFK      0.102200
     41 H11         0.8690   -1.4630    3.9860 ha        1 TFK      0.185000
     42 H12         2.9540   -1.5570    2.6510 ha        1 TFK      0.165000
     43 H15         4.6090    0.5240    2.0620 ha        1 TFK      0.151500
     44 H16         6.8410    0.3260    0.9690 ha        1 TFK      0.141500
     45 H17         7.0320   -0.6670   -1.3140 ha        1 TFK      0.138000
     46 H18         4.9800   -1.4470   -2.5090 ha        1 TFK      0.141500
     47 H19         2.7470   -1.2300   -1.4390 ha        1 TFK      0.151500
     48 H201       -1.6780    3.3130    6.3720 h1        1 TFK      0.046700
     49 H202       -1.4030    3.4350    4.5750 h1        1 TFK      0.046700
     50 H203       -2.8410    2.5070    5.2240 h1        1 TFK      0.046700
     51 HN1        -1.2650    1.1560   -1.1920 hn        1 TFK      0.355500
     52 HN3        -2.0770    0.3080    2.7300 hn        1 TFK      0.468800
     53 HN4        -0.0660    1.6850    5.7960 hn        1 TFK      0.451800
     54 C7          0.5950    0.5410   -1.8390 c         1 TFK      0.649100
     55 N3         -1.3110    0.0810    3.3310 nh        1 TFK     -0.759900
     56 O2          1.2560   -0.0640   -2.7060 o         1 TFK     -0.606100
@<TRIPOS>BOND
     1    1    2 1   
     2    1   27 1   
     3    1   28 1   
     4    1   29 1   
     5    2    3 1   
     6    2   23 2   
     7    3    4 1   
     8    3   20 1   
     9    3   31 1   
    10    4    5 1   
    11    4    6 1   
    12    4   32 1   
    13    5   33 1   
    14    5   34 1   
    15    5   35 1   
    16    6   36 1   
    17    6   37 1   
    18    6   38 1   
    19    7   21 1   
    20    7   39 1   
    21    7   40 1   
    22    7   54 1   
    23    8    9 1   
    24    8   21 1   
    25    8   24 2   
    26    9   10 2   
    27    9   55 1   
    28   10   11 1   
    29   10   41 1   
    30   11   12 2   
    31   11   42 1   
    32   12   13 1   
    33   12   21 1   
    34   13   14 ar  
    35   13   18 ar  
    36   14   15 ar  
    37   14   43 1   
    38   15   16 ar  
    39   15   44 1   
    40   16   17 ar  
    41   16   45 1   
    42   17   18 ar  
    43   17   46 1   
    44   18   47 1   
    45   19   22 1   
    46   19   48 1   
    47   19   49 1   
    48   19   50 1   
    49   20   51 1   
    50   20   54 1   
    51   22   30 1   
    52   22   53 1   
    53   25   30 2   
    54   26   30 2   
    55   30   55 1   
    56   52   55 1   
    57   54   56 2   
@<TRIPOS>SUBSTRUCTURE
     1 TFK         1 TEMP              0 ****  ****    0 ROOT
