@<TRIPOS>MOLECULE
TFK
   59    56     1     0     0
SMALL
bcc


@<TRIPOS>ATOM
      1 C1          0.6920    2.0390    2.9180 c3        1 TFK      0.397000
      2 C2          0.3800    2.0520    1.3810 c2        1 TFK      0.159000
      3 C3          1.5990    2.2110    0.4910 c2        1 TFK      0.200000
      4 C4          1.5740    3.2120   -0.5490 c2        1 TFK     -0.287000
      5 C5          5.0820    2.2950   -1.5130 c3        1 TFK     -0.292000
      6 C6          0.4970    3.9630   -0.8600 c2        1 TFK      0.041000
      7 C8          3.7530   -3.1620    3.4440 c1        1 TFK     -0.141000
      8 C9          5.4770   -3.3780    5.1270 c2        1 TFK      0.221000
      9 C10         5.7210   -3.5760    6.6980 c3        1 TFK      0.039000
     10 C11         4.8280   -4.6650    7.0330 c1        1 TFK     -0.486000
     11 C12         3.8790   -5.0550    6.3620 c1        1 TFK      0.143000
     12 C13         3.3240   -4.8960    5.0230 c3        1 TFK      0.134000
     13 C14         3.4200   -6.1800    4.1880 c3        1 TFK     -0.115000
     14 C15         2.6530   -6.0470    2.9240 c2        1 TFK     -0.177000
     15 C16         1.6990   -6.8660    2.5840 c1        1 TFK     -0.126000
     16 C17         0.7670   -7.6940    2.1870 c2        1 TFK      0.069000
     17 C18        -0.6030   -7.5410    2.4420 c1        1 TFK     -0.199000
     18 C19        -1.7830   -7.4510    2.6300 c1        1 TFK     -0.093000
     19 C20         6.2690   -5.5120   10.7540 c3        1 TFK     -0.231000
     20 N1          2.6480    1.4380    0.7040 n3        1 TFK     -0.192000
     21 N2          4.2010   -3.7450    4.4990 n         1 TFK     -0.097000
     22 N4          6.4420   -5.4620    9.2740 n4        1 TFK     -0.524000
     23 O1         -0.7490    1.9330    0.9470 o         1 TFK     -0.084000
     24 O4          6.8680   -2.9360    9.3860 o         1 TFK     -0.719500
     25 O5          8.7500   -4.4760    8.9080 o         1 TFK     -0.719500
     26 F1         -0.4080    2.2130    3.6980 f         1 TFK     -0.125667
     27 F2          1.2590    0.8470    3.2980 f         1 TFK     -0.125667
     28 F3          1.5970    2.9970    3.2830 f         1 TFK     -0.125667
     29 S1          7.4520   -4.0470    8.8380 s6        1 TFK      2.631000
     30 H3          3.4740    1.5220    0.1300 hn        1 TFK      0.297000
     31 H4          2.5160    3.3500   -1.1230 ha        1 TFK      0.189000
     32 H51         4.8480    3.1790   -0.8790 hc        1 TFK      0.075000
     33 H52         5.8800    2.5750   -2.2390 hc        1 TFK      0.075000
     34 H53         4.1790    1.9760   -2.0790 hc        1 TFK      0.075000
     35 H61         0.5470    4.7050   -1.6800 ha        1 TFK      0.175000
     36 H62         5.4520    1.4580   -0.8800 hc        1 TFK      0.075000
     37 H63        -0.4800    3.8920   -0.3510 ha        1 TFK      0.175000
     38 H81         4.0720   -4.8190   -0.1850 ha        1 TFK      0.001000
     39 H82         4.1330   -4.5080    0.4150 ha        1 TFK      0.001000
     40 H11         5.4390   -2.5960    7.2050 hx        1 TFK      0.217000
     41 H12         2.2530   -4.5160    5.0240 h1        1 TFK      0.218000
     42 H15         3.0010   -7.0120    4.8210 hc        1 TFK      0.122000
     43 H16         2.9560   -5.2180    2.2590 ha        1 TFK      0.147000
     44 H17         1.0480   -8.5980    1.5990 ha        1 TFK      0.186000
     45 H18        -2.8330   -7.3840    2.7900 ha        1 TFK      0.247000
     46 H19         4.4910   -6.4270    3.9570 hc        1 TFK      0.122000
     47 H201        7.2680   -5.6720   11.2520 hx        1 TFK      0.186667
     48 H202        5.5980   -6.3770   11.0360 hx        1 TFK      0.186667
     49 H203        6.8640   -6.3600    8.9910 hn        1 TFK      0.302500
     50 HN1         2.6700    0.7440    1.4380 hn        1 TFK      0.297000
     51 HN3         7.4380   -4.7180    6.5050 hn        1 TFK      0.298000
     52 HN4         5.7850   -4.5600   11.1160 hx        1 TFK      0.186667
     53 C7          4.0400   -2.2250    2.4030 c2        1 TFK      0.251000
     54 N3          7.1470   -3.8840    7.0330 n4        1 TFK     -0.506000
     55 O2          3.6720   -1.0440    2.4010 o         1 TFK     -0.329000
     56 H121        4.4740   -2.7280    1.5000 h4        1 TFK      0.168000
     57 H42         5.4900   -5.4430    8.8460 hn        1 TFK      0.302500
     58 H32         7.7130   -3.1120    6.6320 hn        1 TFK      0.298000
     59 O3          6.3960   -2.8550    4.5020 o         1 TFK     -0.212000
@<TRIPOS>BOND
     1    1    2 1   
     2    1   26 1   
     3    1   27 1   
     4    1   28 1   
     5    2    3 1   
     6    2   23 1   
     7    3    4 1   
     8    3   20 1   
     9    4    6 1   
    10    4   31 1   
    11    5   32 1   
    12    5   33 1   
    13    5   34 1   
    14    5   36 1   
    15    6   35 1   
    16    6   37 1   
    17    7   21 1   
    18    7   53 1   
    19    8    9 1   
    20    8   21 1   
    21    8   59 1   
    22    9   10 1   
    23    9   40 1   
    24    9   54 1   
    25   10   11 1   
    26   11   12 1   
    27   12   13 1   
    28   12   21 1   
    29   12   41 1   
    30   13   14 1   
    31   13   42 1   
    32   13   46 1   
    33   14   15 1   
    34   14   43 1   
    35   15   16 1   
    36   16   17 1   
    37   16   44 1   
    38   17   18 1   
    39   18   45 1   
    40   19   22 1   
    41   19   47 1   
    42   19   48 1   
    43   19   52 1   
    44   20   30 1   
    45   20   50 1   
    46   22   29 1   
    47   22   49 1   
    48   22   57 1   
    49   24   29 1   
    50   25   29 1   
    51   29   54 1   
    52   38   39 1   
    53   51   54 1   
    54   53   55 1   
    55   53   56 1   
    56   54   58 1   
@<TRIPOS>SUBSTRUCTURE
     1 TFK         1 TEMP              0 ****  ****    0 ROOT
