@<TRIPOS>MOLECULE
TFL
   37    39     1     0     0
SMALL
bcc


@<TRIPOS>ATOM
      1 C2         -5.5410   -0.2070    8.4390 ca        1 TFL      0.267600
      2 C3         -6.0790   -0.1980    7.1120 ca        1 TFL     -0.220000
      3 C4         -5.2570   -0.0800    6.0150 ca        1 TFL     -0.020000
      4 C5         -3.8570    0.0490    6.1550 ca        1 TFL     -0.298900
      5 C6         -3.3150    0.0370    7.4560 ca        1 TFL     -0.020000
      6 C7         -4.1210   -0.0910    8.5660 ca        1 TFL     -0.220000
      7 C8         -3.0410    0.1370    4.9780 cc        1 TFL      0.274800
      8 N1         -1.8990    0.8680    4.8300 na        1 TFL     -0.069200
      9 C9         -1.3400    0.7000    3.5400 ca        1 TFL     -0.095200
     10 S1         -3.4640   -0.7360    3.5840 ss        1 TFL      0.231900
     11 C10        -2.1290   -0.1650    2.7190 ca        1 TFL     -0.093100
     12 C11        -1.7460   -0.4350    1.4110 ca        1 TFL     -0.100000
     13 C12        -0.5680    0.1540    0.9270 ca        1 TFL      0.163100
     14 C13         0.2190    1.0010    1.7400 ca        1 TFL     -0.163000
     15 C14        -0.1570    1.2770    3.0430 ca        1 TFL     -0.062000
     16 O3         -0.2370   -0.1450   -0.3650 oh        1 TFL     -0.467100
     17 N2         -6.3520   -0.3210    9.5380 nh        1 TFL     -0.646000
     18 C15        -7.7770   -0.4550    9.3830 c3        1 TFL      0.189100
     19 C16        -5.7900   -0.3250   10.8620 c3        1 TFL      0.189100
     20 C17        -1.3260    1.7550    5.8070 c3        1 TFL     -0.005400
     21 H3         -7.1660   -0.2830    6.9540 ha        1 TFL      0.158000
     22 H4         -5.7040   -0.0710    5.0050 ha        1 TFL      0.140000
     23 H6         -2.2230    0.0950    7.5980 ha        1 TFL      0.140000
     24 H7         -3.6510   -0.1120    9.5630 ha        1 TFL      0.158000
     25 H11        -2.3370   -1.0950    0.7560 ha        1 TFL      0.184000
     26 H13         1.1420    1.4450    1.3310 ha        1 TFL      0.167000
     27 H14         0.4610    1.9340    3.6740 ha        1 TFL      0.163000
     28 HA          0.5920    0.3090   -0.5910 ho        1 TFL      0.443000
     29 H151       -8.2680   -0.5470   10.3870 h1        1 TFL      0.059033
     30 H152       -8.0200   -1.3720    8.7800 h1        1 TFL      0.059033
     31 H153       -8.1970    0.4480    8.8610 h1        1 TFL      0.059033
     32 H161       -6.6040   -0.4110   11.6290 h1        1 TFL      0.059033
     33 H162       -5.2240    0.6280   11.0480 h1        1 TFL      0.059033
     34 H163       -5.0880   -1.1950   10.9860 h1        1 TFL      0.059033
     35 H171       -0.8910    2.6510    5.2860 h1        1 TFL      0.087033
     36 H172       -2.1250    2.0970    6.5210 h1        1 TFL      0.087033
     37 H173       -0.5140    1.2230    6.3740 h1        1 TFL      0.087033
@<TRIPOS>BOND
     1    1    2 ar  
     2    1    6 ar  
     3    1   17 1   
     4    2    3 ar  
     5    2   21 1   
     6    3    4 ar  
     7    3   22 1   
     8    4    5 ar  
     9    4    7 1   
    10    5    6 ar  
    11    5   23 1   
    12    6   24 1   
    13    7    8 2   
    14    7   10 1   
    15    8    9 1   
    16    8   20 1   
    17    9   11 ar  
    18    9   15 ar  
    19   10   11 1   
    20   11   12 ar  
    21   12   13 ar  
    22   12   25 1   
    23   13   14 ar  
    24   13   16 1   
    25   14   15 ar  
    26   14   26 1   
    27   15   27 1   
    28   16   28 1   
    29   17   18 1   
    30   17   19 1   
    31   18   29 1   
    32   18   30 1   
    33   18   31 1   
    34   19   32 1   
    35   19   33 1   
    36   19   34 1   
    37   20   35 1   
    38   20   36 1   
    39   20   37 1   
@<TRIPOS>SUBSTRUCTURE
     1 TFL         1 TEMP              0 ****  ****    0 ROOT
