@<TRIPOS>MOLECULE
TFL
   38    40     1     0     0
SMALL
bcc


@<TRIPOS>ATOM
      1 C2          0.2040    0.1670   -0.1750 ca        1 TFL     -0.007400
      2 C3          1.4870    0.7280   -0.0410 ca        1 TFL     -0.096500
      3 C4          2.1180    0.7180    1.2020 ca        1 TFL     -0.072000
      4 C5          1.4840    0.1460    2.3130 ca        1 TFL     -0.126900
      5 C6          0.2020   -0.4020    2.1780 ca        1 TFL     -0.072000
      6 C7         -0.4410   -0.3950    0.9400 ca        1 TFL     -0.096500
      7 C8          2.1720    0.0810    3.6040 cc        1 TFL      0.115800
      8 N1          2.4870    1.1620    4.3720 na        1 TFL     -0.007200
      9 C9          3.1530    0.7710    5.5480 ca        1 TFL     -0.111200
     10 S1          2.6640   -1.3840    4.2590 ss        1 TFL      0.364900
     11 C10         3.3250   -0.6520    5.6200 ca        1 TFL     -0.099100
     12 C11         3.9640   -1.2260    6.7140 ca        1 TFL     -0.111000
     13 C12         4.4310   -0.3800    7.7340 ca        1 TFL      0.199100
     14 C13         4.2600    1.0280    7.6620 ca        1 TFL     -0.147000
     15 C14         3.6270    1.6080    6.5820 ca        1 TFL     -0.050000
     16 O3          5.0480   -0.9960    8.7770 oh        1 TFL     -0.447100
     17 N2         -0.4530    0.1720   -1.4950 n4        1 TFL     -0.557800
     18 C15        -0.6970   -1.2170   -1.9830 c3        1 TFL      0.085600
     19 C16        -1.7190    0.9590   -1.4700 c3        1 TFL      0.085600
     20 C17         2.1800    2.5400    4.0780 c3        1 TFL     -0.017400
     21 H3          2.0170    1.1780   -0.9010 ha        1 TFL      0.177500
     22 H4          3.1280    1.1540    1.2950 ha        1 TFL      0.181000
     23 H6         -0.3170   -0.8430    3.0480 ha        1 TFL      0.181000
     24 H7         -1.4500   -0.8360    0.8620 ha        1 TFL      0.177500
     25 H11         4.1130   -2.3150    6.7990 ha        1 TFL      0.197000
     26 H13         4.6390    1.6620    8.4830 ha        1 TFL      0.184000
     27 H14         3.4930    2.7010    6.5280 ha        1 TFL      0.174000
     28 HA          5.3340   -0.3310    9.4280 ho        1 TFL      0.460000
     29 H151        0.2760   -1.7780   -2.0130 hx        1 TFL      0.113367
     30 H152       -1.4130   -1.7400   -1.2950 hx        1 TFL      0.113367
     31 H153       -1.1390   -1.1650   -3.0160 hx        1 TFL      0.113367
     32 H161       -2.1480    0.9890   -2.5090 hx        1 TFL      0.113367
     33 H162       -2.4540    0.4730   -0.7750 hx        1 TFL      0.113367
     34 H163       -1.5010    2.0030   -1.1190 hx        1 TFL      0.113367
     35 H171        3.1260    3.1480    4.1270 h1        1 TFL      0.097700
     36 H172        1.4500    2.9280    4.8430 h1        1 TFL      0.097700
     37 H173        1.7320    2.6220    3.0530 h1        1 TFL      0.097700
     38 H21         0.1900    0.6300   -2.1620 hn        1 TFL      0.462800
@<TRIPOS>BOND
     1    1    2 ar  
     2    1    6 ar  
     3    1   17 1   
     4    2    3 ar  
     5    2   21 1   
     6    3    4 ar  
     7    3   22 1   
     8    4    5 ar  
     9    4    7 1   
    10    5    6 ar  
    11    5   23 1   
    12    6   24 1   
    13    7    8 2   
    14    7   10 1   
    15    8    9 1   
    16    8   20 1   
    17    9   11 ar  
    18    9   15 ar  
    19   10   11 1   
    20   11   12 ar  
    21   12   13 ar  
    22   12   25 1   
    23   13   14 ar  
    24   13   16 1   
    25   14   15 ar  
    26   14   26 1   
    27   15   27 1   
    28   16   28 1   
    29   17   18 1   
    30   17   19 1   
    31   17   38 1   
    32   18   29 1   
    33   18   30 1   
    34   18   31 1   
    35   19   32 1   
    36   19   33 1   
    37   19   34 1   
    38   20   35 1   
    39   20   36 1   
    40   20   37 1   
@<TRIPOS>SUBSTRUCTURE
     1 TFL         1 TEMP              0 ****  ****    0 ROOT
