@<TRIPOS>MOLECULE
TFL
   37    39     1     0     0
SMALL
bcc


@<TRIPOS>ATOM
      1 C2          0.0370   -0.0320   -0.0770 ca        1 TFL      0.266600
      2 C3          1.2790   -0.7170    0.1190 ca        1 TFL     -0.219500
      3 C4          1.9490   -0.6400    1.3180 ca        1 TFL     -0.020000
      4 C5          1.4460    0.1260    2.3940 ca        1 TFL     -0.298900
      5 C6          0.2220    0.8010    2.2150 ca        1 TFL     -0.020000
      6 C7         -0.4690    0.7270    1.0250 ca        1 TFL     -0.219500
      7 C8          2.1680    0.1490    3.6340 cc        1 TFL      0.270800
      8 N1          2.2880    1.2060    4.4890 na        1 TFL     -0.066200
      9 C9          3.0510    0.8650    5.6300 ca        1 TFL     -0.091200
     10 S1          2.9740   -1.2440    4.1770 ss        1 TFL      0.230900
     11 C10         3.5220   -0.4810    5.5810 ca        1 TFL     -0.087100
     12 C11         4.3060   -0.9870    6.6160 ca        1 TFL     -0.165000
     13 C12         4.6090   -0.1510    7.6930 ca        1 TFL      0.168100
     14 C13         4.1330    1.1870    7.7500 ca        1 TFL     -0.102000
     15 C14         3.3580    1.6950    6.7280 ca        1 TFL     -0.074000
     16 O3          5.3670   -0.5470    8.7580 oh        1 TFL     -0.465100
     17 N2         -0.6370   -0.1000   -1.2680 nh        1 TFL     -0.647000
     18 C15        -0.1170   -0.8840   -2.3580 c3        1 TFL      0.189100
     19 C16        -1.8830    0.5990   -1.4430 c3        1 TFL      0.189100
     20 C17         1.7710    2.5320    4.2750 c3        1 TFL     -0.006400
     21 H3          1.7150   -1.3160   -0.6960 ha        1 TFL      0.158000
     22 H4          2.9070   -1.1760    1.4350 ha        1 TFL      0.140000
     23 H6         -0.2160    1.3750    3.0490 ha        1 TFL      0.140000
     24 H7         -1.4290    1.2600    0.9370 ha        1 TFL      0.158000
     25 H11         4.6760   -2.0240    6.5850 ha        1 TFL      0.166000
     26 H13         4.3970    1.8040    8.6250 ha        1 TFL      0.185000
     27 H14         2.9860    2.7310    6.7740 ha        1 TFL      0.165000
     28 HA          5.6410   -1.4700    8.6260 ho        1 TFL      0.442000
     29 H151       -0.8070   -0.8270   -3.2400 h1        1 TFL      0.059033
     30 H152        0.8920   -0.4970   -2.6670 h1        1 TFL      0.059033
     31 H153       -0.0170   -1.9600   -2.0510 h1        1 TFL      0.059033
     32 H161       -1.7350    1.7020   -1.2860 h1        1 TFL      0.059033
     33 H162       -2.2760    0.4370   -2.4820 h1        1 TFL      0.059033
     34 H163       -2.6470    0.2250   -0.7080 h1        1 TFL      0.059033
     35 H171        0.7880    2.6460    4.8080 h1        1 TFL      0.087700
     36 H172        2.5030    3.2840    4.6770 h1        1 TFL      0.087700
     37 H173        1.6290    2.7090    3.1740 h1        1 TFL      0.087700
@<TRIPOS>BOND
     1    1    2 ar  
     2    1    6 ar  
     3    1   17 1   
     4    2    3 ar  
     5    2   21 1   
     6    3    4 ar  
     7    3   22 1   
     8    4    5 ar  
     9    4    7 1   
    10    5    6 ar  
    11    5   23 1   
    12    6   24 1   
    13    7    8 2   
    14    7   10 1   
    15    8    9 1   
    16    8   20 1   
    17    9   11 ar  
    18    9   15 ar  
    19   10   11 1   
    20   11   12 ar  
    21   12   13 ar  
    22   12   25 1   
    23   13   14 ar  
    24   13   16 1   
    25   14   15 ar  
    26   14   26 1   
    27   15   27 1   
    28   16   28 1   
    29   17   18 1   
    30   17   19 1   
    31   18   29 1   
    32   18   30 1   
    33   18   31 1   
    34   19   32 1   
    35   19   33 1   
    36   19   34 1   
    37   20   35 1   
    38   20   36 1   
    39   20   37 1   
@<TRIPOS>SUBSTRUCTURE
     1 TFL         1 TEMP              0 ****  ****    0 ROOT
