@<TRIPOS>MOLECULE
TFL
   37    39     1     0     0
SMALL
bcc


@<TRIPOS>ATOM
      1 C2          0.0270   -0.0150   -0.0740 ca        1 TFL      0.266600
      2 C3          1.2780   -0.6880    0.1070 ca        1 TFL     -0.219500
      3 C4          1.9530   -0.6180    1.3030 ca        1 TFL     -0.020500
      4 C5          1.4470    0.1280    2.3920 ca        1 TFL     -0.298900
      5 C6          0.2140    0.7910    2.2280 ca        1 TFL     -0.020500
      6 C7         -0.4820    0.7240    1.0410 ca        1 TFL     -0.219500
      7 C8          2.1750    0.1450    3.6280 cc        1 TFL      0.270800
      8 N1          2.2870    1.1930    4.4960 na        1 TFL     -0.066200
      9 C9          3.0590    0.8460    5.6280 ca        1 TFL     -0.091200
     10 S1          3.0010   -1.2450    4.1500 ss        1 TFL      0.230900
     11 C10         3.5460   -0.4930    5.5600 ca        1 TFL     -0.087100
     12 C11         4.3430   -1.0030    6.5840 ca        1 TFL     -0.165000
     13 C12         4.6400   -0.1760    7.6710 ca        1 TFL      0.168100
     14 C13         4.1490    1.1550    7.7460 ca        1 TFL     -0.102000
     15 C14         3.3620    1.6670    6.7350 ca        1 TFL     -0.074000
     16 O3          5.4090   -0.5770    8.7260 oh        1 TFL     -0.465100
     17 N2         -0.6530   -0.0760   -1.2620 nh        1 TFL     -0.647000
     18 C15        -0.1290   -0.8400   -2.3640 c3        1 TFL      0.189100
     19 C16        -1.9080    0.6100   -1.4220 c3        1 TFL      0.189100
     20 C17         1.7520    2.5150    4.3010 c3        1 TFL     -0.006400
     21 H3          1.7170   -1.2710   -0.7180 ha        1 TFL      0.158000
     22 H4          2.9190   -1.1430    1.4090 ha        1 TFL      0.140000
     23 H6         -0.2270    1.3490    3.0710 ha        1 TFL      0.140000
     24 H7         -1.4500    1.2460    0.9640 ha        1 TFL      0.158000
     25 H11         4.7250   -2.0340    6.5380 ha        1 TFL      0.166000
     26 H13         4.4100    1.7640    8.6280 ha        1 TFL      0.185000
     27 H14         2.9780    2.6970    6.7960 ha        1 TFL      0.165000
     28 HA          5.6940   -1.4940    8.5810 ho        1 TFL      0.442000
     29 H151        0.8740   -0.4370   -2.6740 h1        1 TFL      0.059033
     30 H152       -0.8250   -0.7800   -3.2420 h1        1 TFL      0.059033
     31 H153       -0.0140   -1.9190   -2.0710 h1        1 TFL      0.059033
     32 H161       -1.7720    1.7130   -1.2510 h1        1 TFL      0.059033
     33 H162       -2.3040    0.4560   -2.4610 h1        1 TFL      0.059033
     34 H163       -2.6640    0.2180   -0.6890 h1        1 TFL      0.059033
     35 H171        0.7700    2.6100    4.8410 h1        1 TFL      0.087700
     36 H172        2.4770    3.2710    4.7090 h1        1 TFL      0.087700
     37 H173        1.6020    2.7040    3.2030 h1        1 TFL      0.087700
@<TRIPOS>BOND
     1    1    2 ar  
     2    1    6 ar  
     3    1   17 1   
     4    2    3 ar  
     5    2   21 1   
     6    3    4 ar  
     7    3   22 1   
     8    4    5 ar  
     9    4    7 1   
    10    5    6 ar  
    11    5   23 1   
    12    6   24 1   
    13    7    8 2   
    14    7   10 1   
    15    8    9 1   
    16    8   20 1   
    17    9   11 ar  
    18    9   15 ar  
    19   10   11 1   
    20   11   12 ar  
    21   12   13 ar  
    22   12   25 1   
    23   13   14 ar  
    24   13   16 1   
    25   14   15 ar  
    26   14   26 1   
    27   15   27 1   
    28   16   28 1   
    29   17   18 1   
    30   17   19 1   
    31   18   29 1   
    32   18   30 1   
    33   18   31 1   
    34   19   32 1   
    35   19   33 1   
    36   19   34 1   
    37   20   35 1   
    38   20   36 1   
    39   20   37 1   
@<TRIPOS>SUBSTRUCTURE
     1 TFL         1 TEMP              0 ****  ****    0 ROOT
