@<TRIPOS>MOLECULE
TFM
   28    28     1     0     0
SMALL
bcc


@<TRIPOS>ATOM
      1 N1          0.0200   -0.1890    0.3820 n4        1 TFM     -0.850600
      2 C           1.4820   -0.1010    0.0160 c2        1 TFM      0.517100
      3 S           2.4390   -0.0060    1.4420 ss        1 TFM     -0.140300
      4 N2          1.9530   -0.0880   -1.1770 ne        1 TFM     -0.517100
      5 C1          1.2330   -0.1760   -2.3810 ca        1 TFM      0.098400
      6 C2          1.6090    0.6750   -3.4440 ca        1 TFM     -0.128000
      7 C3          0.9610    0.5820   -4.6740 ca        1 TFM     -0.063000
      8 C4         -0.0500   -0.3590   -4.8650 ca        1 TFM     -0.136300
      9 C5         -0.4120   -1.2280   -3.8320 ca        1 TFM     -0.063000
     10 C6          0.2180   -1.1380   -2.5960 ca        1 TFM     -0.128000
     11 C1'         4.1360    0.0670    0.9030 c3        1 TFM      0.013700
     12 C2'         4.9100    0.1300    2.1870 c3        1 TFM     -0.114100
     13 CM         -0.7760   -0.4420   -6.2100 c3        1 TFM      0.688200
     14 F1         -1.1830   -1.7090   -6.5450 f         1 TFM     -0.219300
     15 F2         -1.9210    0.3150   -6.2540 f         1 TFM     -0.219300
     16 F3         -0.0300   -0.0150   -7.2770 f         1 TFM     -0.219300
     17 HN11       -0.5780    0.0170   -0.4280 hn        1 TFM      0.467133
     18 HN12       -0.1910   -1.1340    0.7180 hn        1 TFM      0.467133
     19 H21         2.4160    1.4170   -3.3120 ha        1 TFM      0.151500
     20 H31         1.2590    1.2490   -5.5040 ha        1 TFM      0.178500
     21 H51        -1.1890   -1.9930   -4.0060 ha        1 TFM      0.178500
     22 H61        -0.0380   -1.8760   -1.8200 ha        1 TFM      0.151500
     23 H1'1        4.3990   -0.8380    0.3040 h1        1 TFM      0.098700
     24 H1'2        4.3080    0.9710    0.2710 h1        1 TFM      0.098700
     25 H2'1        4.6380    1.0350    2.7850 hc        1 TFM      0.074033
     26 H2'2        4.7400   -0.7810    2.8120 hc        1 TFM      0.074033
     27 H2'3        6.0040    0.1880    1.9500 hc        1 TFM      0.074033
     28 H13        -0.1780    0.4860    1.1290 hn        1 TFM      0.467133
@<TRIPOS>BOND
     1    1    2 1   
     2    1   17 1   
     3    1   18 1   
     4    1   28 1   
     5    2    3 1   
     6    2    4 2   
     7    3   11 1   
     8    4    5 1   
     9    5    6 ar  
    10    5   10 ar  
    11    6    7 ar  
    12    6   19 1   
    13    7    8 ar  
    14    7   20 1   
    15    8    9 ar  
    16    8   13 1   
    17    9   10 ar  
    18    9   21 1   
    19   10   22 1   
    20   11   12 1   
    21   11   23 1   
    22   11   24 1   
    23   12   25 1   
    24   12   26 1   
    25   12   27 1   
    26   13   14 1   
    27   13   15 1   
    28   13   16 1   
@<TRIPOS>SUBSTRUCTURE
     1 TFM         1 TEMP              0 ****  ****    0 ROOT
