@<TRIPOS>MOLECULE
TFM
   28    28     1     0     0
SMALL
bcc


@<TRIPOS>ATOM
      1 N1          0.0190   -0.1700    0.3810 n4        1 TFM     -0.850600
      2 C           1.4810   -0.0940    0.0150 c2        1 TFM      0.517100
      3 S           2.4380    0.0010    1.4420 ss        1 TFM     -0.140300
      4 N2          1.9530   -0.0890   -1.1770 ne        1 TFM     -0.517100
      5 C1          1.2330   -0.1780   -2.3820 ca        1 TFM      0.098400
      6 C2          1.6170    0.6660   -3.4470 ca        1 TFM     -0.128000
      7 C3          0.9690    0.5720   -4.6780 ca        1 TFM     -0.063000
      8 C4         -0.0490   -0.3620   -4.8650 ca        1 TFM     -0.136300
      9 C5         -0.4180   -1.2240   -3.8280 ca        1 TFM     -0.063000
     10 C6          0.2110   -1.1330   -2.5920 ca        1 TFM     -0.128000
     11 C1'         4.1350    0.0610    0.9040 c3        1 TFM      0.013700
     12 C2'         4.9090    0.1240    2.1880 c3        1 TFM     -0.114100
     13 CM         -0.7750   -0.4460   -6.2100 c3        1 TFM      0.688200
     14 F1         -1.1950   -1.7100   -6.5380 f         1 TFM     -0.219300
     15 F2         -1.9110    0.3230   -6.2600 f         1 TFM     -0.219300
     16 F3         -0.0240   -0.0330   -7.2790 f         1 TFM     -0.219300
     17 HN11       -0.1760    0.5080    1.1260 hn        1 TFM      0.467133
     18 HN12       -0.1990   -1.1140    0.7200 hn        1 TFM      0.467133
     19 H21         2.4290    1.4020   -3.3180 ha        1 TFM      0.151500
     20 H31         1.2720    1.2320   -5.5100 ha        1 TFM      0.178500
     21 H51        -1.2010   -1.9840   -4.0000 ha        1 TFM      0.178500
     22 H61        -0.0500   -1.8660   -1.8130 ha        1 TFM      0.151500
     23 H1'1        4.3140    0.9610    0.2680 h1        1 TFM      0.098700
     24 H1'2        4.3930   -0.8490    0.3090 h1        1 TFM      0.098700
     25 H2'1        6.0040    0.1750    1.9520 hc        1 TFM      0.074033
     26 H2'2        4.7330   -0.7840    2.8170 hc        1 TFM      0.074033
     27 H2'3        4.6420    1.0330    2.7820 hc        1 TFM      0.074033
     28 H13        -0.5780    0.0370   -0.4300 hn        1 TFM      0.467133
@<TRIPOS>BOND
     1    1    2 1   
     2    1   17 1   
     3    1   18 1   
     4    1   28 1   
     5    2    3 1   
     6    2    4 2   
     7    3   11 1   
     8    4    5 1   
     9    5    6 ar  
    10    5   10 ar  
    11    6    7 ar  
    12    6   19 1   
    13    7    8 ar  
    14    7   20 1   
    15    8    9 ar  
    16    8   13 1   
    17    9   10 ar  
    18    9   21 1   
    19   10   22 1   
    20   11   12 1   
    21   11   23 1   
    22   11   24 1   
    23   12   25 1   
    24   12   26 1   
    25   12   27 1   
    26   13   14 1   
    27   13   15 1   
    28   13   16 1   
@<TRIPOS>SUBSTRUCTURE
     1 TFM         1 TEMP              0 ****  ****    0 ROOT
