@<TRIPOS>MOLECULE
TFM
   27    27     1     0     0
SMALL
bcc


@<TRIPOS>ATOM
      1 N1         -2.1190    0.4510    2.1960 nh        1 TFM     -0.939800
      2 C          -0.7920    0.2030    2.5300 c2        1 TFM      0.682100
      3 S          -0.5340    0.1220    4.2620 ss        1 TFM     -0.220300
      4 N2          0.2310    0.0050    1.7370 ne        1 TFM     -0.699100
      5 C1          0.1500    0.0140    0.3370 ca        1 TFM      0.196400
      6 C2          1.1640    0.6880   -0.3890 ca        1 TFM     -0.162000
      7 C3          1.1820    0.6550   -1.7760 ca        1 TFM     -0.068500
      8 C4          0.1980   -0.0480   -2.4760 ca        1 TFM     -0.193300
      9 C5         -0.8020   -0.7290   -1.7820 ca        1 TFM     -0.068500
     10 C6         -0.8310   -0.6980   -0.3920 ca        1 TFM     -0.162000
     11 C1'         1.1650   -0.3440    4.4790 c3        1 TFM      0.001700
     12 C2'         1.3690   -0.4470    5.9620 c3        1 TFM     -0.096100
     13 CM          0.2090   -0.0590   -3.9970 c3        1 TFM      0.690200
     14 F1         -0.3150   -1.1940   -4.5670 f         1 TFM     -0.239967
     15 F2         -0.5100    0.9620   -4.5740 f         1 TFM     -0.239967
     16 F3          1.4560    0.0550   -4.5630 f         1 TFM     -0.239967
     17 HN11       -2.3200    0.7420    1.2670 hn        1 TFM      0.421800
     18 HN12       -2.6990    0.8310    2.9070 hn        1 TFM      0.421800
     19 H21         1.9500    1.2410    0.1500 ha        1 TFM      0.148500
     20 H31         1.9770    1.1800   -2.3310 ha        1 TFM      0.148500
     21 H51        -1.5660   -1.2960   -2.3380 ha        1 TFM      0.148500
     22 H61        -1.6110   -1.2680    0.1370 ha        1 TFM      0.148500
     23 H1'1        1.8410    0.4220    4.0280 h1        1 TFM      0.083200
     24 H1'2        1.3710   -1.3190    3.9730 h1        1 TFM      0.083200
     25 H2'1        2.4290   -0.7340    6.1750 hc        1 TFM      0.051367
     26 H2'2        1.1640    0.5300    6.4650 hc        1 TFM      0.051367
     27 H2'3        0.7000   -1.2230    6.4070 hc        1 TFM      0.051367
@<TRIPOS>BOND
     1    1    2 1   
     2    1   17 1   
     3    1   18 1   
     4    2    3 1   
     5    2    4 2   
     6    3   11 1   
     7    4    5 1   
     8    5    6 ar  
     9    5   10 ar  
    10    6    7 ar  
    11    6   19 1   
    12    7    8 ar  
    13    7   20 1   
    14    8    9 ar  
    15    8   13 1   
    16    9   10 ar  
    17    9   21 1   
    18   10   22 1   
    19   11   12 1   
    20   11   23 1   
    21   11   24 1   
    22   12   25 1   
    23   12   26 1   
    24   12   27 1   
    25   13   14 1   
    26   13   15 1   
    27   13   16 1   
@<TRIPOS>SUBSTRUCTURE
     1 TFM         1 TEMP              0 ****  ****    0 ROOT
