@<TRIPOS>MOLECULE
TFM
   28    28     1     0     0
SMALL
bcc


@<TRIPOS>ATOM
      1 N1          0.0240   -0.1970    0.3840 nz        1 TFM     -0.850600
      2 C           1.4840   -0.1040    0.0160 c2        1 TFM      0.517100
      3 S           2.4430   -0.0080    1.4410 ss        1 TFM     -0.140300
      4 N2          1.9540   -0.0870   -1.1780 ne        1 TFM     -0.517100
      5 C1          1.2320   -0.1760   -2.3810 ca        1 TFM      0.098400
      6 C2          1.6040    0.6780   -3.4420 ca        1 TFM     -0.128000
      7 C3          0.9540    0.5850   -4.6720 ca        1 TFM     -0.063000
      8 C4         -0.0540   -0.3590   -4.8630 ca        1 TFM     -0.136300
      9 C5         -0.4120   -1.2300   -3.8310 ca        1 TFM     -0.063000
     10 C6          0.2190   -1.1410   -2.5950 ca        1 TFM     -0.128000
     11 C1'         4.1390    0.0720    0.8990 c3        1 TFM      0.013700
     12 C2'         4.9150    0.1350    2.1820 c3        1 TFM     -0.114100
     13 CM         -0.7820   -0.4420   -6.2070 c3        1 TFM      0.688200
     14 F1         -1.1880   -1.7090   -6.5420 f         1 TFM     -0.219300
     15 F2         -1.9280    0.3140   -6.2480 f         1 TFM     -0.219300
     16 F3         -0.0390   -0.0130   -7.2750 f         1 TFM     -0.219300
     17 HN11       -0.5770    0.0090   -0.4240 hn        1 TFM      0.467133
     18 HN12       -0.1830   -1.1450    0.7190 hn        1 TFM      0.467133
     19 H21         2.4080    1.4220   -3.3100 ha        1 TFM      0.151500
     20 H31         1.2480    1.2540   -5.5010 ha        1 TFM      0.178500
     21 H51        -1.1870   -1.9970   -4.0050 ha        1 TFM      0.178500
     22 H61        -0.0330   -1.8810   -1.8200 ha        1 TFM      0.151500
     23 H1'1        4.4040   -0.8310    0.2980 h1        1 TFM      0.098700
     24 H1'2        4.3070    0.9780    0.2680 h1        1 TFM      0.098700
     25 H2'1        4.6410    1.0380    2.7820 hc        1 TFM      0.074033
     26 H2'2        4.7500   -0.7780    2.8050 hc        1 TFM      0.074033
     27 H2'3        6.0090    0.1980    1.9430 hc        1 TFM      0.074033
     28 H13        -0.1760    0.4750    1.1330 hn        1 TFM      0.467133
@<TRIPOS>BOND
     1    1    2 1   
     2    1   17 1   
     3    1   18 1   
     4    1   28 1   
     5    2    3 1   
     6    2    4 2   
     7    3   11 1   
     8    4    5 1   
     9    5    6 ar  
    10    5   10 ar  
    11    6    7 ar  
    12    6   19 1   
    13    7    8 ar  
    14    7   20 1   
    15    8    9 ar  
    16    8   13 1   
    17    9   10 ar  
    18    9   21 1   
    19   10   22 1   
    20   11   12 1   
    21   11   23 1   
    22   11   24 1   
    23   12   25 1   
    24   12   26 1   
    25   12   27 1   
    26   13   14 1   
    27   13   15 1   
    28   13   16 1   
@<TRIPOS>SUBSTRUCTURE
     1 TFM         1 TEMP              0 ****  ****    0 ROOT
