@<TRIPOS>MOLECULE
TFN
   68    69     1     0     0
SMALL
bcc


@<TRIPOS>ATOM
      1 C7         -5.5280    0.0580   -0.0670 c3        1 TFN     -0.248300
      2 S8         -4.5860    1.1070    0.9500 s6        1 TFN      1.452900
      3 C5         -6.8520    0.6240   -0.4180 ca        1 TFN     -0.073300
      4 C4         -6.9390    1.7470   -1.2540 ca        1 TFN     -0.114500
      5 C3         -8.1840    2.2600   -1.6090 ca        1 TFN     -0.127000
      6 C2         -9.3510    1.6590   -1.1380 ca        1 TFN     -0.122000
      7 C1         -9.2700    0.5420   -0.3060 ca        1 TFN     -0.127000
      8 C6         -8.0260    0.0240    0.0520 ca        1 TFN     -0.114500
      9 O35        -4.2890    2.2770    0.2170 o         1 TFN     -0.644300
     10 O34        -5.2390    1.2440    2.1860 o         1 TFN     -0.644300
     11 N9         -3.2360    0.2370    1.1480 n3        1 TFN     -0.911100
     12 C10        -2.0210    0.4200    0.4100 c3        1 TFN      0.178500
     13 C11        -1.7950   -0.6480   -0.6890 c3        1 TFN      0.111400
     14 O12        -1.5210   -1.8750   -0.0350 os        1 TFN     -0.421600
     15 C13        -1.2040   -2.9760   -0.9090 c3        1 TFN      0.151800
     16 C15         0.0050   -2.6620   -1.7780 c3        1 TFN     -0.111433
     17 C16        -0.8800   -4.1160    0.0550 c3        1 TFN     -0.111433
     18 C14        -2.4080   -3.3400   -1.7680 c3        1 TFN     -0.111433
     19 C17        -0.7820    0.4260    1.3410 c         1 TFN      0.652100
     20 O18        -0.8390    0.0630    2.5290 o         1 TFN     -0.581100
     21 N19         0.3880    0.9410    0.7900 n         1 TFN     -0.531900
     22 C20         1.6430    0.7760    1.4650 c3        1 TFN      0.006000
     23 C21         2.5790   -0.2430    0.7890 c         1 TFN      0.629100
     24 O22         2.4150   -0.5900   -0.4000 o         1 TFN     -0.630100
     25 N23         3.5930   -0.7640    1.5650 n         1 TFN     -0.549900
     26 C24         4.6180   -1.6130    1.0180 c3        1 TFN      0.129300
     27 C25         5.8520   -0.8880    0.5580 ca        1 TFN     -0.116300
     28 C30         7.0480   -0.9990    1.2710 ca        1 TFN     -0.124500
     29 C29         8.1940   -0.3410    0.8250 ca        1 TFN     -0.102000
     30 C28         8.1450    0.4290   -0.3410 ca        1 TFN     -0.134900
     31 C31         9.3780    1.1380   -0.8150 ce        1 TFN      0.650800
     32 N32        10.0340    1.8690    0.0340 n2        1 TFN     -0.826100
     33 N33         9.6470    0.9750   -2.1920 nh        1 TFN     -0.959800
     34 C27         6.9470    0.5490   -1.0530 ca        1 TFN     -0.102000
     35 C26         5.8050   -0.1100   -0.6030 ca        1 TFN     -0.124500
     36 H7         -4.9810   -0.1600   -1.0240 h1        1 TFN      0.109700
     37 H7A        -5.6780   -0.9400    0.4260 h1        1 TFN      0.109700
     38 H4         -6.0170    2.2340   -1.6100 ha        1 TFN      0.142500
     39 H3         -8.2440    3.1450   -2.2590 ha        1 TFN      0.134500
     40 H2        -10.3330    2.0660   -1.4190 ha        1 TFN      0.133000
     41 H1        -10.1880    0.0690    0.0720 ha        1 TFN      0.134500
     42 H6         -7.9700   -0.8550    0.7110 ha        1 TFN      0.142500
     43 HN9        -3.1450   -0.4450    1.8700 hn        1 TFN      0.474800
     44 H10        -2.0770    1.4250   -0.1170 h1        1 TFN      0.100700
     45 H11        -2.7130   -0.7480   -1.3280 h1        1 TFN      0.039200
     46 H11A       -0.9320   -0.3400   -1.3360 h1        1 TFN      0.039200
     47 H15         0.7950   -2.1480   -1.1750 hc        1 TFN      0.047144
     48 H15A        0.4250   -3.6100   -2.1910 hc        1 TFN      0.047144
     49 H15B       -0.2780   -2.0030   -2.6340 hc        1 TFN      0.047144
     50 H16        -1.7490   -4.3040    0.7290 hc        1 TFN      0.047144
     51 H16A       -0.6550   -5.0400   -0.5270 hc        1 TFN      0.047144
     52 H16B        0.0040   -3.8460    0.6790 hc        1 TFN      0.047144
     53 H14        -2.5880   -2.5650   -2.5500 hc        1 TFN      0.047144
     54 H14A       -2.2240   -4.3180   -2.2730 hc        1 TFN      0.047144
     55 H14B       -3.3200   -3.4260   -1.1300 hc        1 TFN      0.047144
     56 HN19        0.4500    0.9620   -0.2060 hn        1 TFN      0.314500
     57 H20         2.1820    1.7690    1.4480 h1        1 TFN      0.090200
     58 H20A        1.4540    0.4840    2.5390 h1        1 TFN      0.090200
     59 HN23        3.7820   -0.3400    2.4430 hn        1 TFN      0.312500
     60 H24         4.8970   -2.3630    1.8150 h1        1 TFN      0.071200
     61 H24A        4.1820   -2.1740    0.1390 h1        1 TFN      0.071200
     62 H30         7.0920   -1.6050    2.1880 ha        1 TFN      0.144000
     63 H29         9.1320   -0.4190    1.3970 ha        1 TFN      0.148000
     64 HN32       10.8500    2.3300   -0.3100 hn        1 TFN      0.383400
     65 HN33        9.2160    0.1910   -2.6230 hn        1 TFN      0.399800
     66 HN3A       10.5780    1.1470   -2.4900 hn        1 TFN      0.399800
     67 H27         6.8980    1.1710   -1.9600 ha        1 TFN      0.148000
     68 H26         4.8560   -0.0240   -1.1580 ha        1 TFN      0.144000
@<TRIPOS>BOND
     1    1    2 1   
     2    1    3 1   
     3    1   36 1   
     4    1   37 1   
     5    2    9 2   
     6    2   10 2   
     7    2   11 1   
     8    3    4 ar  
     9    3    8 ar  
    10    4    5 ar  
    11    4   38 1   
    12    5    6 ar  
    13    5   39 1   
    14    6    7 ar  
    15    6   40 1   
    16    7    8 ar  
    17    7   41 1   
    18    8   42 1   
    19   11   12 1   
    20   11   43 1   
    21   12   13 1   
    22   12   19 1   
    23   12   44 1   
    24   13   14 1   
    25   13   45 1   
    26   13   46 1   
    27   14   15 1   
    28   15   16 1   
    29   15   17 1   
    30   15   18 1   
    31   16   47 1   
    32   16   48 1   
    33   16   49 1   
    34   17   50 1   
    35   17   51 1   
    36   17   52 1   
    37   18   53 1   
    38   18   54 1   
    39   18   55 1   
    40   19   20 2   
    41   19   21 1   
    42   21   22 1   
    43   21   56 1   
    44   22   23 1   
    45   22   57 1   
    46   22   58 1   
    47   23   24 2   
    48   23   25 1   
    49   25   26 1   
    50   25   59 1   
    51   26   27 1   
    52   26   60 1   
    53   26   61 1   
    54   27   28 ar  
    55   27   35 ar  
    56   28   29 ar  
    57   28   62 1   
    58   29   30 ar  
    59   29   63 1   
    60   30   31 1   
    61   30   34 ar  
    62   31   32 2   
    63   31   33 1   
    64   32   64 1   
    65   33   65 1   
    66   33   66 1   
    67   34   35 ar  
    68   34   67 1   
    69   35   68 1   
@<TRIPOS>SUBSTRUCTURE
     1 TFN         1 TEMP              0 ****  ****    0 ROOT
