@<TRIPOS>MOLECULE
TFO
   31    26     1     0     0
SMALL
bcc


@<TRIPOS>ATOM
      1 P           2.1080   -4.9030    0.2430 p3        1 TFO      2.623000
      2 OP2         2.8020   -4.8400    1.6130 os        1 TFO     -1.197000
      3 OP1         0.8280   -5.6720    0.3650 o         1 TFO     -0.999500
      4 C9'         1.7450   -3.2090   -0.3340 c3        1 TFO     -0.664000
      5 O9'         0.8960   -2.5980    0.5520 os        1 TFO     -0.257000
      6 C8'         1.5260   -0.5550    1.5670 c3        1 TFO     -0.233000
      7 C7'         0.8410   -1.1880    0.4140 c3        1 TFO      0.129000
      8 C6'        -0.6030   -0.7370    0.3750 c3        1 TFO     -0.457000
      9 N9         -0.6950    0.5190   -0.3260 n3        1 TFO      0.173000
     10 C4         -1.1820    1.7210    0.0820 c1        1 TFO     -0.168000
     11 N3         -1.5180    2.1930    1.2960 n1        1 TFO     -0.101000
     12 C2         -2.0440    3.4670    1.4210 c1        1 TFO     -0.146000
     13 N1         -2.2190    4.2380    0.3250 n1        1 TFO     -0.266000
     14 C6         -1.8850    3.7700   -0.8870 c1        1 TFO      0.109000
     15 N6         -2.0320    4.8010   -1.7580 n2        1 TFO     -0.308000
     16 C5         -1.3590    2.4950   -1.0160 c1        1 TFO     -0.193000
     17 N7         -0.9790    1.7690   -2.1100 n1        1 TFO     -0.170000
     18 C8         -0.5710    0.5540   -1.6850 c1        1 TFO     -0.289000
     19 OP3         3.0010   -5.5800   -0.7320 o         1 TFO     -0.999500
     20 H9'1        1.3240   -3.2470   -1.2150 h1        1 TFO      0.072500
     21 H9'2        2.5690   -2.7050   -0.3920 h1        1 TFO      0.072500
     22 H8'1        2.4180   -0.9290    1.6590 hc        1 TFO      0.064667
     23 H8'2        1.0020   -0.7300    2.4020 hc        1 TFO      0.064667
     24 H8'3        1.5900    0.4000    1.4200 hc        1 TFO      0.064667
     25 H7'         1.3030   -0.9130   -0.4460 h1        1 TFO      0.045000
     26 H6'1       -0.9410   -0.6250    1.3030 h1        1 TFO      0.195000
     27 H6'2       -1.1390   -1.4050   -0.0860 h1        1 TFO      0.195000
     28 H2         -2.2910    3.8160    2.3160 ha        1 TFO      0.142000
     29 HN61       -1.7560    4.7090   -2.6270 hn        1 TFO      0.161500
     30 HN62       -2.4090    5.5860   -1.4780 hn        1 TFO      0.161500
     31 H8         -0.3310   -0.2030   -2.2590 DU        1 TFO      0.175000
@<TRIPOS>BOND
     1    1    3 1   
     2    1    4 1   
     3    1   19 1   
     4    4    5 1   
     5    4   20 1   
     6    4   21 1   
     7    5    7 1   
     8    6    7 1   
     9    6   22 1   
    10    6   23 1   
    11    6   24 1   
    12    7    8 1   
    13    7   25 1   
    14    8    9 1   
    15    8   26 1   
    16    8   27 1   
    17    9   10 1   
    18    9   18 1   
    19   10   16 1   
    20   11   12 1   
    21   12   28 1   
    22   13   14 1   
    23   14   16 1   
    24   15   29 1   
    25   15   30 1   
    26   17   18 1   
@<TRIPOS>SUBSTRUCTURE
     1 TFO         1 TEMP              0 ****  ****    0 ROOT
