@<TRIPOS>MOLECULE
TFO
   31    32     1     0     0
SMALL
bcc


@<TRIPOS>ATOM
      1 P           1.8150   -2.0210    3.1710 p5        1 TFO      1.341600
      2 OP2         1.4560   -3.4190    2.8180 o         1 TFO     -0.875500
      3 OP1         3.2560   -1.7560    2.4300 oh        1 TFO     -0.780400
      4 C9'         0.7520   -0.9390    2.3620 c3        1 TFO     -0.099800
      5 O9'         1.1930   -0.9060    1.0180 os        1 TFO     -0.436600
      6 C8'         0.7440   -1.0370   -1.2800 c3        1 TFO     -0.091100
      7 C7'         0.1770   -0.5690    0.0580 c3        1 TFO      0.177800
      8 C6'        -0.2390    0.8480    0.0330 c2        1 TFO     -0.267800
      9 N9          0.5760    1.8930   -0.2200 na        1 TFO      0.013000
     10 C4          0.1850    3.2100   -0.5330 ca        1 TFO      0.236800
     11 N3         -1.0450    3.8090   -0.5750 nb        1 TFO     -0.646000
     12 C2         -0.9960    5.1130   -0.8700 ca        1 TFO      0.534900
     13 N1          0.0920    5.9290   -1.1220 nb        1 TFO     -0.805000
     14 C6          1.3120    5.3490   -1.0980 ca        1 TFO      0.642200
     15 N6          2.4730    6.0940   -1.4230 nh        1 TFO     -0.912500
     16 C5          1.4500    3.9490   -0.7900 ca        1 TFO     -0.196200
     17 N7          2.5220    3.1130   -0.6460 nc        1 TFO     -0.601100
     18 C8          1.9800    1.8970   -0.3050 cd        1 TFO      0.235700
     19 OP3         1.9490   -1.5950    4.5860 o         1 TFO     -0.875500
     20 H9'1        0.7680    0.0980    2.7780 h1        1 TFO      0.040700
     21 H9'2       -0.3020   -1.3060    2.4330 h1        1 TFO      0.040700
     22 H8'1        0.9940   -2.1230   -1.2340 hc        1 TFO      0.023033
     23 H8'2       -0.0150   -0.8630   -2.0780 hc        1 TFO      0.023033
     24 H8'3        1.6700   -0.4680   -1.5300 hc        1 TFO      0.023033
     25 H7'        -0.7450   -1.1780    0.2940 h1        1 TFO      0.013700
     26 H6'1       -1.2950    1.0850    0.1940 h4        1 TFO      0.004800
     27 H6'2        3.2140   -1.9270    1.4980 ho        1 TFO      0.419000
     28 H2         -1.9680    5.6370   -0.9210 h5        1 TFO      0.001100
     29 HN61        3.2920    5.6720   -1.0360 hn        1 TFO      0.369300
     30 HN62        2.4070    7.0590   -1.1750 hn        1 TFO      0.369300
     31 H8          2.5510    1.0000   -0.0450 h5        1 TFO      0.075800
@<TRIPOS>BOND
     1    1    2 1   
     2    1    3 1   
     3    1    4 1   
     4    1   19 1   
     5    3   27 1   
     6    4    5 1   
     7    4   20 1   
     8    4   21 1   
     9    5    7 1   
    10    6    7 1   
    11    6   22 1   
    12    6   23 1   
    13    6   24 1   
    14    7    8 1   
    15    7   25 1   
    16    8    9 2   
    17    8   26 1   
    18    9   10 1   
    19    9   18 1   
    20   10   11 ar  
    21   10   16 ar  
    22   11   12 ar  
    23   12   13 ar  
    24   12   28 1   
    25   13   14 ar  
    26   14   15 1   
    27   14   16 ar  
    28   15   29 1   
    29   15   30 1   
    30   16   17 1   
    31   17   18 2   
    32   18   31 1   
@<TRIPOS>SUBSTRUCTURE
     1 TFO         1 TEMP              0 ****  ****    0 ROOT
