@<TRIPOS>MOLECULE
TFP
   52    55     1     0     0
SMALL
bcc


@<TRIPOS>ATOM
      1 C1          0.0460   -0.0870   -0.0230 ca        1 TFP     -0.141300
      2 C2          1.4370   -0.1620   -0.0310 ca        1 TFP     -0.102000
      3 C3          2.1140   -0.1800    1.1850 ca        1 TFP     -0.098000
      4 C4          1.4250   -0.0990    2.3960 ca        1 TFP      0.001900
      5 C5          0.0080   -0.0110    2.4110 ca        1 TFP      0.072700
      6 C6         -0.6690   -0.0240    1.1720 ca        1 TFP     -0.132000
      7 S           2.3750   -0.0820    3.7940 ss        1 TFP     -0.144800
      8 C7          1.2520   -0.4700    5.0020 ca        1 TFP     -0.032100
      9 C8          1.7830   -0.9060    6.2170 ca        1 TFP     -0.082000
     10 C9          0.9540   -1.2110    7.2920 ca        1 TFP     -0.149000
     11 C10        -0.4260   -1.0980    7.1390 ca        1 TFP     -0.096000
     12 C11        -0.9780   -0.6830    5.9310 ca        1 TFP     -0.174000
     13 C12        -0.1490   -0.3480    4.8360 ca        1 TFP      0.077700
     14 N1         -0.6870    0.1480    3.6280 na        1 TFP     -0.166100
     15 C13        -2.0840    0.5230    3.5920 c3        1 TFP      0.035300
     16 C14        -3.0920   -0.6120    3.3880 c3        1 TFP     -0.119400
     17 C15        -4.5000   -0.0520    3.5870 c3        1 TFP      0.173800
     18 N2         -5.5560   -0.9540    3.1510 n3        1 TFP     -0.728600
     19 C16        -6.8550   -0.2920    3.1520 c3        1 TFP      0.167300
     20 C17        -8.0070   -1.2250    2.7360 c3        1 TFP      0.167800
     21 N3         -8.0280   -2.4690    3.4920 n3        1 TFP     -0.732600
     22 C18        -6.7340   -3.1360    3.4810 c3        1 TFP      0.167800
     23 C19        -5.5760   -2.2070    3.8910 c3        1 TFP      0.167300
     24 C20        -9.1040   -3.3440    3.0850 c3        1 TFP      0.157100
     25 C21        -0.7210   -0.0950   -1.3410 c3        1 TFP      0.687200
     26 F1         -0.0030    0.3480   -2.4250 f         1 TFP     -0.236967
     27 F2         -1.1700   -1.3370   -1.7230 f         1 TFP     -0.236967
     28 F3         -1.8530    0.6840   -1.3470 f         1 TFP     -0.236967
     29 H2          1.9900   -0.2070   -0.9820 ha        1 TFP      0.155000
     30 H3          3.2140   -0.2550    1.1960 ha        1 TFP      0.151000
     31 H6         -1.7680    0.0250    1.1160 ha        1 TFP      0.158000
     32 H8          2.8770   -1.0050    6.3190 ha        1 TFP      0.144000
     33 H9          1.3850   -1.5410    8.2470 ha        1 TFP      0.139000
     34 H10        -1.0940   -1.3420    7.9800 ha        1 TFP      0.136000
     35 H11        -2.0730   -0.6180    5.8550 ha        1 TFP      0.140000
     36 H131       -2.2160    1.2830    2.7670 h1        1 TFP      0.062700
     37 H132       -2.3170    1.0520    4.5620 h1        1 TFP      0.062700
     38 H141       -2.9880   -1.0490    2.3610 hc        1 TFP      0.060700
     39 H142       -2.9020   -1.4420    4.1170 hc        1 TFP      0.060700
     40 H151       -4.5990    0.8930    2.9790 h1        1 TFP      0.031700
     41 H152       -4.6170    0.2340    4.6760 h1        1 TFP      0.031700
     42 H161       -6.8110    0.5510    2.4060 h1        1 TFP      0.036950
     43 H162       -7.0950    0.1510    4.1620 h1        1 TFP      0.036950
     44 H171       -7.9370   -1.4120    1.6240 h1        1 TFP      0.038200
     45 H172       -8.9740   -0.6850    2.9350 h1        1 TFP      0.038200
     46 H181       -6.5010   -3.5770    2.4680 h1        1 TFP      0.038200
     47 H182       -6.7770   -3.9800    4.2240 h1        1 TFP      0.038200
     48 H191       -4.6140   -2.7500    3.6710 h1        1 TFP      0.036950
     49 H192       -5.6300   -2.0330    5.0060 h1        1 TFP      0.036950
     50 H201       -9.0140   -3.6990    2.0210 h1        1 TFP      0.032700
     51 H202      -10.0760   -2.7960    3.1970 h1        1 TFP      0.032700
     52 H203       -9.1140   -4.2400    3.7590 h1        1 TFP      0.032700
@<TRIPOS>BOND
     1    1    2 ar  
     2    1    6 ar  
     3    1   25 1   
     4    2    3 ar  
     5    2   29 1   
     6    3    4 ar  
     7    3   30 1   
     8    4    5 ar  
     9    4    7 1   
    10    5    6 ar  
    11    5   14 1   
    12    6   31 1   
    13    7    8 1   
    14    8    9 ar  
    15    8   13 ar  
    16    9   10 ar  
    17    9   32 1   
    18   10   11 ar  
    19   10   33 1   
    20   11   12 ar  
    21   11   34 1   
    22   12   13 ar  
    23   12   35 1   
    24   13   14 1   
    25   14   15 1   
    26   15   16 1   
    27   15   36 1   
    28   15   37 1   
    29   16   17 1   
    30   16   38 1   
    31   16   39 1   
    32   17   18 1   
    33   17   40 1   
    34   17   41 1   
    35   18   19 1   
    36   18   23 1   
    37   19   20 1   
    38   19   42 1   
    39   19   43 1   
    40   20   21 1   
    41   20   44 1   
    42   20   45 1   
    43   21   22 1   
    44   21   24 1   
    45   22   23 1   
    46   22   46 1   
    47   22   47 1   
    48   23   48 1   
    49   23   49 1   
    50   24   50 1   
    51   24   51 1   
    52   24   52 1   
    53   25   26 1   
    54   25   27 1   
    55   25   28 1   
@<TRIPOS>SUBSTRUCTURE
     1 TFP         1 TEMP              0 ****  ****    0 ROOT
