@<TRIPOS>MOLECULE
TFP
   52    55     1     0     0
SMALL
bcc


@<TRIPOS>ATOM
      1 C1          0.0440   -0.0940   -0.0280 ca        1 TFP     -0.141300
      2 C2          1.4350   -0.1700   -0.0360 ca        1 TFP     -0.102000
      3 C3          2.1130   -0.1870    1.1780 ca        1 TFP     -0.098000
      4 C4          1.4260   -0.1050    2.3900 ca        1 TFP      0.001900
      5 C5          0.0090   -0.0150    2.4070 ca        1 TFP      0.072700
      6 C6         -0.6700   -0.0290    1.1680 ca        1 TFP     -0.132000
      7 S           2.3760   -0.0870    3.7870 ss        1 TFP     -0.143800
      8 C7          1.2550   -0.4710    4.9970 ca        1 TFP     -0.032100
      9 C8          1.7860   -0.9070    6.2120 ca        1 TFP     -0.082000
     10 C9          0.9580   -1.2090    7.2880 ca        1 TFP     -0.149000
     11 C10        -0.4220   -1.0950    7.1370 ca        1 TFP     -0.096000
     12 C11        -0.9750   -0.6810    5.9280 ca        1 TFP     -0.174000
     13 C12        -0.1470   -0.3480    4.8320 ca        1 TFP      0.077700
     14 N1         -0.6850    0.1460    3.6230 na        1 TFP     -0.166100
     15 C13        -2.0820    0.5230    3.5880 c3        1 TFP      0.035300
     16 C14        -3.0910   -0.6120    3.3870 c3        1 TFP     -0.119400
     17 C15        -4.4990   -0.0500    3.5860 c3        1 TFP      0.173800
     18 N2         -5.5560   -0.9530    3.1540 n3        1 TFP     -0.728600
     19 C16        -6.8540   -0.2890    3.1500 c3        1 TFP      0.167300
     20 C17        -8.0070   -1.2220    2.7380 c3        1 TFP      0.167800
     21 N3         -8.0300   -2.4620    3.5010 n3        1 TFP     -0.732600
     22 C18        -6.7370   -3.1310    3.4930 c3        1 TFP      0.167800
     23 C19        -5.5770   -2.2030    3.8990 c3        1 TFP      0.167300
     24 C20        -9.1070   -3.3380    3.0980 c3        1 TFP      0.157100
     25 C21        -0.7250   -0.1030   -1.3440 c3        1 TFP      0.687200
     26 F1         -0.0070    0.3370   -2.4300 f         1 TFP     -0.236967
     27 F2         -1.1760   -1.3440   -1.7240 f         1 TFP     -0.236967
     28 F3         -1.8550    0.6790   -1.3510 f         1 TFP     -0.236967
     29 H2          1.9860   -0.2170   -0.9880 ha        1 TFP      0.155000
     30 H3          3.2130   -0.2640    1.1880 ha        1 TFP      0.151000
     31 H6         -1.7690    0.0210    1.1130 ha        1 TFP      0.158000
     32 H8          2.8800   -1.0060    6.3140 ha        1 TFP      0.144000
     33 H9          1.3890   -1.5380    8.2430 ha        1 TFP      0.139000
     34 H10        -1.0900   -1.3370    7.9780 ha        1 TFP      0.136000
     35 H11        -2.0710   -0.6150    5.8530 ha        1 TFP      0.140000
     36 H131       -2.2140    1.2810    2.7630 h1        1 TFP      0.062700
     37 H132       -2.3140    1.0530    4.5580 h1        1 TFP      0.062700
     38 H141       -2.9010   -1.4400    4.1180 hc        1 TFP      0.060700
     39 H142       -2.9880   -1.0510    2.3610 hc        1 TFP      0.060700
     40 H151       -4.6140    0.2390    4.6730 h1        1 TFP      0.031700
     41 H152       -4.5970    0.8930    2.9750 h1        1 TFP      0.031700
     42 H161       -7.0940    0.1600    4.1580 h1        1 TFP      0.036950
     43 H162       -6.8080    0.5500    2.4000 h1        1 TFP      0.036950
     44 H171       -7.9360   -1.4160    1.6280 h1        1 TFP      0.038200
     45 H172       -8.9740   -0.6800    2.9340 h1        1 TFP      0.038200
     46 H181       -6.5040   -3.5780    2.4820 h1        1 TFP      0.038200
     47 H182       -6.7810   -3.9720    4.2410 h1        1 TFP      0.038200
     48 H191       -5.6310   -2.0220    5.0130 h1        1 TFP      0.036950
     49 H192       -4.6160   -2.7470    3.6820 h1        1 TFP      0.036950
     50 H201      -10.0780   -2.7880    3.2070 h1        1 TFP      0.032700
     51 H202       -9.1180   -4.2310    3.7770 h1        1 TFP      0.032700
     52 H203       -9.0170   -3.6980    2.0360 h1        1 TFP      0.032700
@<TRIPOS>BOND
     1    1    2 ar  
     2    1    6 ar  
     3    1   25 1   
     4    2    3 ar  
     5    2   29 1   
     6    3    4 ar  
     7    3   30 1   
     8    4    5 ar  
     9    4    7 1   
    10    5    6 ar  
    11    5   14 1   
    12    6   31 1   
    13    7    8 1   
    14    8    9 ar  
    15    8   13 ar  
    16    9   10 ar  
    17    9   32 1   
    18   10   11 ar  
    19   10   33 1   
    20   11   12 ar  
    21   11   34 1   
    22   12   13 ar  
    23   12   35 1   
    24   13   14 1   
    25   14   15 1   
    26   15   16 1   
    27   15   36 1   
    28   15   37 1   
    29   16   17 1   
    30   16   38 1   
    31   16   39 1   
    32   17   18 1   
    33   17   40 1   
    34   17   41 1   
    35   18   19 1   
    36   18   23 1   
    37   19   20 1   
    38   19   42 1   
    39   19   43 1   
    40   20   21 1   
    41   20   44 1   
    42   20   45 1   
    43   21   22 1   
    44   21   24 1   
    45   22   23 1   
    46   22   46 1   
    47   22   47 1   
    48   23   48 1   
    49   23   49 1   
    50   24   50 1   
    51   24   51 1   
    52   24   52 1   
    53   25   26 1   
    54   25   27 1   
    55   25   28 1   
@<TRIPOS>SUBSTRUCTURE
     1 TFP         1 TEMP              0 ****  ****    0 ROOT
