@<TRIPOS>MOLECULE
TFP
   52    55     1     0     0
SMALL
bcc


@<TRIPOS>ATOM
      1 C1         -2.3210   -0.2500   -2.4060 ca        1 TFP     -0.141300
      2 C2         -2.0540   -0.5790   -3.7330 ca        1 TFP     -0.102000
      3 C3         -0.7400   -0.5170   -4.1880 ca        1 TFP     -0.098000
      4 C4          0.2970   -0.1110   -3.3460 ca        1 TFP      0.001900
      5 C5          0.0300    0.2380   -1.9960 ca        1 TFP      0.072700
      6 C6         -1.3030    0.1420   -1.5390 ca        1 TFP     -0.132000
      7 S           1.8350   -0.0340   -4.0420 ss        1 TFP     -0.144800
      8 C7          2.8480   -0.0020   -2.6840 ca        1 TFP     -0.032100
      9 C8          4.1880   -0.3190   -2.9100 ca        1 TFP     -0.082000
     10 C9          5.1150   -0.2830   -1.8730 ca        1 TFP     -0.149000
     11 C10         4.6900    0.0540   -0.5910 ca        1 TFP     -0.096000
     12 C11         3.3550    0.3550   -0.3400 ca        1 TFP     -0.174000
     13 C12         2.4030    0.3450   -1.3840 ca        1 TFP      0.077700
     14 N1          1.0600    0.7220   -1.1640 na        1 TFP     -0.166100
     15 C13         0.7100    1.3360    0.0990 c3        1 TFP      0.035300
     16 C14         0.4690    0.3880    1.2770 c3        1 TFP     -0.119400
     17 C15         0.3220    1.2220    2.5490 c3        1 TFP      0.173800
     18 N2         -0.1850    0.4690    3.6880 n3        1 TFP     -0.728600
     19 C16        -0.5180    1.3490    4.8010 c3        1 TFP      0.167300
     20 C17        -1.0190    0.5870    6.0420 c3        1 TFP      0.167800
     21 N3         -0.1240   -0.4880    6.4450 n3        1 TFP     -0.732600
     22 C18         0.1990   -1.3730    5.3350 c3        1 TFP      0.167800
     23 C19         0.6960   -0.6180    4.0880 c3        1 TFP      0.167300
     24 C20        -0.6100   -1.2060    7.6010 c3        1 TFP      0.157100
     25 C21        -3.7480   -0.3370   -1.8760 c3        1 TFP      0.687200
     26 F1         -4.7240   -0.2210   -2.8350 f         1 TFP     -0.236967
     27 F2         -4.0410   -1.5220   -1.2430 f         1 TFP     -0.236967
     28 F3         -4.0730    0.6250   -0.9500 f         1 TFP     -0.236967
     29 H2         -2.8680   -0.8830   -4.4090 ha        1 TFP      0.155000
     30 H3         -0.5100   -0.7900   -5.2310 ha        1 TFP      0.151000
     31 H6         -1.5730    0.3820   -0.4980 ha        1 TFP      0.158000
     32 H8          4.5090   -0.5980   -3.9270 ha        1 TFP      0.144000
     33 H9          6.1710   -0.5220   -2.0670 ha        1 TFP      0.139000
     34 H10         5.4120    0.0800    0.2390 ha        1 TFP      0.136000
     35 H11         3.0630    0.6060    0.6910 ha        1 TFP      0.140000
     36 H131       -0.2180    1.9580   -0.0660 h1        1 TFP      0.062700
     37 H132        1.5400    2.0530    0.3680 h1        1 TFP      0.062700
     38 H141        1.3240   -0.3300    1.3850 hc        1 TFP      0.060700
     39 H142       -0.4530   -0.2260    1.1050 hc        1 TFP      0.060700
     40 H151       -0.4130    2.0540    2.3480 h1        1 TFP      0.031700
     41 H152        1.3210    1.7010    2.7760 h1        1 TFP      0.031700
     42 H161       -1.3460    2.0330    4.4620 h1        1 TFP      0.036950
     43 H162        0.3610    1.9910    5.1020 h1        1 TFP      0.036950
     44 H171       -2.0630    0.2080    5.8360 h1        1 TFP      0.038200
     45 H172       -1.0800    1.3210    6.8930 h1        1 TFP      0.038200
     46 H181        1.0240   -2.0600    5.6730 h1        1 TFP      0.038200
     47 H182       -0.6850   -2.0130    5.0410 h1        1 TFP      0.038200
     48 H191        0.7360   -1.3570    3.2400 h1        1 TFP      0.036950
     49 H192        1.7470   -0.2530    4.2820 h1        1 TFP      0.036950
     50 H201        0.1620   -1.9600    7.9070 h1        1 TFP      0.032700
     51 H202       -0.7570   -0.4780    8.4410 h1        1 TFP      0.032700
     52 H203       -1.5810   -1.7430    7.4190 h1        1 TFP      0.032700
@<TRIPOS>BOND
     1    1    2 ar  
     2    1    6 ar  
     3    1   25 1   
     4    2    3 ar  
     5    2   29 1   
     6    3    4 ar  
     7    3   30 1   
     8    4    5 ar  
     9    4    7 1   
    10    5    6 ar  
    11    5   14 1   
    12    6   31 1   
    13    7    8 1   
    14    8    9 ar  
    15    8   13 ar  
    16    9   10 ar  
    17    9   32 1   
    18   10   11 ar  
    19   10   33 1   
    20   11   12 ar  
    21   11   34 1   
    22   12   13 ar  
    23   12   35 1   
    24   13   14 1   
    25   14   15 1   
    26   15   16 1   
    27   15   36 1   
    28   15   37 1   
    29   16   17 1   
    30   16   38 1   
    31   16   39 1   
    32   17   18 1   
    33   17   40 1   
    34   17   41 1   
    35   18   19 1   
    36   18   23 1   
    37   19   20 1   
    38   19   42 1   
    39   19   43 1   
    40   20   21 1   
    41   20   44 1   
    42   20   45 1   
    43   21   22 1   
    44   21   24 1   
    45   22   23 1   
    46   22   46 1   
    47   22   47 1   
    48   23   48 1   
    49   23   49 1   
    50   24   50 1   
    51   24   51 1   
    52   24   52 1   
    53   25   26 1   
    54   25   27 1   
    55   25   28 1   
@<TRIPOS>SUBSTRUCTURE
     1 TFP         1 TEMP              0 ****  ****    0 ROOT
