@<TRIPOS>MOLECULE
TFP
   52    55     1     0     0
SMALL
bcc


@<TRIPOS>ATOM
      1 C1          0.0460   -0.0900   -0.0220 ca        1 TFP     -0.141300
      2 C2          1.4370   -0.1660   -0.0300 ca        1 TFP     -0.102000
      3 C3          2.1150   -0.1850    1.1850 ca        1 TFP     -0.098000
      4 C4          1.4260   -0.1050    2.3970 ca        1 TFP      0.001900
      5 C5          0.0090   -0.0140    2.4120 ca        1 TFP      0.072700
      6 C6         -0.6680   -0.0270    1.1730 ca        1 TFP     -0.132000
      7 S           2.3760   -0.0890    3.7940 ss        1 TFP     -0.143800
      8 C7          1.2540   -0.4760    5.0030 ca        1 TFP     -0.032100
      9 C8          1.7850   -0.9130    6.2170 ca        1 TFP     -0.082000
     10 C9          0.9550   -1.2170    7.2920 ca        1 TFP     -0.149000
     11 C10        -0.4250   -1.1020    7.1400 ca        1 TFP     -0.096000
     12 C11        -0.9760   -0.6870    5.9320 ca        1 TFP     -0.174000
     13 C12        -0.1480   -0.3520    4.8370 ca        1 TFP      0.077700
     14 N1         -0.6860    0.1450    3.6290 na        1 TFP     -0.166100
     15 C13        -2.0820    0.5210    3.5930 c3        1 TFP      0.035300
     16 C14        -3.0910   -0.6120    3.3890 c3        1 TFP     -0.119400
     17 C15        -4.4990   -0.0500    3.5860 c3        1 TFP      0.173800
     18 N2         -5.5560   -0.9520    3.1500 n3        1 TFP     -0.728600
     19 C16        -6.8530   -0.2870    3.1470 c3        1 TFP      0.167300
     20 C17        -8.0060   -1.2200    2.7310 c3        1 TFP      0.167800
     21 N3         -8.0300   -2.4620    3.4900 n3        1 TFP     -0.732600
     22 C18        -6.7380   -3.1310    3.4830 c3        1 TFP      0.167800
     23 C19        -5.5780   -2.2030    3.8930 c3        1 TFP      0.167300
     24 C20        -9.1070   -3.3360    3.0840 c3        1 TFP      0.157100
     25 C21        -0.7210   -0.0960   -1.3400 c3        1 TFP      0.687200
     26 F1         -0.0040    0.3470   -2.4240 f         1 TFP     -0.236967
     27 F2         -1.1720   -1.3370   -1.7220 f         1 TFP     -0.236967
     28 F3         -1.8520    0.6850   -1.3460 f         1 TFP     -0.236967
     29 H2          1.9890   -0.2120   -0.9820 ha        1 TFP      0.155000
     30 H3          3.2140   -0.2620    1.1960 ha        1 TFP      0.151000
     31 H6         -1.7680    0.0240    1.1170 ha        1 TFP      0.158000
     32 H8          2.8780   -1.0130    6.3190 ha        1 TFP      0.144000
     33 H9          1.3860   -1.5480    8.2470 ha        1 TFP      0.139000
     34 H10        -1.0930   -1.3460    7.9810 ha        1 TFP      0.136000
     35 H11        -2.0720   -0.6200    5.8560 ha        1 TFP      0.140000
     36 H131       -2.3140    1.0500    4.5640 h1        1 TFP      0.062700
     37 H132       -2.2140    1.2820    2.7690 h1        1 TFP      0.062700
     38 H141       -2.9870   -1.0500    2.3630 hc        1 TFP      0.060700
     39 H142       -2.9030   -1.4420    4.1200 hc        1 TFP      0.060700
     40 H151       -4.5950    0.8940    2.9760 h1        1 TFP      0.031700
     41 H152       -4.6160    0.2370    4.6740 h1        1 TFP      0.031700
     42 H161       -6.8070    0.5530    2.3990 h1        1 TFP      0.036950
     43 H162       -7.0950    0.1590    4.1560 h1        1 TFP      0.036950
     44 H171       -7.9340   -1.4100    1.6200 h1        1 TFP      0.038200
     45 H172       -8.9730   -0.6780    2.9270 h1        1 TFP      0.038200
     46 H181       -6.5030   -3.5750    2.4720 h1        1 TFP      0.038200
     47 H182       -6.7830   -3.9730    4.2290 h1        1 TFP      0.038200
     48 H191       -5.6340   -2.0250    5.0070 h1        1 TFP      0.036950
     49 H192       -4.6170   -2.7480    3.6770 h1        1 TFP      0.036950
     50 H201       -9.0160   -3.6930    2.0210 h1        1 TFP      0.032700
     51 H202      -10.0780   -2.7860    3.1930 h1        1 TFP      0.032700
     52 H203       -9.1200   -4.2300    3.7610 h1        1 TFP      0.032700
@<TRIPOS>BOND
     1    1    2 ar  
     2    1    6 ar  
     3    1   25 1   
     4    2    3 ar  
     5    2   29 1   
     6    3    4 ar  
     7    3   30 1   
     8    4    5 ar  
     9    4    7 1   
    10    5    6 ar  
    11    5   14 1   
    12    6   31 1   
    13    7    8 1   
    14    8    9 ar  
    15    8   13 ar  
    16    9   10 ar  
    17    9   32 1   
    18   10   11 ar  
    19   10   33 1   
    20   11   12 ar  
    21   11   34 1   
    22   12   13 ar  
    23   12   35 1   
    24   13   14 1   
    25   14   15 1   
    26   15   16 1   
    27   15   36 1   
    28   15   37 1   
    29   16   17 1   
    30   16   38 1   
    31   16   39 1   
    32   17   18 1   
    33   17   40 1   
    34   17   41 1   
    35   18   19 1   
    36   18   23 1   
    37   19   20 1   
    38   19   42 1   
    39   19   43 1   
    40   20   21 1   
    41   20   44 1   
    42   20   45 1   
    43   21   22 1   
    44   21   24 1   
    45   22   23 1   
    46   22   46 1   
    47   22   47 1   
    48   23   48 1   
    49   23   49 1   
    50   24   50 1   
    51   24   51 1   
    52   24   52 1   
    53   25   26 1   
    54   25   27 1   
    55   25   28 1   
@<TRIPOS>SUBSTRUCTURE
     1 TFP         1 TEMP              0 ****  ****    0 ROOT
