@<TRIPOS>MOLECULE
TFQ
   28    28     1     0     0
SMALL
bcc


@<TRIPOS>ATOM
      1 F16         3.8040   -1.3660    0.5250 f         1 TFQ     -0.246967
      2 C14         4.0130   -0.0150    0.4410 c3        1 TFQ      0.621900
      3 F17         3.6980    0.4730    1.6830 f         1 TFQ     -0.246967
      4 F15         5.3860    0.1010    0.3830 f         1 TFQ     -0.246967
      5 C13         3.3120    0.7000   -0.7490 c3        1 TFQ     -0.045100
      6 C1          1.8370    0.5700   -0.7470 ca        1 TFQ     -0.146300
      7 C6          1.1980   -0.2450   -1.6880 ca        1 TFQ     -0.110000
      8 C5         -0.1920   -0.3120   -1.7320 ca        1 TFQ     -0.135500
      9 C2          1.0600    1.2990    0.1630 ca        1 TFQ     -0.110000
     10 C3         -0.3270    1.2300    0.1190 ca        1 TFQ     -0.135500
     11 C4         -0.9730    0.4290   -0.8360 ca        1 TFQ     -0.004300
     12 C7         -2.4570    0.3980   -0.9040 c3        1 TFQ     -0.042100
     13 C8         -3.1000   -0.3100    0.2940 c3        1 TFQ      0.022500
     14 N9         -2.8920   -1.7520    0.2820 n3        1 TFQ     -0.885800
     15 C10        -4.6020    0.1310    0.3640 c         1 TFQ      0.887600
     16 O12        -5.4780   -0.7710    0.4840 o         1 TFQ     -0.839300
     17 O11        -4.8450    1.3680    0.3170 o         1 TFQ     -0.839300
     18 H131        3.6070    1.7810   -0.6850 hc        1 TFQ      0.073200
     19 H132        3.7500    0.2630   -1.6850 hc        1 TFQ      0.073200
     20 H6          1.7960   -0.8360   -2.3970 ha        1 TFQ      0.120000
     21 H5         -0.6850   -0.9620   -2.4700 ha        1 TFQ      0.140500
     22 H2          1.5590    1.9220    0.9220 ha        1 TFQ      0.120000
     23 H3         -0.9350    1.8000    0.8380 ha        1 TFQ      0.140500
     24 H71        -2.8530    1.4540   -0.9010 hc        1 TFQ      0.063700
     25 H72        -2.7910   -0.0860   -1.8590 hc        1 TFQ      0.063700
     26 H8         -2.6120    0.0800    1.2350 h1        1 TFQ      0.044700
     27 HN91       -3.4540   -2.1380    1.0230 hn        1 TFQ      0.331800
     28 HN92       -3.2710   -2.1190   -0.5740 hn        1 TFQ      0.331800
@<TRIPOS>BOND
     1    1    2 1   
     2    2    3 1   
     3    2    4 1   
     4    2    5 1   
     5    5    6 1   
     6    5   18 1   
     7    5   19 1   
     8    6    7 ar  
     9    6    9 ar  
    10    7    8 ar  
    11    7   20 1   
    12    8   11 ar  
    13    8   21 1   
    14    9   10 ar  
    15    9   22 1   
    16   10   11 ar  
    17   10   23 1   
    18   11   12 1   
    19   12   13 1   
    20   12   24 1   
    21   12   25 1   
    22   13   14 1   
    23   13   15 1   
    24   13   26 1   
    25   14   27 1   
    26   14   28 1   
    27   15   16 1   
    28   15   17 1   
@<TRIPOS>SUBSTRUCTURE
     1 TFQ         1 TEMP              0 ****  ****    0 ROOT
