@<TRIPOS>MOLECULE
TFR
   38    37     1     0     0
SMALL
bcc


@<TRIPOS>ATOM
      1 N          -1.7870    0.3180   -0.0760 n         1 TFR     -0.570900
      2 O           6.9860    1.0300    0.9850 o         1 TFR     -0.843300
      3 C1         -1.1670   -0.6610   -0.8540 c         1 TFR      0.659100
      4 O1         -1.7140   -1.0940   -1.8860 o         1 TFR     -0.604100
      5 CA         -2.9260    1.0560   -0.5630 c3        1 TFR      0.059700
      6 CB         -2.5940    2.4750   -1.0300 c3        1 TFR     -0.117100
      7 CC         -4.0440    1.1720    0.5040 c3        1 TFR      0.110100
      8 CD         -4.6280   -0.2360    0.8950 c3        1 TFR      0.592900
      9 FE         -5.8820   -0.1570    1.4510 f         1 TFR     -0.237300
     10 FF         -4.7770   -1.1090   -0.1480 f         1 TFR     -0.237300
     11 FG         -3.8810   -0.9010    1.8320 f         1 TFR     -0.237300
     12 CA1         0.1490   -1.2150   -0.3490 c3        1 TFR     -0.152400
     13 CB1         1.2250   -0.1550   -0.2580 c3        1 TFR     -0.081400
     14 OB1        -3.6460    1.8440    1.6710 oh        1 TFR     -0.573800
     15 CD1         3.6030    0.3140    0.3250 c3        1 TFR     -0.065400
     16 CE1         4.9120   -0.2340    0.8950 c3        1 TFR      0.017500
     17 CG1         2.5520   -0.7610    0.1540 c3        1 TFR     -0.075400
     18 CZ1         5.7820    0.9800    1.3650 c         1 TFR      0.887600
     19 NZ1         5.5940   -1.1530   -0.0070 n3        1 TFR     -0.891800
     20 HN         -1.2150    0.7950    0.5840 hn        1 TFR      0.305500
     21 HA         -3.3610    0.4770   -1.4370 h1        1 TFR      0.108700
     22 HB         -2.2720    3.1070   -0.1680 hc        1 TFR      0.050367
     23 HBA        -1.7790    2.4550   -1.7920 hc        1 TFR      0.050367
     24 HBB        -3.5010    2.9340   -1.4900 hc        1 TFR      0.050367
     25 HC         -4.8900    1.7870    0.0860 h1        1 TFR      0.106700
     26 HA1        -0.0120   -1.6890    0.6550 hc        1 TFR      0.076200
     27 HA1A        0.4700   -2.0220   -1.0610 hc        1 TFR      0.076200
     28 HB1         1.3390    0.3550   -1.2500 hc        1 TFR      0.038700
     29 HB1A        0.9390    0.6310    0.4900 hc        1 TFR      0.038700
     30 HOB1       -2.9530    1.3230    2.1010 ho        1 TFR      0.422000
     31 HD1         3.2390    1.1000    1.0410 hc        1 TFR      0.047700
     32 HD1A        3.7910    0.8170   -0.6590 hc        1 TFR      0.047700
     33 HE1         4.6700   -0.8260    1.8270 h1        1 TFR      0.040700
     34 HG1         2.4250   -1.3190    1.1190 hc        1 TFR      0.041200
     35 HG1A        2.8840   -1.5040   -0.6160 hc        1 TFR      0.041200
     36 HNZ1        5.7010   -0.7020   -0.8990 hn        1 TFR      0.330800
     37 HNZA        6.5260   -1.2840    0.3530 hn        1 TFR      0.330800
     38 OH1         5.2320    1.8320    2.1170 o         1 TFR     -0.843300
@<TRIPOS>BOND
     1    1    3 1   
     2    1    5 1   
     3    1   20 1   
     4    2   18 1   
     5    3    4 2   
     6    3   12 1   
     7    5    6 1   
     8    5    7 1   
     9    5   21 1   
    10    6   22 1   
    11    6   23 1   
    12    6   24 1   
    13    7    8 1   
    14    7   14 1   
    15    7   25 1   
    16    8    9 1   
    17    8   10 1   
    18    8   11 1   
    19   12   13 1   
    20   12   26 1   
    21   12   27 1   
    22   13   17 1   
    23   13   28 1   
    24   13   29 1   
    25   14   30 1   
    26   15   16 1   
    27   15   17 1   
    28   15   31 1   
    29   15   32 1   
    30   16   18 1   
    31   16   19 1   
    32   16   33 1   
    33   17   34 1   
    34   17   35 1   
    35   18   38 1   
    36   19   36 1   
    37   19   37 1   
@<TRIPOS>SUBSTRUCTURE
     1 TFR         1 TEMP              0 ****  ****    0 ROOT
