@<TRIPOS>MOLECULE
TFS
    8     6     1     0     0
SMALL
bcc


@<TRIPOS>ATOM
      1 FAC        -1.5600   -1.0790   -0.6770 f         1 TFS     -0.222000
      2 CAD        -1.0020    0.0000   -0.0350 c2        1 TFS     -0.126000
      3 FAG        -1.5600    1.0790   -0.6770 f         1 TFS     -0.222000
      4 FAA        -1.6240   -0.0000    1.1900 f         1 TFS     -0.222000
      5 SAE         1.1320   -0.0000    0.0390 s4        1 TFS      2.860000
      6 OAH         1.4400    0.0000   -1.3080 o         1 TFS     -1.023000
      7 OAF         1.3700    1.1750    0.7260 o         1 TFS     -1.023000
      8 OAB         1.3700   -1.1750    0.7260 o         1 TFS     -1.023000
@<TRIPOS>BOND
     1    1    2 1   
     2    2    3 1   
     3    2    4 1   
     4    5    6 1   
     5    5    7 1   
     6    5    8 1   
@<TRIPOS>SUBSTRUCTURE
     1 TFS         1 TEMP              0 ****  ****    0 ROOT
