@<TRIPOS>MOLECULE
TFT
   31    31     1     0     0
SMALL
bcc


@<TRIPOS>ATOM
      1 P           0.9960   -3.2660    1.2250 p4        1 TFT      1.686200
      2 OP1         1.7720   -4.1380    0.2650 o         1 TFT     -0.931000
      3 OP2         1.8850   -2.8800    2.3850 os        1 TFT     -1.223000
      4 O3T         0.4980   -1.9380    0.4630 os        1 TFT     -0.558200
      5 N1         -0.0280    0.8680   -0.6440 n         1 TFT     -0.361000
      6 C6         -0.7970    1.4880    0.3870 cc        1 TFT      0.081600
      7 C2          1.3950    1.1950   -0.7940 c         1 TFT      0.801500
      8 O2          2.0360    0.7050   -1.6970 o         1 TFT     -0.685500
      9 N3          2.0400    2.1460    0.1340 n         1 TFT     -0.598500
     10 C4          1.2650    2.8190    1.1180 c         1 TFT      0.722700
     11 O4          1.7930    3.6330    1.8600 o         1 TFT     -0.686500
     12 C5         -0.1650    2.4960    1.2780 cd        1 TFT     -0.321400
     13 C5M        -1.0360    3.3400    2.2220 c3        1 TFT     -0.015900
     14 C2T         0.0730   -1.4010   -1.7090 c3        1 TFT      0.097100
     15 C4T        -1.8250   -1.5160   -0.4720 c3        1 TFT      0.082400
     16 O4T        -1.9020   -0.2100   -1.2510 os        1 TFT     -0.449600
     17 C1T        -0.6750    0.0360   -1.6150 c3        1 TFT      0.285500
     18 C3T        -0.3760   -2.0960   -0.7530 c3        1 TFT      0.190100
     19 O2T        -0.2400   -2.0480   -2.9900 oh        1 TFT     -0.659800
     20 OP3        -0.2100   -4.0310    1.7430 o         1 TFT     -0.979800
     21 H6         -1.7490    1.2700    0.4890 h4        1 TFT      0.261000
     22 H3          2.9380    2.3490    0.0350 hn        1 TFT      0.324500
     23 H71        -0.9910    2.9690    3.1250 hc        1 TFT      0.041367
     24 H72        -1.9550    3.3270    1.9130 hc        1 TFT      0.041367
     25 H73        -0.7010    4.2790    2.2320 hc        1 TFT      0.041367
     26 H2TC        1.0460   -1.2840   -1.6160 h1        1 TFT      0.072700
     27 H4T1       -2.5180   -2.1500   -0.7970 h1        1 TFT      0.037200
     28 H4T2       -1.9400   -1.3510    0.4600 h1        1 TFT      0.037200
     29 H1TC       -0.6660    0.4790   -2.4990 h2        1 TFT      0.108700
     30 H3TC       -0.4310   -3.0360   -1.0120 h1        1 TFT      0.073700
     31 H2T         0.4630   -2.0550   -3.4870 ho        1 TFT      0.485000
@<TRIPOS>BOND
     1    1    2 1   
     2    1    4 1   
     3    1   20 2   
     4    4   18 1   
     5    5    6 1   
     6    5    7 1   
     7    5   17 1   
     8    6   12 2   
     9    6   21 1   
    10    7    8 2   
    11    7    9 1   
    12    9   10 1   
    13    9   22 1   
    14   10   11 2   
    15   10   12 1   
    16   12   13 1   
    17   13   23 1   
    18   13   24 1   
    19   13   25 1   
    20   14   17 1   
    21   14   18 1   
    22   14   19 1   
    23   14   26 1   
    24   15   16 1   
    25   15   18 1   
    26   15   27 1   
    27   15   28 1   
    28   16   17 1   
    29   17   29 1   
    30   18   30 1   
    31   19   31 1   
@<TRIPOS>SUBSTRUCTURE
     1 TFT         1 TEMP              0 ****  ****    0 ROOT
