@<TRIPOS>MOLECULE
TFT
   31    32     1     0     0
SMALL
bcc


@<TRIPOS>ATOM
      1 P          -0.3790    2.6640   -1.7540 p5        1 TFT      1.317900
      2 OP1        -0.2520    1.4170   -2.5740 o         1 TFT     -0.921833
      3 OP2         0.5410    3.8070   -2.0450 o         1 TFT     -0.921833
      4 O3T         0.2040    2.1100   -0.1650 os        1 TFT     -0.558200
      5 N1         -0.2610    2.4210    3.5990 n         1 TFT     -0.361000
      6 C6          0.8370    2.9480    2.9410 cc        1 TFT      0.081600
      7 C2         -0.3530    2.5220    5.0020 c         1 TFT      0.801500
      8 O2         -1.3100    2.0520    5.6650 o         1 TFT     -0.685500
      9 N3          0.6640    3.2120    5.6910 n         1 TFT     -0.598500
     10 C4          1.7810    3.7760    5.0490 c         1 TFT      0.722700
     11 O4          2.6270    4.3550    5.7640 o         1 TFT     -0.686500
     12 C5          1.8350    3.6210    3.5960 cd        1 TFT     -0.321400
     13 C5M         2.9810    4.2100    2.8770 c3        1 TFT     -0.015900
     14 C2T        -1.5690    2.2070    1.4740 c3        1 TFT      0.097100
     15 C4T        -0.1220    0.2320    1.3110 c3        1 TFT      0.082400
     16 O4T        -0.6770    0.3030    2.6370 os        1 TFT     -0.449600
     17 C1T        -1.2410    1.5920    2.8620 c3        1 TFT      0.285500
     18 C3T        -0.7490    1.3510    0.4500 c3        1 TFT      0.190100
     19 O2T        -2.9580    2.1040    1.2440 oh        1 TFT     -0.659800
     20 OP3        -1.7840    2.9920   -1.2960 o         1 TFT     -0.921833
     21 H6          0.8530    2.7960    1.8230 h4        1 TFT      0.261000
     22 H3          0.5720    3.2850    6.6780 hn        1 TFT      0.324500
     23 H71         3.1110    5.2810    3.1720 hc        1 TFT      0.041367
     24 H72         2.8270    4.1550    1.7700 hc        1 TFT      0.041367
     25 H73         3.9230    3.6650    3.1380 hc        1 TFT      0.041367
     26 H2TC       -1.2770    3.2900    1.4070 h1        1 TFT      0.072700
     27 H4T1       -0.3850   -0.7870    0.9360 h1        1 TFT      0.037200
     28 H4T2        0.9880    0.3460    1.3890 h1        1 TFT      0.037200
     29 H1TC       -2.1400    1.4380    3.5220 h2        1 TFT      0.108700
     30 H3TC       -1.4600    0.8980   -0.3010 h1        1 TFT      0.073700
     31 H2T        -3.0560    2.3800    0.3050 ho        1 TFT      0.485000
@<TRIPOS>BOND
     1    1    2 1   
     2    1    3 1   
     3    1    4 1   
     4    1   20 1   
     5    4   18 1   
     6    5    6 1   
     7    5    7 1   
     8    5   17 1   
     9    6   12 2   
    10    6   21 1   
    11    7    8 2   
    12    7    9 1   
    13    9   10 1   
    14    9   22 1   
    15   10   11 2   
    16   10   12 1   
    17   12   13 1   
    18   13   23 1   
    19   13   24 1   
    20   13   25 1   
    21   14   17 1   
    22   14   18 1   
    23   14   19 1   
    24   14   26 1   
    25   15   16 1   
    26   15   18 1   
    27   15   27 1   
    28   15   28 1   
    29   16   17 1   
    30   17   29 1   
    31   18   30 1   
    32   19   31 1   
@<TRIPOS>SUBSTRUCTURE
     1 TFT         1 TEMP              0 ****  ****    0 ROOT
