@<TRIPOS>MOLECULE
TFV
   44    46     1     0     0
SMALL
bcc


@<TRIPOS>ATOM
      1 F3          7.9360    1.5040    1.3080 f         1 TFV     -0.239300
      2 C18         7.5000    0.3790    0.6500 c3        1 TFV      0.704200
      3 F1          8.3140    0.3060   -0.4560 f         1 TFV     -0.239300
      4 F2          7.9260   -0.6610    1.4420 f         1 TFV     -0.239300
      5 C15         6.0190    0.3660    0.3390 ca        1 TFV     -0.355600
      6 C14         5.3220    1.5710    0.1210 ca        1 TFV      0.495200
      7 N6          4.0200    1.6410   -0.1680 nb        1 TFV     -0.728000
      8 C16         5.3100   -0.8360    0.2490 ca        1 TFV     -0.003000
      9 C17         3.9560   -0.8070   -0.0540 ca        1 TFV     -0.314300
     10 C13         3.3190    0.4560   -0.2740 ca        1 TFV      0.681200
     11 N5          1.9850    0.5240   -0.6710 nh        1 TFV     -0.848900
     12 C11         1.1040   -0.5790   -0.3830 c3        1 TFV      0.189800
     13 C10        -0.3840   -0.1570   -0.4490 c3        1 TFV      0.186800
     14 N4         -1.2550   -1.2820   -0.2020 nh        1 TFV     -0.838900
     15 C7         -2.6390   -1.1080   -0.2130 ca        1 TFV      0.685200
     16 N3         -3.1730    0.1570   -0.1700 nb        1 TFV     -0.724000
     17 C8         -3.5030   -2.2570   -0.1980 ca        1 TFV     -0.294200
     18 CL         -2.8670   -3.8230   -0.2860 cl        1 TFV     -0.070400
     19 C9         -4.8970   -2.0420   -0.1050 ca        1 TFV      0.491600
     20 C12        -5.8230   -3.2140   -0.0740 c3        1 TFV     -0.159400
     21 N2         -5.4180   -0.7920   -0.0450 nb        1 TFV     -0.713000
     22 C6         -4.5280    0.2440   -0.0870 cp        1 TFV      0.639000
     23 C5         -5.1140    1.6270   -0.0340 cp        1 TFV      0.361300
     24 N1         -4.8770    2.4610   -1.0760 nb        1 TFV     -0.633000
     25 C4         -5.8810    1.9860    1.0920 ca        1 TFV     -0.206300
     26 C3         -6.4210    3.2740    1.1420 ca        1 TFV     -0.098000
     27 C2         -6.1850    4.1490    0.0830 ca        1 TFV     -0.235300
     28 C1         -5.4120    3.6930   -1.0020 ca        1 TFV      0.392200
     29 H1          5.8470    2.5440    0.1970 h4        1 TFV      0.040100
     30 H2          5.8240   -1.7950    0.4220 ha        1 TFV      0.154000
     31 H3          3.3910   -1.7450   -0.1350 ha        1 TFV      0.150000
     32 H4          1.5650    1.4300   -0.6920 hn        1 TFV      0.439800
     33 H5          1.3020   -1.3860   -1.1470 h1        1 TFV      0.051200
     34 H6          1.3200   -1.0120    0.6380 h1        1 TFV      0.051200
     35 H7         -0.5850    0.6240    0.3400 h1        1 TFV      0.067700
     36 H8         -0.5980    0.3070   -1.4560 h1        1 TFV      0.067700
     37 H9         -0.9430   -2.1560   -0.5720 hn        1 TFV      0.426800
     38 H10        -5.5710   -3.8620    0.8020 hc        1 TFV      0.066033
     39 H11        -6.8940   -2.9030    0.0060 hc        1 TFV      0.066033
     40 H12        -5.6930   -3.8110   -1.0110 hc        1 TFV      0.066033
     41 H13        -6.0530    1.2650    1.9030 ha        1 TFV      0.155000
     42 H14        -7.0240    3.5880    2.0070 ha        1 TFV      0.142000
     43 H15        -6.5920    5.1680    0.0850 ha        1 TFV      0.146000
     44 H16        -5.2050    4.3510   -1.8660 h4        1 TFV      0.026100
@<TRIPOS>BOND
     1    1    2 1   
     2    2    3 1   
     3    2    4 1   
     4    2    5 1   
     5    5    6 ar  
     6    5    8 ar  
     7    6    7 ar  
     8    6   29 1   
     9    7   10 ar  
    10    8    9 ar  
    11    8   30 1   
    12    9   10 ar  
    13    9   31 1   
    14   10   11 1   
    15   11   12 1   
    16   11   32 1   
    17   12   13 1   
    18   12   33 1   
    19   12   34 1   
    20   13   14 1   
    21   13   35 1   
    22   13   36 1   
    23   14   15 1   
    24   14   37 1   
    25   15   16 ar  
    26   15   17 ar  
    27   16   22 ar  
    28   17   18 1   
    29   17   19 ar  
    30   19   20 1   
    31   19   21 ar  
    32   20   38 1   
    33   20   39 1   
    34   20   40 1   
    35   21   22 ar  
    36   22   23 1   
    37   23   24 ar  
    38   23   25 ar  
    39   24   28 ar  
    40   25   26 ar  
    41   25   41 1   
    42   26   27 ar  
    43   26   42 1   
    44   27   28 ar  
    45   27   43 1   
    46   28   44 1   
@<TRIPOS>SUBSTRUCTURE
     1 TFV         1 TEMP              0 ****  ****    0 ROOT
