@<TRIPOS>MOLECULE
TFV
   46    48     1     0     0
SMALL
bcc


@<TRIPOS>ATOM
      1 F3          0.7070    0.1160    0.9790 f         1 TFV     -0.200633
      2 C18         1.7930   -0.1030    0.1730 c3        1 TFV      0.699200
      3 F1          2.8210   -0.4270    1.0190 f         1 TFV     -0.200633
      4 F2          1.5120   -1.2460   -0.5250 f         1 TFV     -0.200633
      5 C15         2.1140    1.0970   -0.7310 ca        1 TFV     -0.224600
      6 C14         2.9550    2.1320   -0.2480 ca        1 TFV      0.490200
      7 N6          3.2640    3.2120   -0.9720 nb        1 TFV     -0.665000
      8 C16         1.5850    1.1920   -2.0140 ca        1 TFV     -0.015000
      9 C17         1.8920    2.3170   -2.8000 ca        1 TFV     -0.189300
     10 C13         2.7270    3.2930   -2.2260 ca        1 TFV      0.444200
     11 N5          3.0330    4.5290   -3.0000 n4        1 TFV     -0.735700
     12 C11         4.4960    4.8240   -3.0390 c3        1 TFV      0.078800
     13 C10         4.8070    6.0290   -3.9490 c3        1 TFV      0.077800
     14 N4          6.2360    6.4470   -3.8570 n4        1 TFV     -0.743700
     15 C7          6.5590    7.5310   -4.8300 ca        1 TFV      0.484200
     16 N3          5.6830    8.5660   -4.8940 nb        1 TFV     -0.694000
     17 C8          7.7350    7.4490   -5.6020 ca        1 TFV     -0.231200
     18 CL          8.7900    6.1480   -5.4960 cl        1 TFV      0.008600
     19 C9          7.9770    8.5600   -6.4890 ca        1 TFV      0.534600
     20 C12         9.2120    8.5550   -7.3260 c3        1 TFV     -0.182400
     21 N2          7.1100    9.5830   -6.5730 nb        1 TFV     -0.636000
     22 C6          5.9820    9.5600   -5.7850 cp        1 TFV      0.699000
     23 C5          5.0140   10.6930   -5.9210 cp        1 TFV      0.294300
     24 N1          3.6860   10.3980   -5.8330 nb        1 TFV     -0.656000
     25 C4          5.5090   11.9900   -6.1480 ca        1 TFV     -0.162300
     26 C3          4.5840   13.0350   -6.2900 ca        1 TFV     -0.091000
     27 C2          3.2250   12.7530   -6.2090 ca        1 TFV     -0.183300
     28 C1          2.8270   11.4150   -5.9800 ca        1 TFV      0.397200
     29 H1          3.4010    2.0810    0.7710 h4        1 TFV      0.094100
     30 H2          0.9320    0.3950   -2.4200 ha        1 TFV      0.212000
     31 H3          1.4720    2.4020   -3.8150 ha        1 TFV      0.183000
     32 H4          2.5330    5.3170   -2.5580 hn        1 TFV      0.473300
     33 H5          4.8380    5.0260   -1.9790 hx        1 TFV      0.136700
     34 H6          5.0240    3.8960   -3.4110 hx        1 TFV      0.136700
     35 H7          4.5930    5.7780   -5.0310 hx        1 TFV      0.142700
     36 H8          4.1640    6.9200   -3.6640 hx        1 TFV      0.142700
     37 H9          6.8590    5.6480   -4.0570 hn        1 TFV      0.474300
     38 H10         9.2130    7.6490   -7.9860 hc        1 TFV      0.099033
     39 H11        10.1130    8.5180   -6.6610 hc        1 TFV      0.099033
     40 H12         9.2850    9.4660   -7.9740 hc        1 TFV      0.099033
     41 H13         6.5880   12.1930   -6.2170 ha        1 TFV      0.170000
     42 H14         4.9390   14.0630   -6.4700 ha        1 TFV      0.173000
     43 H15         2.4660   13.5430   -6.3220 ha        1 TFV      0.175000
     44 H16         1.7540   11.1500   -5.9180 h4        1 TFV      0.041100
     45 H52         2.6710    4.4030   -3.9550 hn        1 TFV      0.473300
     46 H42         6.4380    6.7990   -2.9090 hn        1 TFV      0.474300
@<TRIPOS>BOND
     1    1    2 1   
     2    2    3 1   
     3    2    4 1   
     4    2    5 1   
     5    5    6 ar  
     6    5    8 ar  
     7    6    7 ar  
     8    6   29 1   
     9    7   10 ar  
    10    8    9 ar  
    11    8   30 1   
    12    9   10 ar  
    13    9   31 1   
    14   10   11 1   
    15   11   12 1   
    16   11   32 1   
    17   11   45 1   
    18   12   13 1   
    19   12   33 1   
    20   12   34 1   
    21   13   14 1   
    22   13   35 1   
    23   13   36 1   
    24   14   15 1   
    25   14   37 1   
    26   14   46 1   
    27   15   16 ar  
    28   15   17 ar  
    29   16   22 ar  
    30   17   18 1   
    31   17   19 ar  
    32   19   20 1   
    33   19   21 ar  
    34   20   38 1   
    35   20   39 1   
    36   20   40 1   
    37   21   22 ar  
    38   22   23 1   
    39   23   24 ar  
    40   23   25 ar  
    41   24   28 ar  
    42   25   26 ar  
    43   25   41 1   
    44   26   27 ar  
    45   26   42 1   
    46   27   28 ar  
    47   27   43 1   
    48   28   44 1   
@<TRIPOS>SUBSTRUCTURE
     1 TFV         1 TEMP              0 ****  ****    0 ROOT
