@<TRIPOS>MOLECULE
TFV
   44    46     1     0     0
SMALL
bcc


@<TRIPOS>ATOM
      1 F3         -0.3840   -0.0140   -0.6140 f         1 TFV     -0.239300
      2 C18         0.9880   -0.0860   -0.5530 c3        1 TFV      0.704200
      3 F1          1.2420   -0.4400    0.7520 f         1 TFV     -0.239300
      4 F2          1.2970   -1.2200   -1.2670 f         1 TFV     -0.239300
      5 C15         1.7060    1.1630   -1.0140 ca        1 TFV     -0.355600
      6 C14         1.1050    2.4300   -0.8690 ca        1 TFV      0.495200
      7 N6          1.6770    3.5760   -1.2410 nb        1 TFV     -0.728000
      8 C16         2.9810    1.0950   -1.5820 ca        1 TFV     -0.003000
      9 C17         3.6130    2.2660   -1.9780 ca        1 TFV     -0.314300
     10 C13         2.9440    3.5170   -1.7880 ca        1 TFV      0.681200
     11 N5          3.5810    4.7200   -2.0850 nh        1 TFV     -0.848900
     12 C11         4.6690    4.7300   -3.0290 c3        1 TFV      0.189800
     13 C10         4.9300    6.1500   -3.5890 c3        1 TFV      0.186800
     14 N4          6.0500    6.1520   -4.5000 nh        1 TFV     -0.838900
     15 C7          6.4450    7.3380   -5.1190 ca        1 TFV      0.685200
     16 N3          5.6150    8.4330   -5.0970 nb        1 TFV     -0.724000
     17 C8          7.6870    7.3890   -5.8390 ca        1 TFV     -0.294200
     18 CL          8.7400    6.0640   -5.8500 cl        1 TFV     -0.070400
     19 C9          8.0040    8.5750   -6.5400 ca        1 TFV      0.491600
     20 C12         9.2820    8.6580   -7.3100 c3        1 TFV     -0.159400
     21 N2          7.1740    9.6460   -6.5290 nb        1 TFV     -0.713000
     22 C6          6.0240    9.5220   -5.8020 cp        1 TFV      0.639000
     23 C5          5.1140   10.7190   -5.7830 cp        1 TFV      0.361300
     24 N1          4.8380   11.2920   -4.5860 nb        1 TFV     -0.633000
     25 C4          4.6000   11.1870   -7.0080 ca        1 TFV     -0.206300
     26 C3          3.7510   12.2960   -6.9890 ca        1 TFV     -0.098000
     27 C2          3.4490   12.8970   -5.7680 ca        1 TFV     -0.235300
     28 C1          4.0200   12.3600   -4.5980 ca        1 TFV      0.392200
     29 H1          0.0890    2.5220   -0.4350 h4        1 TFV      0.040100
     30 H2          3.4750    0.1190   -1.7170 ha        1 TFV      0.154000
     31 H3          4.6180    2.2250   -2.4180 ha        1 TFV      0.150000
     32 H4          3.0240    5.5480   -2.0450 hn        1 TFV      0.439800
     33 H5          4.4650    4.0260   -3.8890 h1        1 TFV      0.051200
     34 H6          5.5920    4.3590   -2.4940 h1        1 TFV      0.051200
     35 H7          5.1040    6.8650   -2.7320 h1        1 TFV      0.067700
     36 H8          4.0180    6.5010   -4.1520 h1        1 TFV      0.067700
     37 H9          6.8010    5.5400   -4.2580 hn        1 TFV      0.426800
     38 H10         9.3010    7.8500   -8.0840 hc        1 TFV      0.066033
     39 H11        10.1430    8.5060   -6.6120 hc        1 TFV      0.066033
     40 H12         9.4040    9.6450   -7.8190 hc        1 TFV      0.066033
     41 H13         4.8680   10.6930   -7.9520 ha        1 TFV      0.155000
     42 H14         3.3290   12.6880   -7.9270 ha        1 TFV      0.142000
     43 H15         2.7870   13.7700   -5.7100 ha        1 TFV      0.146000
     44 H16         3.8140   12.8080   -3.6100 h4        1 TFV      0.026100
@<TRIPOS>BOND
     1    1    2 1   
     2    2    3 1   
     3    2    4 1   
     4    2    5 1   
     5    5    6 ar  
     6    5    8 ar  
     7    6    7 ar  
     8    6   29 1   
     9    7   10 ar  
    10    8    9 ar  
    11    8   30 1   
    12    9   10 ar  
    13    9   31 1   
    14   10   11 1   
    15   11   12 1   
    16   11   32 1   
    17   12   13 1   
    18   12   33 1   
    19   12   34 1   
    20   13   14 1   
    21   13   35 1   
    22   13   36 1   
    23   14   15 1   
    24   14   37 1   
    25   15   16 ar  
    26   15   17 ar  
    27   16   22 ar  
    28   17   18 1   
    29   17   19 ar  
    30   19   20 1   
    31   19   21 ar  
    32   20   38 1   
    33   20   39 1   
    34   20   40 1   
    35   21   22 ar  
    36   22   23 1   
    37   23   24 ar  
    38   23   25 ar  
    39   24   28 ar  
    40   25   26 ar  
    41   25   41 1   
    42   26   27 ar  
    43   26   42 1   
    44   27   28 ar  
    45   27   43 1   
    46   28   44 1   
@<TRIPOS>SUBSTRUCTURE
     1 TFV         1 TEMP              0 ****  ****    0 ROOT
