@<TRIPOS>MOLECULE
TFV
   44    46     1     0     0
SMALL
bcc


@<TRIPOS>ATOM
      1 F3         -0.3710   -0.0140   -0.5960 f         1 TFV     -0.239300
      2 C18         1.0000   -0.0870   -0.5420 c3        1 TFV      0.704200
      3 F1          1.2610   -0.4430    0.7610 f         1 TFV     -0.239300
      4 F2          1.3050   -1.2200   -1.2590 f         1 TFV     -0.239300
      5 C15         1.7170    1.1620   -1.0050 ca        1 TFV     -0.355600
      6 C14         1.1170    2.4290   -0.8570 ca        1 TFV      0.495200
      7 N6          1.6880    3.5760   -1.2300 nb        1 TFV     -0.728000
      8 C16         2.9900    1.0940   -1.5790 ca        1 TFV     -0.003000
      9 C17         3.6210    2.2640   -1.9760 ca        1 TFV     -0.314300
     10 C13         2.9530    3.5160   -1.7820 ca        1 TFV      0.681200
     11 N5          3.5890    4.7190   -2.0820 nu        1 TFV     -0.848900
     12 C11         4.6740    4.7290   -3.0300 c3        1 TFV      0.189800
     13 C10         4.9320    6.1490   -3.5910 c3        1 TFV      0.186800
     14 N4          6.0480    6.1520   -4.5060 nu        1 TFV     -0.838900
     15 C7          6.4410    7.3390   -5.1260 ca        1 TFV      0.685200
     16 N3          5.6100    8.4330   -5.1000 nb        1 TFV     -0.724000
     17 C8          7.6810    7.3900   -5.8490 ca        1 TFV     -0.294200
     18 Cl          8.7340    6.0650   -5.8650 cl        1 TFV     -0.070400
     19 C9          7.9950    8.5760   -6.5510 ca        1 TFV      0.491600
     20 C12         9.2710    8.6600   -7.3240 c3        1 TFV     -0.159400
     21 N2          7.1650    9.6480   -6.5370 nb        1 TFV     -0.713000
     22 C6          6.0170    9.5230   -5.8060 cp        1 TFV      0.639000
     23 C5          5.1070   10.7200   -5.7840 cp        1 TFV      0.361300
     24 N1          4.8330   11.2910   -4.5860 nb        1 TFV     -0.633000
     25 C4          4.5900   11.1880   -7.0080 ca        1 TFV     -0.206300
     26 C3          3.7400   12.2970   -6.9850 ca        1 TFV     -0.098000
     27 C2          3.4420   12.8970   -5.7630 ca        1 TFV     -0.235300
     28 C1          4.0160   12.3580   -4.5950 ca        1 TFV      0.392200
     29 H1          0.1030    2.5220   -0.4180 h4        1 TFV      0.040100
     30 H2          3.4830    0.1180   -1.7160 ha        1 TFV      0.154000
     31 H3          4.6240    2.2240   -2.4210 ha        1 TFV      0.150000
     32 H4          3.0330    5.5470   -2.0390 hn        1 TFV      0.439800
     33 H5          4.4660    4.0250   -3.8890 h1        1 TFV      0.051200
     34 H6          5.5990    4.3590   -2.4990 h1        1 TFV      0.051200
     35 H7          5.1080    6.8640   -2.7350 h1        1 TFV      0.067700
     36 H8          4.0170    6.5000   -4.1510 h1        1 TFV      0.067700
     37 H9          6.8010    5.5400   -4.2670 hn        1 TFV      0.426800
     38 H10         9.3910    9.6480   -7.8330 hc        1 TFV      0.066033
     39 H11         9.2870    7.8540   -8.0990 hc        1 TFV      0.066033
     40 H12        10.1340    8.5080   -6.6290 hc        1 TFV      0.066033
     41 H13         4.8560   10.6950   -7.9520 ha        1 TFV      0.155000
     42 H14         3.3170   12.6900   -7.9210 ha        1 TFV      0.142000
     43 H15         2.7790   13.7700   -5.7030 ha        1 TFV      0.146000
     44 H16         3.8120   12.8060   -3.6050 h4        1 TFV      0.026100
@<TRIPOS>BOND
     1    1    2 1   
     2    2    3 1   
     3    2    4 1   
     4    2    5 1   
     5    5    6 ar  
     6    5    8 ar  
     7    6    7 ar  
     8    6   29 1   
     9    7   10 ar  
    10    8    9 ar  
    11    8   30 1   
    12    9   10 ar  
    13    9   31 1   
    14   10   11 1   
    15   11   12 1   
    16   11   32 1   
    17   12   13 1   
    18   12   33 1   
    19   12   34 1   
    20   13   14 1   
    21   13   35 1   
    22   13   36 1   
    23   14   15 1   
    24   14   37 1   
    25   15   16 ar  
    26   15   17 ar  
    27   16   22 ar  
    28   17   18 1   
    29   17   19 ar  
    30   19   20 1   
    31   19   21 ar  
    32   20   38 1   
    33   20   39 1   
    34   20   40 1   
    35   21   22 ar  
    36   22   23 1   
    37   23   24 ar  
    38   23   25 ar  
    39   24   28 ar  
    40   25   26 ar  
    41   25   41 1   
    42   26   27 ar  
    43   26   42 1   
    44   27   28 ar  
    45   27   43 1   
    46   28   44 1   
@<TRIPOS>SUBSTRUCTURE
     1 TFV         1 TEMP              0 ****  ****    0 ROOT
