@<TRIPOS>MOLECULE
TFX
   39    41     1     0     0
SMALL
bcc


@<TRIPOS>ATOM
      1 N1         -0.2650   -0.0850   -0.1730 na        1 TFX     -0.076200
      2 S1          1.7440    0.1910    1.3940 ss        1 TFX      0.236900
      3 C2          3.7750    0.0140   -3.5080 ca        1 TFX      0.266600
      4 N2          4.6410    0.0140   -4.5700 nh        1 TFX     -0.647000
      5 C3          3.9990    0.8410   -2.3610 ca        1 TFX     -0.220000
      6 C4          3.1220    0.8360   -1.3010 ca        1 TFX     -0.020000
      7 C5          1.9640    0.0260   -1.3090 ca        1 TFX     -0.298900
      8 C6          1.7340   -0.7960   -2.4300 ca        1 TFX     -0.020000
      9 C7          2.6070   -0.8120   -3.4960 ca        1 TFX     -0.220000
     10 C8          1.0970    0.0350   -0.1650 cc        1 TFX      0.271800
     11 C9         -0.7930   -0.0590    1.1380 ca        1 TFX     -0.058200
     12 C10         0.2240    0.1120    2.1250 ca        1 TFX     -0.129100
     13 C11        -0.1210    0.1770    3.4760 ca        1 TFX     -0.065000
     14 C12        -1.4580    0.0650    3.8510 ca        1 TFX     -0.037300
     15 C13        -2.4540   -0.1130    2.8660 ca        1 TFX     -0.080000
     16 C14        -2.1420   -0.1780    1.5180 ca        1 TFX     -0.104000
     17 C15         5.8190    0.8400   -4.5510 c3        1 TFX      0.189100
     18 C16         4.3940   -0.8240   -5.7140 c3        1 TFX      0.189100
     19 C17        -1.1010   -0.1690   -1.3410 c3        1 TFX     -0.005400
     20 C18        -1.8530    0.1270    5.2770 c3        1 TFX     -0.072800
     21 H3          4.8830    1.4980   -2.3160 ha        1 TFX      0.158000
     22 H4          3.3210    1.4900   -0.4340 ha        1 TFX      0.140000
     23 H6          0.8610   -1.4680   -2.4490 ha        1 TFX      0.140000
     24 H7          2.3950   -1.4830   -4.3440 ha        1 TFX      0.158000
     25 H11         0.6620    0.3120    4.2400 ha        1 TFX      0.165000
     26 H13        -3.5070   -0.2030    3.1840 ha        1 TFX      0.166000
     27 H14        -2.9330   -0.3220    0.7650 ha        1 TFX      0.161000
     28 H15         5.5330    1.9240   -4.4680 h1        1 TFX      0.058700
     29 H15A        6.4080    0.6970   -5.4950 h1        1 TFX      0.058700
     30 H15B        6.4730    0.5680   -3.6770 h1        1 TFX      0.058700
     31 H16         5.1970   -0.6760   -6.4830 h1        1 TFX      0.058700
     32 H16A        3.4030   -0.5640   -6.1780 h1        1 TFX      0.058700
     33 H16B        4.3820   -1.9060   -5.4100 h1        1 TFX      0.058700
     34 H17        -2.0570    0.3910   -1.1520 h1        1 TFX      0.087033
     35 H17A       -1.3370   -1.2450   -1.5630 h1        1 TFX      0.087033
     36 H17B       -0.5720    0.2930   -2.2200 h1        1 TFX      0.087033
     37 H18        -2.3540   -0.8270    5.5790 hc        1 TFX      0.067033
     38 H18A       -2.5740    0.9670    5.4410 hc        1 TFX      0.067033
     39 H18B       -0.9680    0.2860    5.9410 hc        1 TFX      0.067033
@<TRIPOS>BOND
     1    1   10 2   
     2    1   11 1   
     3    1   19 1   
     4    2   10 1   
     5    2   12 1   
     6    3    4 1   
     7    3    5 ar  
     8    3    9 ar  
     9    4   17 1   
    10    4   18 1   
    11    5    6 ar  
    12    5   21 1   
    13    6    7 ar  
    14    6   22 1   
    15    7    8 ar  
    16    7   10 1   
    17    8    9 ar  
    18    8   23 1   
    19    9   24 1   
    20   11   12 ar  
    21   11   16 ar  
    22   12   13 ar  
    23   13   14 ar  
    24   13   25 1   
    25   14   15 ar  
    26   14   20 1   
    27   15   16 ar  
    28   15   26 1   
    29   16   27 1   
    30   17   28 1   
    31   17   29 1   
    32   17   30 1   
    33   18   31 1   
    34   18   32 1   
    35   18   33 1   
    36   19   34 1   
    37   19   35 1   
    38   19   36 1   
    39   20   37 1   
    40   20   38 1   
    41   20   39 1   
@<TRIPOS>SUBSTRUCTURE
     1 TFX         1 TEMP              0 ****  ****    0 ROOT
