@<TRIPOS>MOLECULE
TFX
   40    42     1     0     0
SMALL
bcc


@<TRIPOS>ATOM
      1 N1         -0.1800    0.0670   -0.1600 na        1 TFX     -0.019200
      2 S1          1.7490   -0.3930    1.4470 ss        1 TFX      0.380900
      3 C2          3.8070   -0.3230   -3.4440 ca        1 TFX     -0.007400
      4 N2          4.7490   -0.3850   -4.5770 n4        1 TFX     -0.557800
      5 C3          3.2020    0.8950   -3.0860 ca        1 TFX     -0.097000
      6 C4          2.3210    0.9340   -2.0060 ca        1 TFX     -0.071500
      7 C5          2.0430   -0.2290   -1.2740 ca        1 TFX     -0.127900
      8 C6          2.6400   -1.4420   -1.6420 ca        1 TFX     -0.071500
      9 C7          3.5200   -1.4950   -2.7220 ca        1 TFX     -0.097000
     10 C8          1.1620   -0.1740   -0.1060 cc        1 TFX      0.112800
     11 C9         -0.7460    0.0640    1.1290 ca        1 TFX     -0.069200
     12 C10         0.2370   -0.1850    2.1430 ca        1 TFX     -0.140100
     13 C11        -0.1500   -0.2230    3.4860 ca        1 TFX     -0.073000
     14 C12        -1.4850   -0.0190    3.8250 ca        1 TFX     -0.002300
     15 C13        -2.4440    0.2250    2.8110 ca        1 TFX     -0.063000
     16 C14        -2.0980    0.2690    1.4740 ca        1 TFX     -0.096000
     17 C15         5.9500    0.4660   -4.3300 c3        1 TFX      0.085600
     18 C16         4.0840   -0.0110   -5.8590 c3        1 TFX      0.085600
     19 C17        -0.9670    0.2760   -1.3500 c3        1 TFX     -0.015400
     20 C18        -1.9220   -0.0530    5.2380 c3        1 TFX     -0.085800
     21 H3          3.4100    1.8270   -3.6390 ha        1 TFX      0.177000
     22 H4          1.8550    1.8960   -1.7270 ha        1 TFX      0.181500
     23 H6          2.4190   -2.3700   -1.0850 ha        1 TFX      0.181500
     24 H7          3.9760   -2.4660   -2.9860 ha        1 TFX      0.177000
     25 H11         0.6010   -0.4130    4.2730 ha        1 TFX      0.177000
     26 H13        -3.4980    0.3830    3.1070 ha        1 TFX      0.184000
     27 H14        -2.8560    0.4580    0.6970 ha        1 TFX      0.172000
     28 H15         6.6670    0.3370   -5.1870 hx        1 TFX      0.113200
     29 H15A        5.6420    1.5430   -4.2570 hx        1 TFX      0.113200
     30 H15B        6.4410    0.1470   -3.3720 hx        1 TFX      0.113200
     31 H16         4.8220   -0.1360   -6.6990 hx        1 TFX      0.113200
     32 H16A        3.1990   -0.6820   -6.0280 hx        1 TFX      0.113200
     33 H16B        3.7450    1.0570   -5.8120 hx        1 TFX      0.113200
     34 H17        -0.2940    0.3440   -2.2450 h1        1 TFX      0.097033
     35 H17A       -1.6820   -0.5840   -1.4770 h1        1 TFX      0.097033
     36 H17B       -1.5520    1.2310   -1.2430 h1        1 TFX      0.097033
     37 H18        -1.0690   -0.2530    5.9320 hc        1 TFX      0.081033
     38 H18A       -2.3860    0.9270    5.5220 hc        1 TFX      0.081033
     39 H18B       -2.6920   -0.8550    5.3840 hc        1 TFX      0.081033
     40 H21         5.0700   -1.3640   -4.6630 hn        1 TFX      0.462800
@<TRIPOS>BOND
     1    1   10 2   
     2    1   11 1   
     3    1   19 1   
     4    2   10 1   
     5    2   12 1   
     6    3    4 1   
     7    3    5 ar  
     8    3    9 ar  
     9    4   17 1   
    10    4   18 1   
    11    4   40 1   
    12    5    6 ar  
    13    5   21 1   
    14    6    7 ar  
    15    6   22 1   
    16    7    8 ar  
    17    7   10 1   
    18    8    9 ar  
    19    8   23 1   
    20    9   24 1   
    21   11   12 ar  
    22   11   16 ar  
    23   12   13 ar  
    24   13   14 ar  
    25   13   25 1   
    26   14   15 ar  
    27   14   20 1   
    28   15   16 ar  
    29   15   26 1   
    30   16   27 1   
    31   17   28 1   
    32   17   29 1   
    33   17   30 1   
    34   18   31 1   
    35   18   32 1   
    36   18   33 1   
    37   19   34 1   
    38   19   35 1   
    39   19   36 1   
    40   20   37 1   
    41   20   38 1   
    42   20   39 1   
@<TRIPOS>SUBSTRUCTURE
     1 TFX         1 TEMP              0 ****  ****    0 ROOT
