@<TRIPOS>MOLECULE
TFX
   39    41     1     0     0
SMALL
bcc


@<TRIPOS>ATOM
      1 N1         -0.2650   -0.0830   -0.1730 na        1 TFX     -0.076200
      2 S1          1.7440    0.1880    1.3950 ss        1 TFX      0.236900
      3 C2          3.7750    0.0130   -3.5080 ca        1 TFX      0.266600
      4 N2          4.6410    0.0130   -4.5700 nh        1 TFX     -0.647000
      5 C3          4.0000    0.8400   -2.3610 ca        1 TFX     -0.220000
      6 C4          3.1230    0.8350   -1.3000 ca        1 TFX     -0.020000
      7 C5          1.9640    0.0260   -1.3090 ca        1 TFX     -0.298900
      8 C6          1.7330   -0.7940   -2.4310 ca        1 TFX     -0.020000
      9 C7          2.6060   -0.8110   -3.4970 ca        1 TFX     -0.220000
     10 C8          1.0970    0.0350   -0.1650 cc        1 TFX      0.271800
     11 C9         -0.7930   -0.0580    1.1380 ca        1 TFX     -0.058200
     12 C10         0.2240    0.1110    2.1250 ca        1 TFX     -0.129100
     13 C11        -0.1210    0.1740    3.4760 ca        1 TFX     -0.065000
     14 C12        -1.4580    0.0630    3.8510 ca        1 TFX     -0.037300
     15 C13        -2.4540   -0.1120    2.8660 ca        1 TFX     -0.080000
     16 C14        -2.1430   -0.1760    1.5170 ca        1 TFX     -0.104000
     17 C15         5.8200    0.8380   -4.5500 c3        1 TFX      0.189100
     18 C16         4.3930   -0.8230   -5.7140 c3        1 TFX      0.189100
     19 C17        -1.1010   -0.1640   -1.3410 c3        1 TFX     -0.005400
     20 C18        -1.8530    0.1240    5.2770 c3        1 TFX     -0.072800
     21 H3          4.8840    1.4960   -2.3150 ha        1 TFX      0.158000
     22 H4          3.3220    1.4880   -0.4330 ha        1 TFX      0.140000
     23 H6          0.8580   -1.4660   -2.4500 ha        1 TFX      0.140000
     24 H7          2.3930   -1.4800   -4.3460 ha        1 TFX      0.158000
     25 H11         0.6620    0.3080    4.2400 ha        1 TFX      0.165000
     26 H13        -3.5070   -0.2010    3.1830 ha        1 TFX      0.166000
     27 H14        -2.9330   -0.3170    0.7650 ha        1 TFX      0.161000
     28 H15         5.5350    1.9230   -4.4670 h1        1 TFX      0.058700
     29 H15A        6.4090    0.6960   -5.4950 h1        1 TFX      0.058700
     30 H15B        6.4730    0.5650   -3.6770 h1        1 TFX      0.058700
     31 H16         4.3790   -1.9060   -5.4110 h1        1 TFX      0.058700
     32 H16A        5.1970   -0.6770   -6.4830 h1        1 TFX      0.058700
     33 H16B        3.4030   -0.5620   -6.1790 h1        1 TFX      0.058700
     34 H17        -0.5710    0.2970   -2.2190 h1        1 TFX      0.087033
     35 H17A       -2.0570    0.3970   -1.1520 h1        1 TFX      0.087033
     36 H17B       -1.3390   -1.2400   -1.5640 h1        1 TFX      0.087033
     37 H18        -2.3550   -0.8300    5.5790 hc        1 TFX      0.066700
     38 H18A       -2.5740    0.9650    5.4420 hc        1 TFX      0.066700
     39 H18B       -0.9680    0.2820    5.9410 hc        1 TFX      0.066700
@<TRIPOS>BOND
     1    1   10 2   
     2    1   11 1   
     3    1   19 1   
     4    2   10 1   
     5    2   12 1   
     6    3    4 1   
     7    3    5 ar  
     8    3    9 ar  
     9    4   17 1   
    10    4   18 1   
    11    5    6 ar  
    12    5   21 1   
    13    6    7 ar  
    14    6   22 1   
    15    7    8 ar  
    16    7   10 1   
    17    8    9 ar  
    18    8   23 1   
    19    9   24 1   
    20   11   12 ar  
    21   11   16 ar  
    22   12   13 ar  
    23   13   14 ar  
    24   13   25 1   
    25   14   15 ar  
    26   14   20 1   
    27   15   16 ar  
    28   15   26 1   
    29   16   27 1   
    30   17   28 1   
    31   17   29 1   
    32   17   30 1   
    33   18   31 1   
    34   18   32 1   
    35   18   33 1   
    36   19   34 1   
    37   19   35 1   
    38   19   36 1   
    39   20   37 1   
    40   20   38 1   
    41   20   39 1   
@<TRIPOS>SUBSTRUCTURE
     1 TFX         1 TEMP              0 ****  ****    0 ROOT
