@<TRIPOS>MOLECULE
TFX
   39    41     1     0     0
SMALL
bcc


@<TRIPOS>ATOM
      1 N1          1.1070    1.1590   -0.2500 na        1 TFX     -0.076200
      2 S1          1.1660   -1.3600    0.2200 ss        1 TFX      0.236900
      3 C2         -3.9790   -0.0660    0.0160 ca        1 TFX      0.266600
      4 N2         -5.3490   -0.1250    0.0340 nh        1 TFX     -0.647000
      5 C3         -3.1940   -1.1330   -0.5270 ca        1 TFX     -0.220000
      6 C4         -1.8190   -1.0630   -0.5430 ca        1 TFX     -0.020000
      7 C5         -1.1340    0.0640   -0.0360 ca        1 TFX     -0.298900
      8 C6         -1.8970    1.1180    0.5050 ca        1 TFX     -0.020000
      9 C7         -3.2730    1.0620    0.5390 ca        1 TFX     -0.220000
     10 C8          0.3010    0.0740   -0.0480 cc        1 TFX      0.271800
     11 C9          2.4750    0.8080   -0.1710 ca        1 TFX     -0.058200
     12 C10         2.6590   -0.5870    0.0710 ca        1 TFX     -0.129100
     13 C11         3.9490   -1.1120    0.1620 ca        1 TFX     -0.065000
     14 C12         5.0480   -0.2670    0.0240 ca        1 TFX     -0.037300
     15 C13         4.8520    1.1120   -0.2050 ca        1 TFX     -0.080000
     16 C14         3.5840    1.6620   -0.3030 ca        1 TFX     -0.104000
     17 C15        -6.0370   -1.2790   -0.4820 c3        1 TFX      0.189100
     18 C16        -6.1190    0.9600    0.5830 c3        1 TFX      0.189100
     19 C17         0.6690    2.4930   -0.5640 c3        1 TFX     -0.005400
     20 C18         6.4280   -0.7970    0.1180 c3        1 TFX     -0.072800
     21 H3         -3.6850   -2.0260   -0.9450 ha        1 TFX      0.158000
     22 H4         -1.2420   -1.9000   -0.9750 ha        1 TFX      0.140000
     23 H6         -1.3900    1.9940    0.9440 ha        1 TFX      0.140000
     24 H7         -3.8260    1.9030    0.9870 ha        1 TFX      0.158000
     25 H11         4.0950   -2.1900    0.3440 ha        1 TFX      0.165000
     26 H13         5.7360    1.7650   -0.3080 ha        1 TFX      0.166000
     27 H14         3.4530    2.7410   -0.4780 ha        1 TFX      0.161000
     28 H15        -5.7260   -2.2020    0.0790 h1        1 TFX      0.058700
     29 H15A       -7.1460   -1.1500   -0.3720 h1        1 TFX      0.058700
     30 H15B       -5.7990   -1.4180   -1.5720 h1        1 TFX      0.058700
     31 H16        -5.9010    1.9120    0.0260 h1        1 TFX      0.058700
     32 H16A       -7.2150    0.7390    0.4970 h1        1 TFX      0.058700
     33 H16B       -5.8670    1.1070    1.6690 h1        1 TFX      0.058700
     34 H17         0.6320    3.1110    0.3740 h1        1 TFX      0.087033
     35 H17A        1.3920    2.9590   -1.2880 h1        1 TFX      0.087033
     36 H17B       -0.3510    2.4560   -1.0340 h1        1 TFX      0.087033
     37 H18         6.9860   -0.5890   -0.8300 hc        1 TFX      0.066700
     38 H18A        6.9740   -0.3010    0.9600 hc        1 TFX      0.066700
     39 H18B        6.4330   -1.9010    0.2960 hc        1 TFX      0.066700
@<TRIPOS>BOND
     1    1   10 2   
     2    1   11 1   
     3    1   19 1   
     4    2   10 1   
     5    2   12 1   
     6    3    4 1   
     7    3    5 ar  
     8    3    9 ar  
     9    4   17 1   
    10    4   18 1   
    11    5    6 ar  
    12    5   21 1   
    13    6    7 ar  
    14    6   22 1   
    15    7    8 ar  
    16    7   10 1   
    17    8    9 ar  
    18    8   23 1   
    19    9   24 1   
    20   11   12 ar  
    21   11   16 ar  
    22   12   13 ar  
    23   13   14 ar  
    24   13   25 1   
    25   14   15 ar  
    26   14   20 1   
    27   15   16 ar  
    28   15   26 1   
    29   16   27 1   
    30   17   28 1   
    31   17   29 1   
    32   17   30 1   
    33   18   31 1   
    34   18   32 1   
    35   18   33 1   
    36   19   34 1   
    37   19   35 1   
    38   19   36 1   
    39   20   37 1   
    40   20   38 1   
    41   20   39 1   
@<TRIPOS>SUBSTRUCTURE
     1 TFX         1 TEMP              0 ****  ****    0 ROOT
