@<TRIPOS>MOLECULE
TFY
   85    88     1     0     0
SMALL
bcc


@<TRIPOS>ATOM
      1 O31        -3.6930    1.0520   -0.1330 oh        1 TFY     -0.584800
      2 C27        -4.2320    0.1130    0.7840 c3        1 TFY      0.182300
      3 C26        -5.5230   -0.5300    0.2520 c3        1 TFY     -0.085700
      4 C30        -6.5270    0.5290   -0.1760 c3        1 TFY     -0.101400
      5 C32        -7.3230    1.0220    1.0320 c3        1 TFY      0.051300
      6 N33        -8.3510    1.9890    0.7030 na        1 TFY     -0.079400
      7 C37        -9.6510    1.7020    0.2420 cc        1 TFY      0.375400
      8 N36       -10.2380    2.9060    0.0110 nd        1 TFY     -0.379000
      9 N35        -9.3260    3.8360    0.3120 nd        1 TFY     -0.054000
     10 N34        -8.2180    3.3360    0.7100 nc        1 TFY     -0.186800
     11 C25        -5.2000   -1.4660   -0.9170 c3        1 TFY      0.146100
     12 O29        -6.4250   -2.0760   -1.3080 oh        1 TFY     -0.601800
     13 C24        -4.1920   -2.5390   -0.5050 c3        1 TFY     -0.075200
     14 C28        -3.2230   -0.9470    1.1460 ce        1 TFY     -0.123200
     15 C39        -2.6230   -0.9500    2.3410 c2        1 TFY     -0.176000
     16 C23        -2.9700   -1.9530    0.1160 ce        1 TFY     -0.099200
     17 C11        -1.7430   -2.3720   -0.2570 cf        1 TFY     -0.097000
     18 C10        -0.5010   -1.8560    0.2680 cf        1 TFY     -0.165000
     19 C4          0.6970   -2.4620    0.1930 c2        1 TFY     -0.063400
     20 C3          0.9360   -3.8260   -0.3680 c3        1 TFY     -0.047200
     21 C2          2.1470   -3.9080   -1.2820 c3        1 TFY     -0.073400
     22 C5          1.9420   -1.8740    0.7550 c3        1 TFY     -0.040500
     23 C8          1.9380   -0.4930    1.3930 c3        1 TFY     -0.074400
     24 C9          3.4000   -0.0460    1.3450 c3        1 TFY     -0.079400
     25 C7          4.1690   -1.0400    0.4500 c3        1 TFY     -0.053700
     26 C6          3.0560   -1.7820   -0.3270 c3        1 TFY     -0.039000
     27 C13         2.5930   -0.9640   -1.5200 c3        1 TFY     -0.083100
     28 C1          3.3820   -3.2080   -0.7440 c3        1 TFY     -0.068400
     29 C14         5.2400   -0.3450   -0.3840 c3        1 TFY     -0.054700
     30 C16         5.9730   -1.3210   -1.2840 c3        1 TFY     -0.092100
     31 C15         6.2460    0.3550    0.5290 c3        1 TFY     -0.079400
     32 C17         6.9820    1.4690   -0.1870 c3        1 TFY     -0.080400
     33 C18         7.9490    2.1670    0.7440 c3        1 TFY     -0.104400
     34 C19         8.8770    3.1420    0.0100 c3        1 TFY      0.147800
     35 O22         9.5990    2.4650   -1.0200 oh        1 TFY     -0.596800
     36 C21         8.0920    4.2420   -0.6930 c3        1 TFY     -0.103600
     37 C20         9.8570    3.7500    1.0080 c3        1 TFY     -0.103600
     38 H1         -3.3140    0.5560   -0.8690 ho        1 TFY      0.405000
     39 H2         -4.4850    0.7450    1.6860 h1        1 TFY      0.078700
     40 H3         -5.9640   -1.1560    1.0770 hc        1 TFY      0.069700
     41 H4         -5.9840    1.3870   -0.6580 hc        1 TFY      0.077200
     42 H5         -7.2250    0.0900   -0.9380 hc        1 TFY      0.077200
     43 H6         -7.8420    0.1490    1.5230 h1        1 TFY      0.072200
     44 H7         -6.6170    1.4870    1.7790 h1        1 TFY      0.072200
     45 H8        -10.0690    0.7000    0.1180 h5        1 TFY      0.084100
     46 H9         -4.7950   -0.8660   -1.7810 h1        1 TFY      0.039700
     47 H10        -6.2170   -2.6810   -2.0300 ho        1 TFY      0.405000
     48 H11        -4.6830   -3.2280    0.2350 hc        1 TFY      0.057700
     49 H12        -3.9260   -3.1530   -1.4060 hc        1 TFY      0.057700
     50 H13        -2.8290   -0.1870    3.1030 ha        1 TFY      0.122500
     51 H14        -1.8920   -1.7190    2.6270 ha        1 TFY      0.122500
     52 H15        -1.6620   -3.1460   -1.0420 ha        1 TFY      0.124000
     53 H16        -0.5760   -0.8700    0.7650 ha        1 TFY      0.136000
     54 H17         1.0850   -4.5270    0.5000 hc        1 TFY      0.047700
     55 H18         0.0400   -4.1930   -0.9340 hc        1 TFY      0.047700
     56 H19         2.3900   -4.9900   -1.4560 hc        1 TFY      0.041700
     57 H20         1.8830   -3.4650   -2.2800 hc        1 TFY      0.041700
     58 H21         2.3010   -2.6000    1.5460 hc        1 TFY      0.056700
     59 H22         1.2940    0.2170    0.8160 hc        1 TFY      0.045700
     60 H23         1.5540   -0.5290    2.4410 hc        1 TFY      0.045700
     61 H24         3.4700    0.9910    0.9320 hc        1 TFY      0.043700
     62 H25         3.8400   -0.0360    2.3720 hc        1 TFY      0.043700
     63 H26         4.6850   -1.7930    1.1080 hc        1 TFY      0.046700
     64 H27         2.4770    0.1100   -1.2330 hc        1 TFY      0.038033
     65 H28         3.3330   -1.0330   -2.3530 hc        1 TFY      0.038033
     66 H29         1.6060   -1.3330   -1.8910 hc        1 TFY      0.038033
     67 H30         3.7840   -3.7720    0.1390 hc        1 TFY      0.043700
     68 H31         4.1780   -3.2120   -1.5330 hc        1 TFY      0.043700
     69 H32         4.7430    0.4340   -1.0290 hc        1 TFY      0.052700
     70 H33         5.3380   -1.6110   -2.1550 hc        1 TFY      0.035033
     71 H34         6.9090   -0.8580   -1.6820 hc        1 TFY      0.035033
     72 H35         6.2500   -2.2450   -0.7210 hc        1 TFY      0.035033
     73 H36         5.7230    0.7880    1.4210 hc        1 TFY      0.039700
     74 H37         6.9820   -0.4000    0.9140 hc        1 TFY      0.039700
     75 H38         7.5480    1.0630   -1.0670 hc        1 TFY      0.050200
     76 H39         6.2420    2.2130   -0.5850 hc        1 TFY      0.050200
     77 H40         7.3830    2.7340    1.5280 hc        1 TFY      0.042700
     78 H41         8.5790    1.4010    1.2700 hc        1 TFY      0.042700
     79 H42        10.0930    1.7560   -0.5940 ho        1 TFY      0.397000
     80 H43         7.4020    4.7310    0.0320 hc        1 TFY      0.043700
     81 H44         8.7930    5.0030   -1.1090 hc        1 TFY      0.043700
     82 H45         7.5000    3.8100   -1.5360 hc        1 TFY      0.043700
     83 H46        10.4160    2.9470    1.5450 hc        1 TFY      0.043700
     84 H47        10.5920    4.3960    0.4710 hc        1 TFY      0.043700
     85 H48         9.3070    4.3680    1.7560 hc        1 TFY      0.043700
@<TRIPOS>BOND
     1    1    2 1   
     2    1   38 1   
     3    2    3 1   
     4    2   14 1   
     5    2   39 1   
     6    3    4 1   
     7    3   11 1   
     8    3   40 1   
     9    4    5 1   
    10    4   41 1   
    11    4   42 1   
    12    5    6 1   
    13    5   43 1   
    14    5   44 1   
    15    6    7 1   
    16    6   10 1   
    17    7    8 2   
    18    7   45 1   
    19    8    9 1   
    20    9   10 2   
    21   11   12 1   
    22   11   13 1   
    23   11   46 1   
    24   12   47 1   
    25   13   16 1   
    26   13   48 1   
    27   13   49 1   
    28   14   15 2   
    29   14   16 1   
    30   15   50 1   
    31   15   51 1   
    32   16   17 2   
    33   17   18 1   
    34   17   52 1   
    35   18   19 2   
    36   18   53 1   
    37   19   20 1   
    38   19   22 1   
    39   20   21 1   
    40   20   54 1   
    41   20   55 1   
    42   21   28 1   
    43   21   56 1   
    44   21   57 1   
    45   22   23 1   
    46   22   26 1   
    47   22   58 1   
    48   23   24 1   
    49   23   59 1   
    50   23   60 1   
    51   24   25 1   
    52   24   61 1   
    53   24   62 1   
    54   25   26 1   
    55   25   29 1   
    56   25   63 1   
    57   26   27 1   
    58   26   28 1   
    59   27   64 1   
    60   27   65 1   
    61   27   66 1   
    62   28   67 1   
    63   28   68 1   
    64   29   30 1   
    65   29   31 1   
    66   29   69 1   
    67   30   70 1   
    68   30   71 1   
    69   30   72 1   
    70   31   32 1   
    71   31   73 1   
    72   31   74 1   
    73   32   33 1   
    74   32   75 1   
    75   32   76 1   
    76   33   34 1   
    77   33   77 1   
    78   33   78 1   
    79   34   35 1   
    80   34   36 1   
    81   34   37 1   
    82   35   79 1   
    83   36   80 1   
    84   36   81 1   
    85   36   82 1   
    86   37   83 1   
    87   37   84 1   
    88   37   85 1   
@<TRIPOS>SUBSTRUCTURE
     1 TFY         1 TEMP              0 ****  ****    0 ROOT
