@<TRIPOS>MOLECULE
TFY
   85    88     1     0     0
SMALL
bcc


@<TRIPOS>ATOM
      1 O31         0.2660    0.5730    0.2580 oh        1 TFY     -0.585800
      2 C27         1.6650    0.3440    0.2240 c3        1 TFY      0.182300
      3 C26         2.2700    0.2900    1.6360 c3        1 TFY     -0.085700
      4 C30         1.8850    1.5180    2.4450 c3        1 TFY     -0.101400
      5 C32         2.8340    2.6750    2.1310 c3        1 TFY      0.051300
      6 N33         2.5790    3.8710    2.9100 na        1 TFY     -0.079400
      7 C37         3.0470    4.1340    4.2120 cc        1 TFY      0.375400
      8 N36         2.5180    5.3360    4.5620 nd        1 TFY     -0.379000
      9 N35         1.7780    5.7410    3.5250 nd        1 TFY     -0.054000
     10 N34         1.7880    4.9090    2.5530 nc        1 TFY     -0.186800
     11 C25         1.8160   -0.9870    2.3520 c3        1 TFY      0.146100
     12 O29         2.4690   -1.0050    3.6170 oh        1 TFY     -0.601800
     13 C24         2.1940   -2.2340    1.5530 c3        1 TFY     -0.075200
     14 C28         2.0010   -0.9080   -0.5450 ce        1 TFY     -0.122200
     15 C39         2.5370   -0.8450   -1.7690 c2        1 TFY     -0.176000
     16 C23         1.7140   -2.1660    0.1430 ce        1 TFY     -0.100200
     17 C11         1.0900   -3.2200   -0.4210 cf        1 TFY     -0.097000
     18 C10         0.5720   -3.2470   -1.7690 cf        1 TFY     -0.166000
     19 C4          0.2620   -4.3510   -2.4710 c2        1 TFY     -0.062400
     20 C3          0.4880   -5.7540   -2.0100 c3        1 TFY     -0.047200
     21 C2         -0.6890   -6.6800   -2.2680 c3        1 TFY     -0.073400
     22 C5         -0.2710   -4.3080   -3.8580 c3        1 TFY     -0.041500
     23 C8         -0.5670   -2.9830   -4.5440 c3        1 TFY     -0.074400
     24 C9         -1.5500   -3.3420   -5.6600 c3        1 TFY     -0.079400
     25 C7         -2.0110   -4.7970   -5.4330 c3        1 TFY     -0.053700
     26 C6         -1.6090   -5.0930   -3.9690 c3        1 TFY     -0.039000
     27 C13        -2.6460   -4.5450   -3.0030 c3        1 TFY     -0.083100
     28 C1         -1.2940   -6.5470   -3.6540 c3        1 TFY     -0.068400
     29 C14        -3.4810   -4.9920   -5.7930 c3        1 TFY     -0.054700
     30 C16        -3.9370   -6.4170   -5.5400 c3        1 TFY     -0.092100
     31 C15        -3.7150   -4.6390   -7.2610 c3        1 TFY     -0.079400
     32 C17        -5.1620   -4.2830   -7.5330 c3        1 TFY     -0.079400
     33 C18        -5.3650   -3.9270   -8.9900 c3        1 TFY     -0.064400
     34 C19        -6.8400   -3.7300   -9.3560 c3        1 TFY      0.147800
     35 O22        -7.4760   -4.9900   -9.1300 oh        1 TFY     -0.598800
     36 C21        -7.4950   -2.6540   -8.5000 c3        1 TFY     -0.123100
     37 C20        -6.9520   -3.3570  -10.8320 c3        1 TFY     -0.123100
     38 H1         -0.1560   -0.2410    0.5610 ho        1 TFY      0.405000
     39 H2          2.0650    1.2570   -0.3090 h1        1 TFY      0.077700
     40 H3          3.3900    0.2410    1.5320 hc        1 TFY      0.069700
     41 H4          1.9370    1.2710    3.5390 hc        1 TFY      0.077200
     42 H5          0.8280    1.8090    2.2050 hc        1 TFY      0.077200
     43 H6          2.7540    2.9360    1.0360 h1        1 TFY      0.072200
     44 H7          3.8950    2.3630    2.3500 h1        1 TFY      0.072200
     45 H8          3.7090    3.4830    4.7880 h5        1 TFY      0.084100
     46 H9          0.7010   -0.9540    2.5130 h1        1 TFY      0.039700
     47 H10         2.2000   -1.8200    4.0570 ho        1 TFY      0.405000
     48 H11         1.7780   -3.1380    2.0720 hc        1 TFY      0.057700
     49 H12         3.3140   -2.3350    1.5530 hc        1 TFY      0.057700
     50 H13         2.7980   -1.7460   -2.3410 ha        1 TFY      0.122500
     51 H14         2.7490    0.1110   -2.2680 ha        1 TFY      0.122500
     52 H15         0.9290   -4.1290    0.1870 ha        1 TFY      0.124000
     53 H16         0.4230   -2.2530   -2.2330 ha        1 TFY      0.136000
     54 H17         1.3900   -6.1480   -2.5570 hc        1 TFY      0.047200
     55 H18         0.7300   -5.7860   -0.9150 hc        1 TFY      0.047200
     56 H19        -1.4860   -6.4790   -1.5020 hc        1 TFY      0.041700
     57 H20        -0.3480   -7.7390   -2.1200 hc        1 TFY      0.041700
     58 H21         0.4890   -4.8480   -4.5010 hc        1 TFY      0.056700
     59 H22         0.3640   -2.5180   -4.9510 hc        1 TFY      0.045200
     60 H23        -1.0320   -2.2550   -3.8330 hc        1 TFY      0.045200
     61 H24        -2.4250   -2.6450   -5.6390 hc        1 TFY      0.043700
     62 H25        -1.0600   -3.2470   -6.6600 hc        1 TFY      0.043700
     63 H26        -1.4050   -5.4740   -6.0960 hc        1 TFY      0.046700
     64 H27        -2.2240   -4.4770   -1.9710 hc        1 TFY      0.038033
     65 H28        -2.9650   -3.5210   -3.3160 hc        1 TFY      0.038033
     66 H29        -3.5440   -5.2070   -2.9770 hc        1 TFY      0.038033
     67 H30        -0.5780   -6.9470   -4.4200 hc        1 TFY      0.044700
     68 H31        -2.2240   -7.1690   -3.7080 hc        1 TFY      0.044700
     69 H32        -4.1000   -4.2990   -5.1560 hc        1 TFY      0.050700
     70 H33        -4.0790   -6.6000   -4.4480 hc        1 TFY      0.035367
     71 H34        -4.9120   -6.6100   -6.0500 hc        1 TFY      0.035367
     72 H35        -3.1860   -7.1460   -5.9300 hc        1 TFY      0.035367
     73 H36        -3.0710   -3.7710   -7.5590 hc        1 TFY      0.040200
     74 H37        -3.4120   -5.5090   -7.9020 hc        1 TFY      0.040200
     75 H38        -5.4620   -3.4160   -6.8870 hc        1 TFY      0.048700
     76 H39        -5.8330   -5.1430   -7.2710 hc        1 TFY      0.048700
     77 H40        -4.9520   -4.7480   -9.6340 hc        1 TFY      0.047200
     78 H41        -4.8140   -2.9830   -9.2360 hc        1 TFY      0.047200
     79 H42        -8.4050   -4.8750   -9.3600 ho        1 TFY      0.397000
     80 H43        -7.5870   -3.0080   -7.4450 hc        1 TFY      0.042533
     81 H44        -6.8830   -1.7230   -8.5200 hc        1 TFY      0.042533
     82 H45        -8.5170   -2.4210   -8.8850 hc        1 TFY      0.042533
     83 H46        -6.4980   -4.1580  -11.4630 hc        1 TFY      0.042533
     84 H47        -8.0240   -3.2420  -11.1210 hc        1 TFY      0.042533
     85 H48        -6.4220   -2.3960  -11.0250 hc        1 TFY      0.042533
@<TRIPOS>BOND
     1    1    2 1   
     2    1   38 1   
     3    2    3 1   
     4    2   14 1   
     5    2   39 1   
     6    3    4 1   
     7    3   11 1   
     8    3   40 1   
     9    4    5 1   
    10    4   41 1   
    11    4   42 1   
    12    5    6 1   
    13    5   43 1   
    14    5   44 1   
    15    6    7 1   
    16    6   10 1   
    17    7    8 2   
    18    7   45 1   
    19    8    9 1   
    20    9   10 2   
    21   11   12 1   
    22   11   13 1   
    23   11   46 1   
    24   12   47 1   
    25   13   16 1   
    26   13   48 1   
    27   13   49 1   
    28   14   15 2   
    29   14   16 1   
    30   15   50 1   
    31   15   51 1   
    32   16   17 2   
    33   17   18 1   
    34   17   52 1   
    35   18   19 2   
    36   18   53 1   
    37   19   20 1   
    38   19   22 1   
    39   20   21 1   
    40   20   54 1   
    41   20   55 1   
    42   21   28 1   
    43   21   56 1   
    44   21   57 1   
    45   22   23 1   
    46   22   26 1   
    47   22   58 1   
    48   23   24 1   
    49   23   59 1   
    50   23   60 1   
    51   24   25 1   
    52   24   61 1   
    53   24   62 1   
    54   25   26 1   
    55   25   29 1   
    56   25   63 1   
    57   26   27 1   
    58   26   28 1   
    59   27   64 1   
    60   27   65 1   
    61   27   66 1   
    62   28   67 1   
    63   28   68 1   
    64   29   30 1   
    65   29   31 1   
    66   29   69 1   
    67   30   70 1   
    68   30   71 1   
    69   30   72 1   
    70   31   32 1   
    71   31   73 1   
    72   31   74 1   
    73   32   33 1   
    74   32   75 1   
    75   32   76 1   
    76   33   34 1   
    77   33   77 1   
    78   33   78 1   
    79   34   35 1   
    80   34   36 1   
    81   34   37 1   
    82   35   79 1   
    83   36   80 1   
    84   36   81 1   
    85   36   82 1   
    86   37   83 1   
    87   37   84 1   
    88   37   85 1   
@<TRIPOS>SUBSTRUCTURE
     1 TFY         1 TEMP              0 ****  ****    0 ROOT
