@<TRIPOS>MOLECULE
TFY
   85    88     1     0     0
SMALL
bcc


@<TRIPOS>ATOM
      1 O31         0.2720    0.5730    0.2490 oh        1 TFY     -0.585800
      2 C27         1.6700    0.3430    0.2160 c3        1 TFY      0.182300
      3 C26         2.2750    0.2890    1.6290 c3        1 TFY     -0.085700
      4 C30         1.8910    1.5200    2.4360 c3        1 TFY     -0.101400
      5 C32         2.8410    2.6760    2.1190 c3        1 TFY      0.051300
      6 N33         2.5870    3.8730    2.8970 na        1 TFY     -0.079400
      7 C37         3.0550    4.1380    4.1990 cc        1 TFY      0.375400
      8 N36         2.5270    5.3400    4.5460 nd        1 TFY     -0.379000
      9 N35         1.7870    5.7440    3.5090 nd        1 TFY     -0.054000
     10 N34         1.7960    4.9110    2.5390 nc        1 TFY     -0.186800
     11 C25         1.8190   -0.9860    2.3460 c3        1 TFY      0.146100
     12 O29         2.4720   -1.0020    3.6120 oh        1 TFY     -0.601800
     13 C24         2.1960   -2.2340    1.5500 c3        1 TFY     -0.075200
     14 C28         2.0050   -0.9110   -0.5510 ce        1 TFY     -0.122200
     15 C39         2.5430   -0.8510   -1.7740 c2        1 TFY     -0.176000
     16 C23         1.7160   -2.1670    0.1400 ce        1 TFY     -0.100200
     17 C11         1.0900   -3.2220   -0.4230 cf        1 TFY     -0.097000
     18 C10         0.5730   -3.2500   -1.7700 cf        1 TFY     -0.166000
     19 C4          0.2590   -4.3550   -2.4700 c2        1 TFY     -0.062400
     20 C3          0.4800   -5.7580   -2.0050 c3        1 TFY     -0.047200
     21 C2         -0.7010   -6.6800   -2.2610 c3        1 TFY     -0.073400
     22 C5         -0.2740   -4.3140   -3.8570 c3        1 TFY     -0.041500
     23 C8         -0.5650   -2.9890   -4.5470 c3        1 TFY     -0.074400
     24 C9         -1.5500   -3.3470   -5.6610 c3        1 TFY     -0.079400
     25 C7         -2.0170   -4.8000   -5.4300 c3        1 TFY     -0.053700
     26 C6         -1.6150   -5.0930   -3.9660 c3        1 TFY     -0.039000
     27 C13        -2.6500   -4.5390   -3.0010 c3        1 TFY     -0.083100
     28 C1         -1.3050   -6.5480   -3.6480 c3        1 TFY     -0.068400
     29 C14        -3.4870   -4.9900   -5.7890 c3        1 TFY     -0.054700
     30 C16        -3.9490   -6.4120   -5.5330 c3        1 TFY     -0.092100
     31 C15        -3.7210   -4.6400   -7.2580 c3        1 TFY     -0.079400
     32 C17        -5.1660   -4.2790   -7.5310 c3        1 TFY     -0.079400
     33 C18        -5.3680   -3.9260   -8.9890 c3        1 TFY     -0.064400
     34 C19        -6.8420   -3.7230   -9.3540 c3        1 TFY      0.147800
     35 O22        -7.4840   -4.9790   -9.1240 oh        1 TFY     -0.598800
     36 C21        -7.4920   -2.6410   -8.5010 c3        1 TFY     -0.123100
     37 C20        -6.9540   -3.3540  -10.8310 c3        1 TFY     -0.123100
     38 H1         -0.1510   -0.2400    0.5530 ho        1 TFY      0.405000
     39 H2          2.0720    1.2540   -0.3180 h1        1 TFY      0.077700
     40 H3          3.3940    0.2390    1.5250 hc        1 TFY      0.069700
     41 H4          1.9420    1.2740    3.5300 hc        1 TFY      0.077200
     42 H5          0.8340    1.8110    2.1950 hc        1 TFY      0.077200
     43 H6          3.9020    2.3630    2.3390 h1        1 TFY      0.072200
     44 H7          2.7610    2.9350    1.0250 h1        1 TFY      0.072200
     45 H8          3.7170    3.4860    4.7750 h5        1 TFY      0.084100
     46 H9          0.7040   -0.9510    2.5070 h1        1 TFY      0.039700
     47 H10         2.2020   -1.8160    4.0530 ho        1 TFY      0.405000
     48 H11         3.3160   -2.3370    1.5500 hc        1 TFY      0.057700
     49 H12         1.7790   -3.1370    2.0700 hc        1 TFY      0.057700
     50 H13         2.7550    0.1030   -2.2750 ha        1 TFY      0.122500
     51 H14         2.8020   -1.7530   -2.3450 ha        1 TFY      0.122500
     52 H15         0.9280   -4.1300    0.1870 ha        1 TFY      0.124000
     53 H16         0.4270   -2.2570   -2.2370 ha        1 TFY      0.136000
     54 H17         0.7230   -5.7880   -0.9110 hc        1 TFY      0.047200
     55 H18         1.3800   -6.1560   -2.5520 hc        1 TFY      0.047200
     56 H19        -0.3640   -7.7400   -2.1100 hc        1 TFY      0.041700
     57 H20        -1.4970   -6.4740   -1.4960 hc        1 TFY      0.041700
     58 H21         0.4840   -4.8580   -4.4990 hc        1 TFY      0.056700
     59 H22        -1.0270   -2.2580   -3.8380 hc        1 TFY      0.045200
     60 H23         0.3670   -2.5290   -4.9550 hc        1 TFY      0.045200
     61 H24        -2.4220   -2.6470   -5.6420 hc        1 TFY      0.043700
     62 H25        -1.0600   -3.2570   -6.6610 hc        1 TFY      0.043700
     63 H26        -1.4140   -5.4810   -6.0920 hc        1 TFY      0.046700
     64 H27        -2.2270   -4.4710   -1.9690 hc        1 TFY      0.038033
     65 H28        -2.9650   -3.5150   -3.3170 hc        1 TFY      0.038033
     66 H29        -3.5500   -5.1980   -2.9730 hc        1 TFY      0.038033
     67 H30        -2.2380   -7.1670   -3.7000 hc        1 TFY      0.044700
     68 H31        -0.5920   -6.9530   -4.4120 hc        1 TFY      0.044700
     69 H32        -4.1040   -4.2930   -5.1550 hc        1 TFY      0.050700
     70 H33        -4.0910   -6.5920   -4.4410 hc        1 TFY      0.035367
     71 H34        -3.2010   -7.1460   -5.9210 hc        1 TFY      0.035367
     72 H35        -4.9250   -6.6030   -6.0420 hc        1 TFY      0.035367
     73 H36        -3.4220   -5.5130   -7.8970 hc        1 TFY      0.040200
     74 H37        -3.0730   -3.7760   -7.5590 hc        1 TFY      0.040200
     75 H38        -5.4620   -3.4090   -6.8870 hc        1 TFY      0.048700
     76 H39        -5.8410   -5.1350   -7.2660 hc        1 TFY      0.048700
     77 H40        -4.9590   -4.7500   -9.6300 hc        1 TFY      0.047200
     78 H41        -4.8130   -2.9850   -9.2370 hc        1 TFY      0.047200
     79 H42        -8.4130   -4.8610   -9.3540 ho        1 TFY      0.397000
     80 H43        -6.8750   -1.7130   -8.5240 hc        1 TFY      0.042533
     81 H44        -8.5130   -2.4050   -8.8860 hc        1 TFY      0.042533
     82 H45        -7.5850   -2.9920   -7.4450 hc        1 TFY      0.042533
     83 H46        -6.5050   -4.1590  -11.4600 hc        1 TFY      0.042533
     84 H47        -8.0260   -3.2350  -11.1200 hc        1 TFY      0.042533
     85 H48        -6.4200   -2.3960  -11.0280 hc        1 TFY      0.042533
@<TRIPOS>BOND
     1    1    2 1   
     2    1   38 1   
     3    2    3 1   
     4    2   14 1   
     5    2   39 1   
     6    3    4 1   
     7    3   11 1   
     8    3   40 1   
     9    4    5 1   
    10    4   41 1   
    11    4   42 1   
    12    5    6 1   
    13    5   43 1   
    14    5   44 1   
    15    6    7 1   
    16    6   10 1   
    17    7    8 2   
    18    7   45 1   
    19    8    9 1   
    20    9   10 2   
    21   11   12 1   
    22   11   13 1   
    23   11   46 1   
    24   12   47 1   
    25   13   16 1   
    26   13   48 1   
    27   13   49 1   
    28   14   15 2   
    29   14   16 1   
    30   15   50 1   
    31   15   51 1   
    32   16   17 2   
    33   17   18 1   
    34   17   52 1   
    35   18   19 2   
    36   18   53 1   
    37   19   20 1   
    38   19   22 1   
    39   20   21 1   
    40   20   54 1   
    41   20   55 1   
    42   21   28 1   
    43   21   56 1   
    44   21   57 1   
    45   22   23 1   
    46   22   26 1   
    47   22   58 1   
    48   23   24 1   
    49   23   59 1   
    50   23   60 1   
    51   24   25 1   
    52   24   61 1   
    53   24   62 1   
    54   25   26 1   
    55   25   29 1   
    56   25   63 1   
    57   26   27 1   
    58   26   28 1   
    59   27   64 1   
    60   27   65 1   
    61   27   66 1   
    62   28   67 1   
    63   28   68 1   
    64   29   30 1   
    65   29   31 1   
    66   29   69 1   
    67   30   70 1   
    68   30   71 1   
    69   30   72 1   
    70   31   32 1   
    71   31   73 1   
    72   31   74 1   
    73   32   33 1   
    74   32   75 1   
    75   32   76 1   
    76   33   34 1   
    77   33   77 1   
    78   33   78 1   
    79   34   35 1   
    80   34   36 1   
    81   34   37 1   
    82   35   79 1   
    83   36   80 1   
    84   36   81 1   
    85   36   82 1   
    86   37   83 1   
    87   37   84 1   
    88   37   85 1   
@<TRIPOS>SUBSTRUCTURE
     1 TFY         1 TEMP              0 ****  ****    0 ROOT
