@<TRIPOS>MOLECULE
TFZ
   30    30     1     0     0
SMALL
bcc


@<TRIPOS>ATOM
      1 N          -1.2420    0.2760    0.8300 n3        1 TFZ     -0.258000
      2 O          -0.0070   -0.4640   -1.6710 o         1 TFZ     -0.349000
      3 F1          3.1710    0.7910    0.6080 f         1 TFZ     -0.173000
      4 C2          2.9250   -0.1440   -1.6420 ca        1 TFZ     -0.106000
      5 F2          1.6400   -0.7040    0.3700 f         1 TFZ     -0.173000
      6 C3          2.1440   -0.6090   -2.7140 ca        1 TFZ     -0.140000
      7 F3          1.3400    1.2780   -0.4220 f         1 TFZ     -0.173000
      8 C4          2.7830   -0.9940   -3.9000 ca        1 TFZ     -0.082000
      9 C5          4.1710   -0.9210   -4.0190 ca        1 TFZ     -0.102000
     10 C6          4.9360   -0.4590   -2.9510 ca        1 TFZ     -0.088000
     11 C7          4.3140   -0.0700   -1.7630 ca        1 TFZ     -0.093000
     12 C8          0.6740   -0.7160   -2.6700 c2        1 TFZ      0.255000
     13 C9         -1.3590    0.3020    2.1600 c2        1 TFZ      0.151000
     14 C10        -0.3120   -0.1560    3.0880 c2        1 TFZ     -0.166000
     15 C11        -0.4500    0.0240    4.4430 c2        1 TFZ     -0.075000
     16 C12        -1.6050    0.5990    5.0380 c2        1 TFZ     -0.096000
     17 C13        -2.6680    1.0260    4.2250 c2        1 TFZ     -0.098000
     18 C14        -2.4500    0.6540    2.9390 c1        1 TFZ      0.117000
     19 HN          0.1950   -1.0490   -3.6200 h4        1 TFZ      0.122000
     20 H4          2.1830   -1.3590   -4.7500 ha        1 TFZ      0.154000
     21 H5          4.6580   -1.2280   -4.9580 ha        1 TFZ      0.161000
     22 H6          6.0330   -0.3970   -3.0380 ha        1 TFZ      0.162000
     23 H7          4.9250    0.2980   -0.9210 ha        1 TFZ      0.165000
     24 H10        -0.4220   -0.1200    0.3980 hn        1 TFZ      0.287500
     25 H11         0.6260   -0.5250    2.6340 ha        1 TFZ      0.207000
     26 H12         0.3870   -0.2620    5.1110 ha        1 TFZ      0.196000
     27 H13        -1.7130    0.6450    6.1340 ha        1 TFZ      0.201000
     28 H14        -3.6000    1.4590    4.6230 ha        1 TFZ      0.233000
     29 HN3        -1.8820    0.7630    0.2430 hn        1 TFZ      0.287500
     30 C1          2.2940    0.2930   -0.3250 c3        1 TFZ      0.472000
@<TRIPOS>BOND
     1    1   13 1   
     2    1   24 1   
     3    1   29 1   
     4    2   12 1   
     5    3   30 1   
     6    4    6 1   
     7    4   11 1   
     8    4   30 1   
     9    5   30 1   
    10    6    8 1   
    11    6   12 1   
    12    7   30 1   
    13    8    9 1   
    14    8   20 1   
    15    9   10 1   
    16    9   21 1   
    17   10   11 1   
    18   10   22 1   
    19   11   23 1   
    20   12   19 1   
    21   13   14 1   
    22   13   18 1   
    23   14   15 1   
    24   14   25 1   
    25   15   16 1   
    26   15   26 1   
    27   16   17 1   
    28   16   27 1   
    29   17   18 1   
    30   17   28 1   
@<TRIPOS>SUBSTRUCTURE
     1 TFZ         1 TEMP              0 ****  ****    0 ROOT
