@<TRIPOS>MOLECULE
TFZ
   29    30     1     0     0
SMALL
bcc


@<TRIPOS>ATOM
      1 N           0.4140   -0.2670    0.3310 ns        1 TFZ     -0.448100
      2 O           0.8190    1.9650   -0.1190 o         1 TFZ     -0.570100
      3 F1          4.7090   -1.6020   -0.0170 f         1 TFZ     -0.231633
      4 C2          3.0160   -0.4920   -1.3820 ca        1 TFZ     -0.140300
      5 F2          2.6580   -2.2110    0.3040 f         1 TFZ     -0.231633
      6 C3          1.9130    0.3590   -1.5070 ca        1 TFZ     -0.094600
      7 F3          3.3560   -0.2870    1.0360 f         1 TFZ     -0.231633
      8 C4          1.6080    0.9170   -2.7560 ca        1 TFZ     -0.091000
      9 C5          2.3850    0.6140   -3.8720 ca        1 TFZ     -0.105000
     10 C6          3.4780   -0.2420   -3.7480 ca        1 TFZ     -0.114000
     11 C7          3.7950   -0.7900   -2.5060 ca        1 TFZ     -0.091000
     12 C8          1.0230    0.7640   -0.3710 c         1 TFZ      0.671700
     13 C9         -0.4990   -0.1010    1.3610 c2        1 TFZ      0.026300
     14 C10        -0.5950    1.1540    2.2040 c3        1 TFZ     -0.022000
     15 C11        -0.7980    0.7630    3.6430 c2        1 TFZ     -0.159200
     16 C12        -1.3330   -0.4140    4.0320 ce        1 TFZ     -0.152000
     17 C13        -1.9070   -1.2660    2.9790 ce        1 TFZ     -0.119100
     18 C14        -1.3430   -1.0630    1.7960 c1        1 TFZ     -0.151800
     19 HN          0.6060   -1.2100    0.0600 hn        1 TFZ      0.338500
     20 H4          0.7530    1.6080   -2.8410 ha        1 TFZ      0.161000
     21 H5          2.1350    1.0550   -4.8500 ha        1 TFZ      0.148000
     22 H6          4.0950   -0.4850   -4.6260 ha        1 TFZ      0.148000
     23 H7          4.6670   -1.4580   -2.4050 ha        1 TFZ      0.159000
     24 H10         0.3560    1.7460    2.1050 hc        1 TFZ      0.094700
     25 H11        -1.4370    1.8200    1.8740 hc        1 TFZ      0.094700
     26 H12        -0.4930    1.5280    4.3720 ha        1 TFZ      0.136000
     27 H13        -1.4500   -0.7060    5.0820 ha        1 TFZ      0.138000
     28 H14        -2.7840   -1.8860    3.1890 ha        1 TFZ      0.152000
     29 C1          3.4220   -1.1230   -0.0500 c3        1 TFZ      0.683200
@<TRIPOS>BOND
     1    1   12 1   
     2    1   13 1   
     3    1   19 1   
     4    2   12 2   
     5    3   29 1   
     6    4    6 ar  
     7    4   11 ar  
     8    4   29 1   
     9    5   29 1   
    10    6    8 ar  
    11    6   12 1   
    12    7   29 1   
    13    8    9 ar  
    14    8   20 1   
    15    9   10 ar  
    16    9   21 1   
    17   10   11 ar  
    18   10   22 1   
    19   11   23 1   
    20   13   14 1   
    21   13   18 2   
    22   14   15 1   
    23   14   24 1   
    24   14   25 1   
    25   15   16 2   
    26   15   26 1   
    27   16   17 1   
    28   16   27 1   
    29   17   18 2   
    30   17   28 1   
@<TRIPOS>SUBSTRUCTURE
     1 TFZ         1 TEMP              0 ****  ****    0 ROOT
