@<TRIPOS>MOLECULE
TFZ
   29    30     1     0     0
SMALL
bcc


@<TRIPOS>ATOM
      1 N           1.0820   -0.5340   -0.0870 n         1 TFZ     -0.462100
      2 O           0.4920   -0.2070    2.1350 o         1 TFZ     -0.570100
      3 F1         -2.6270    1.3810   -1.8190 f         1 TFZ     -0.232300
      4 C2         -2.0310   -0.4490   -0.3160 ca        1 TFZ     -0.143300
      5 F2         -0.7810    0.3390   -2.2500 f         1 TFZ     -0.232300
      6 C3         -1.1980   -1.0060    0.6610 ca        1 TFZ     -0.093600
      7 F3         -0.8940    1.7090   -0.5690 f         1 TFZ     -0.232300
      8 C4         -1.6720   -2.0620    1.4500 ca        1 TFZ     -0.092000
      9 C5         -2.9550   -2.5690    1.2560 ca        1 TFZ     -0.104000
     10 C6         -3.7800   -2.0180    0.2770 ca        1 TFZ     -0.117000
     11 C7         -3.3210   -0.9580   -0.5040 ca        1 TFZ     -0.092000
     12 C8          0.1910   -0.5250    0.9710 c         1 TFZ      0.673700
     13 C9          2.4380   -0.1620   -0.0600 ca        1 TFZ      0.066600
     14 C10         3.1300    0.1620    1.1250 ca        1 TFZ     -0.165000
     15 C11         4.4790    0.5030    1.0730 ca        1 TFZ     -0.105500
     16 C12         5.1660    0.5300   -0.1370 ca        1 TFZ     -0.154000
     17 C13         4.4910    0.2140   -1.3150 ca        1 TFZ     -0.105500
     18 C14         3.1440   -0.1280   -1.2890 ca        1 TFZ     -0.165000
     19 HN          0.7180   -0.7550   -0.9900 hn        1 TFZ      0.326500
     20 H4         -1.0200   -2.4770    2.2370 ha        1 TFZ      0.162000
     21 H5         -3.3170   -3.4000    1.8810 ha        1 TFZ      0.148000
     22 H6         -4.7950   -2.4130    0.1190 ha        1 TFZ      0.147000
     23 H7         -3.9780   -0.5140   -1.2700 ha        1 TFZ      0.158000
     24 H10         2.6150    0.1540    2.1000 ha        1 TFZ      0.151500
     25 H11         5.0030    0.7540    2.0080 ha        1 TFZ      0.133000
     26 H12         6.2310    0.8010   -0.1660 ha        1 TFZ      0.133000
     27 H13         5.0240    0.2350   -2.2780 ha        1 TFZ      0.133000
     28 H14         2.6330   -0.3690   -2.2340 ha        1 TFZ      0.151500
     29 C1         -1.5940    0.7160   -1.2040 c3        1 TFZ      0.683200
@<TRIPOS>BOND
     1    1   12 1   
     2    1   13 1   
     3    1   19 1   
     4    2   12 2   
     5    3   29 1   
     6    4    6 ar  
     7    4   11 ar  
     8    4   29 1   
     9    5   29 1   
    10    6    8 ar  
    11    6   12 1   
    12    7   29 1   
    13    8    9 ar  
    14    8   20 1   
    15    9   10 ar  
    16    9   21 1   
    17   10   11 ar  
    18   10   22 1   
    19   11   23 1   
    20   13   14 ar  
    21   13   18 ar  
    22   14   15 ar  
    23   14   24 1   
    24   15   16 ar  
    25   15   25 1   
    26   16   17 ar  
    27   16   26 1   
    28   17   18 ar  
    29   17   27 1   
    30   18   28 1   
@<TRIPOS>SUBSTRUCTURE
     1 TFZ         1 TEMP              0 ****  ****    0 ROOT
