@<TRIPOS>MOLECULE
TG0
   59    62     1     0     0
SMALL
bcc


@<TRIPOS>ATOM
      1 N01         0.6440   -0.5990    0.4460 nh        1 TG0     -0.839200
      2 C02         2.0120   -0.6880    0.6490 ca        1 TG0      0.180600
      3 C03         2.6240   -0.1230    1.8050 ca        1 TG0     -0.120300
      4 C04         1.8030    0.6340    2.7790 c3        1 TG0     -0.043800
      5 C05         3.9950   -0.3190    2.0020 ca        1 TG0     -0.105600
      6 C06         4.6600    0.1940    3.2310 c         1 TG0      0.699700
      7 N07         5.3340    1.4230    3.1830 n         1 TG0     -0.470800
      8 C08         6.3460    1.7340    4.1800 c3        1 TG0      0.035700
      9 C09         5.7490    2.4490    5.4050 c         1 TG0      0.534100
     10 N10         4.6740    1.6800    6.1230 n4        1 TG0     -0.677800
     11 C11         4.4490    2.0800    7.5510 c3        1 TG0      0.175100
     12 C12         5.3950    1.3940    8.4740 ca        1 TG0     -0.193300
     13 C13         6.4330    2.1110    9.0800 ca        1 TG0     -0.094000
     14 C14         7.2830    1.4790    9.9820 ca        1 TG0     -0.123500
     15 C15         7.1140    0.1170   10.2900 ca        1 TG0      0.067000
     16 C16         8.0010   -0.5310   11.2210 cc        1 TG0     -0.208400
     17 C17         7.6620   -1.4630   12.2140 cd        1 TG0      0.396600
     18 C18         6.2920   -1.9450   12.5040 c3        1 TG0     -0.139400
     19 N19         8.7480   -1.9190   12.9600 nd        1 TG0     -0.620000
     20 C20         9.8620   -1.3380   12.5310 cc        1 TG0      0.398300
     21 S21         9.6690   -0.2400   11.2480 ss        1 TG0     -0.076300
     22 C22         6.0740   -0.5970    9.6680 ca        1 TG0     -0.123500
     23 C23         5.2210    0.0370    8.7720 ca        1 TG0     -0.094000
     24 O24         6.0720    3.5380    5.8520 o         1 TG0     -0.419100
     25 C25         7.4230    2.6230    3.5200 c3        1 TG0     -0.094400
     26 C26         7.0140    2.7680    2.0470 c3        1 TG0      0.133100
     27 O27         7.9690    2.0610    1.2820 oh        1 TG0     -0.586800
     28 C28         5.6190    2.1040    1.9270 c3        1 TG0      0.037000
     29 O29         4.6040   -0.3930    4.3330 o         1 TG0     -0.639100
     30 C30         4.7760   -1.0420    1.0990 ca        1 TG0     -0.155000
     31 C31         4.1730   -1.5930   -0.0310 ca        1 TG0     -0.078000
     32 C32         2.8170   -1.4180   -0.2630 ca        1 TG0     -0.172000
     33 H011        0.1630    0.1380    0.9050 hn        1 TG0      0.417300
     34 H012        0.3120   -0.8310   -0.4610 hn        1 TG0      0.417300
     35 H32         2.3610   -1.8660   -1.1610 ha        1 TG0      0.151000
     36 H041        0.9840   -0.0140    3.1850 hc        1 TG0      0.041700
     37 H042        2.4150    0.9890    3.6450 hc        1 TG0      0.041700
     38 H043        1.3390    1.5310    2.2950 hc        1 TG0      0.041700
     39 H30         5.8490   -1.1940    1.2820 ha        1 TG0      0.146000
     40 H08         6.8170    0.7820    4.5800 h1        1 TG0      0.112700
     41 H281        4.8260    2.8850    1.7620 h1        1 TG0      0.083200
     42 H282        5.6040    1.3810    1.0640 h1        1 TG0      0.083200
     43 H251        7.4910    3.6260    4.0080 hc        1 TG0      0.101700
     44 H252        8.4220    2.1200    3.5940 hc        1 TG0      0.101700
     45 H10         3.8040    1.7950    5.5900 hn        1 TG0      0.475300
     46 H111        3.3860    1.7970    7.8060 hx        1 TG0      0.110200
     47 H112        4.5550    3.2030    7.6230 hx        1 TG0      0.110200
     48 H13         6.5730    3.1810    8.8540 ha        1 TG0      0.143000
     49 H23         4.4010   -0.5330    8.3080 ha        1 TG0      0.143000
     50 H14         8.0900    2.0520   10.4670 ha        1 TG0      0.160500
     51 H22         5.9390   -1.6670    9.8950 ha        1 TG0      0.160500
     52 H181        6.1480   -2.1160   13.6010 hc        1 TG0      0.062033
     53 H182        5.5380   -1.1960   12.1560 hc        1 TG0      0.062033
     54 H183        6.1130   -2.9150   11.9750 hc        1 TG0      0.062033
     55 H20        10.8320   -1.5660   12.9880 h5        1 TG0      0.069100
     56 H26         6.9670    3.8450    1.7360 h1        1 TG0      0.073700
     57 H27         7.8900    2.3620    0.3670 ho        1 TG0      0.423000
     58 H31         4.7790   -2.1740   -0.7440 ha        1 TG0      0.152000
     59 H102        4.9210    0.6710    6.0870 hn        1 TG0      0.475300
@<TRIPOS>BOND
     1    1    2 1   
     2    1   33 1   
     3    1   34 1   
     4    2    3 ar  
     5    2   32 ar  
     6    3    4 1   
     7    3    5 ar  
     8    4   36 1   
     9    4   37 1   
    10    4   38 1   
    11    5    6 1   
    12    5   30 ar  
    13    6    7 1   
    14    6   29 2   
    15    7    8 1   
    16    7   28 1   
    17    8    9 1   
    18    8   25 1   
    19    8   40 1   
    20    9   10 1   
    21    9   24 2   
    22   10   11 1   
    23   10   45 1   
    24   10   59 1   
    25   11   12 1   
    26   11   46 1   
    27   11   47 1   
    28   12   13 ar  
    29   12   23 ar  
    30   13   14 ar  
    31   13   48 1   
    32   14   15 ar  
    33   14   50 1   
    34   15   16 1   
    35   15   22 ar  
    36   16   17 2   
    37   16   21 1   
    38   17   18 1   
    39   17   19 1   
    40   18   52 1   
    41   18   53 1   
    42   18   54 1   
    43   19   20 2   
    44   20   21 1   
    45   20   55 1   
    46   22   23 ar  
    47   22   51 1   
    48   23   49 1   
    49   25   26 1   
    50   25   43 1   
    51   25   44 1   
    52   26   27 1   
    53   26   28 1   
    54   26   56 1   
    55   27   57 1   
    56   28   41 1   
    57   28   42 1   
    58   30   31 ar  
    59   30   39 1   
    60   31   32 ar  
    61   31   58 1   
    62   32   35 1   
@<TRIPOS>SUBSTRUCTURE
     1 TG0         1 TEMP              0 ****  ****    0 ROOT
