@<TRIPOS>MOLECULE
TG0
   59    62     1     0     0
SMALL
bcc


@<TRIPOS>ATOM
      1 N01         0.6360   -0.5820    0.4530 nv        1 TG0     -0.839200
      2 C02         2.0040   -0.6750    0.6530 ca        1 TG0      0.180600
      3 C03         2.6190   -0.1120    1.8090 ca        1 TG0     -0.120300
      4 C04         1.8020    0.6460    2.7850 c3        1 TG0     -0.043800
      5 C05         3.9910   -0.3110    2.0040 ca        1 TG0     -0.105600
      6 C06         4.6590    0.1990    3.2310 c         1 TG0      0.699700
      7 N07         5.3350    1.4260    3.1830 n         1 TG0     -0.470800
      8 C08         6.3510    1.7330    4.1790 c3        1 TG0      0.035700
      9 C09         5.7570    2.4490    5.4050 c         1 TG0      0.534100
     10 N10         4.6800    1.6830    6.1250 ny        1 TG0     -0.677800
     11 C11         4.4580    2.0840    7.5530 c3        1 TG0      0.175100
     12 C12         5.4020    1.3930    8.4740 ca        1 TG0     -0.193300
     13 C13         6.4440    2.1050    9.0800 ca        1 TG0     -0.094000
     14 C14         7.2910    1.4680    9.9800 ca        1 TG0     -0.123500
     15 C15         7.1170    0.1080   10.2890 ca        1 TG0      0.067000
     16 C16         8.0020   -0.5450   11.2180 cc        1 TG0     -0.208400
     17 C17         7.6580   -1.4750   12.2120 cd        1 TG0      0.396600
     18 C18         6.2860   -1.9500   12.5040 c3        1 TG0     -0.139400
     19 N19         8.7430   -1.9370   12.9570 nd        1 TG0     -0.620000
     20 C20         9.8590   -1.3620   12.5270 cc        1 TG0      0.398300
     21 S21         9.6710   -0.2620   11.2440 ss        1 TG0     -0.076300
     22 C22         6.0730   -0.6010    9.6680 ca        1 TG0     -0.123500
     23 C23         5.2220    0.0360    8.7720 ca        1 TG0     -0.094000
     24 O24         6.0840    3.5360    5.8540 o         1 TG0     -0.419100
     25 C25         7.4280    2.6200    3.5180 c3        1 TG0     -0.094400
     26 C26         7.0170    2.7680    2.0460 c3        1 TG0      0.133100
     27 O27         7.9680    2.0580    1.2780 oh        1 TG0     -0.586800
     28 C28         5.6200    2.1070    1.9280 c3        1 TG0      0.037000
     29 O29         4.6020   -0.3890    4.3330 o         1 TG0     -0.639100
     30 C30         4.7680   -1.0370    1.0990 ca        1 TG0     -0.155000
     31 C31         4.1620   -1.5850   -0.0310 ca        1 TG0     -0.078000
     32 C32         2.8060   -1.4070   -0.2600 ca        1 TG0     -0.172000
     33 H011        0.3020   -0.8140   -0.4540 hn        1 TG0      0.417300
     34 H012        0.1570    0.1550    0.9130 hn        1 TG0      0.417300
     35 H32         2.3470   -1.8530   -1.1570 ha        1 TG0      0.151000
     36 H041        2.4160    0.9990    3.6500 hc        1 TG0      0.041700
     37 H042        0.9820    0.0000    3.1910 hc        1 TG0      0.041700
     38 H043        1.3400    1.5440    2.3010 hc        1 TG0      0.041700
     39 H30         5.8410   -1.1910    1.2800 ha        1 TG0      0.146000
     40 H08         6.8190    0.7800    4.5780 h1        1 TG0      0.112700
     41 H281        5.6020    1.3850    1.0650 h1        1 TG0      0.083200
     42 H282        4.8290    2.8900    1.7650 h1        1 TG0      0.083200
     43 H251        7.5000    3.6220    4.0070 hc        1 TG0      0.101700
     44 H252        8.4270    2.1150    3.5900 hc        1 TG0      0.101700
     45 H10         3.8100    1.8010    5.5920 hn        1 TG0      0.475300
     46 H111        3.3940    1.8040    7.8090 hx        1 TG0      0.110200
     47 H112        4.5680    3.2050    7.6260 hx        1 TG0      0.110200
     48 H13         6.5880    3.1740    8.8540 ha        1 TG0      0.143000
     49 H23         4.3990   -0.5300    8.3090 ha        1 TG0      0.143000
     50 H14         8.1020    2.0380   10.4650 ha        1 TG0      0.160500
     51 H22         5.9330   -1.6710    9.8940 ha        1 TG0      0.160500
     52 H181        6.1430   -2.1200   13.6010 hc        1 TG0      0.062033
     53 H182        5.5360   -1.1980   12.1560 hc        1 TG0      0.062033
     54 H183        6.1020   -2.9200   11.9750 hc        1 TG0      0.062033
     55 H20        10.8290   -1.5940   12.9820 h5        1 TG0      0.069100
     56 H26         6.9720    3.8450    1.7360 h1        1 TG0      0.073700
     57 H27         7.8900    2.3610    0.3640 ho        1 TG0      0.423000
     58 H31         4.7660   -2.1670   -0.7450 ha        1 TG0      0.152000
     59 H102        4.9240    0.6740    6.0870 hn        1 TG0      0.475300
@<TRIPOS>BOND
     1    1    2 1   
     2    1   33 1   
     3    1   34 1   
     4    2    3 ar  
     5    2   32 ar  
     6    3    4 1   
     7    3    5 ar  
     8    4   36 1   
     9    4   37 1   
    10    4   38 1   
    11    5    6 1   
    12    5   30 ar  
    13    6    7 1   
    14    6   29 2   
    15    7    8 1   
    16    7   28 1   
    17    8    9 1   
    18    8   25 1   
    19    8   40 1   
    20    9   10 1   
    21    9   24 2   
    22   10   11 1   
    23   10   45 1   
    24   10   59 1   
    25   11   12 1   
    26   11   46 1   
    27   11   47 1   
    28   12   13 ar  
    29   12   23 ar  
    30   13   14 ar  
    31   13   48 1   
    32   14   15 ar  
    33   14   50 1   
    34   15   16 1   
    35   15   22 ar  
    36   16   17 2   
    37   16   21 1   
    38   17   18 1   
    39   17   19 1   
    40   18   52 1   
    41   18   53 1   
    42   18   54 1   
    43   19   20 2   
    44   20   21 1   
    45   20   55 1   
    46   22   23 ar  
    47   22   51 1   
    48   23   49 1   
    49   25   26 1   
    50   25   43 1   
    51   25   44 1   
    52   26   27 1   
    53   26   28 1   
    54   26   56 1   
    55   27   57 1   
    56   28   41 1   
    57   28   42 1   
    58   30   31 ar  
    59   30   39 1   
    60   31   32 ar  
    61   31   58 1   
    62   32   35 1   
@<TRIPOS>SUBSTRUCTURE
     1 TG0         1 TEMP              0 ****  ****    0 ROOT
