@<TRIPOS>MOLECULE
TG0
   60    63     1     0     0
SMALL
bcc


@<TRIPOS>ATOM
      1 N01         0.4670   -1.3300    1.2390 n4        1 TG0     -0.701000
      2 C02         1.9040   -1.0900    1.0970 ca        1 TG0     -0.078400
      3 C03         2.5880   -0.3560    2.0960 ca        1 TG0      0.008700
      4 C04         1.8570    0.1740    3.2710 c3        1 TG0     -0.097800
      5 C05         3.9660   -0.1590    1.9270 ca        1 TG0     -0.121600
      6 C06         4.7850    0.5260    2.9740 c         1 TG0      0.694700
      7 N07         5.3320    1.7700    2.7150 n         1 TG0     -0.458800
      8 C08         6.4860    2.2330    3.4750 c3        1 TG0      0.048700
      9 C09         6.0630    2.7460    4.8630 c         1 TG0      0.520100
     10 N10         6.3070    1.7960    5.9980 n4        1 TG0     -0.682800
     11 C11         5.8660    2.3200    7.3410 c3        1 TG0      0.186100
     12 C12         6.3200    1.4130    8.4260 ca        1 TG0     -0.214300
     13 C13         7.4680    1.7220    9.1660 ca        1 TG0     -0.089000
     14 C14         7.8620    0.9040   10.2180 ca        1 TG0     -0.126500
     15 C15         7.1160   -0.2420   10.5550 ca        1 TG0      0.090000
     16 C16         7.5320   -1.0810   11.6450 cc        1 TG0     -0.227400
     17 C17         6.7120   -1.7210   12.5900 cd        1 TG0      0.407600
     18 C18         5.2360   -1.6220   12.6560 c3        1 TG0     -0.141400
     19 N19         7.4120   -2.4760   13.5290 nd        1 TG0     -0.618000
     20 C20         8.7160   -2.3950   13.2890 cc        1 TG0      0.409300
     21 S21         9.1590   -1.4290   11.9630 ss        1 TG0     -0.066300
     22 C22         5.9690   -0.5480    9.8000 ca        1 TG0     -0.126500
     23 C23         5.5740    0.2720    8.7500 ca        1 TG0     -0.089000
     24 O24         5.5540    3.8270    5.1100 o         1 TG0     -0.392100
     25 C25         7.1500    3.3750    2.6710 c3        1 TG0     -0.125400
     26 C26         6.4700    3.3640    1.2900 c3        1 TG0      0.140100
     27 O27         7.2670    2.6860    0.3410 oh        1 TG0     -0.597800
     28 C28         5.1890    2.5080    1.4690 c3        1 TG0      0.074000
     29 O29         4.9820    0.0060    4.0950 o         1 TG0     -0.629100
     30 C30         4.6380   -0.6760    0.8120 ca        1 TG0     -0.041000
     31 C31         3.9420   -1.3970   -0.1580 ca        1 TG0     -0.099000
     32 C32         2.5730   -1.6090   -0.0250 ca        1 TG0     -0.066000
     33 H011        0.3010   -1.9580    2.0370 hn        1 TG0      0.470133
     34 H012       -0.0190   -0.4410    1.4100 hn        1 TG0      0.470133
     35 H32         2.0390   -2.1830   -0.8030 ha        1 TG0      0.174000
     36 H041        1.3370   -0.6500    3.8230 hc        1 TG0      0.075700
     37 H042        2.5540    0.6640    3.9980 hc        1 TG0      0.075700
     38 H043        1.1010    0.9390    2.9570 hc        1 TG0      0.075700
     39 H30         5.7270   -0.5210    0.6980 ha        1 TG0      0.183000
     40 H08         7.2170    1.3790    3.6060 h1        1 TG0      0.094700
     41 H281        5.0670    1.8110    0.5950 h1        1 TG0      0.084700
     42 H282        4.2900    3.1780    1.5450 h1        1 TG0      0.084700
     43 H251        8.2470    3.1810    2.5730 hc        1 TG0      0.099700
     44 H252        6.9960    4.3650    3.1690 hc        1 TG0      0.099700
     45 H10         7.3100    1.5810    6.0420 hn        1 TG0      0.473300
     46 H111        6.2980    3.3560    7.4630 hx        1 TG0      0.110700
     47 H112        4.7420    2.4020    7.3140 hx        1 TG0      0.110700
     48 H13         8.0520    2.6280    8.9350 ha        1 TG0      0.135500
     49 H23         4.6630    0.0280    8.1820 ha        1 TG0      0.135500
     50 H14         8.7590    1.1620   10.8060 ha        1 TG0      0.164000
     51 H22         5.3830   -1.4480   10.0460 ha        1 TG0      0.164000
     52 H181        4.7760   -2.4910   12.1210 hc        1 TG0      0.062700
     53 H182        4.8910   -0.6730   12.1770 hc        1 TG0      0.062700
     54 H183        4.8780   -1.6390   13.7170 hc        1 TG0      0.062700
     55 H20         9.4420   -2.9250   13.9180 h5        1 TG0      0.075100
     56 H26         6.2160    4.4010    0.9480 h1        1 TG0      0.091700
     57 H27         7.8950    3.3230   -0.0280 ho        1 TG0      0.437000
     58 H31         4.4780   -1.8060   -1.0340 ha        1 TG0      0.193000
     59 H013        0.0930   -1.7630    0.3850 hn        1 TG0      0.470133
     60 H102        5.8080    0.9120    5.7950 hn        1 TG0      0.473300
@<TRIPOS>BOND
     1    1    2 1   
     2    1   33 1   
     3    1   34 1   
     4    1   59 1   
     5    2    3 ar  
     6    2   32 ar  
     7    3    4 1   
     8    3    5 ar  
     9    4   36 1   
    10    4   37 1   
    11    4   38 1   
    12    5    6 1   
    13    5   30 ar  
    14    6    7 1   
    15    6   29 2   
    16    7    8 1   
    17    7   28 1   
    18    8    9 1   
    19    8   25 1   
    20    8   40 1   
    21    9   10 1   
    22    9   24 2   
    23   10   11 1   
    24   10   45 1   
    25   10   60 1   
    26   11   12 1   
    27   11   46 1   
    28   11   47 1   
    29   12   13 ar  
    30   12   23 ar  
    31   13   14 ar  
    32   13   48 1   
    33   14   15 ar  
    34   14   50 1   
    35   15   16 1   
    36   15   22 ar  
    37   16   17 2   
    38   16   21 1   
    39   17   18 1   
    40   17   19 1   
    41   18   52 1   
    42   18   53 1   
    43   18   54 1   
    44   19   20 2   
    45   20   21 1   
    46   20   55 1   
    47   22   23 ar  
    48   22   51 1   
    49   23   49 1   
    50   25   26 1   
    51   25   43 1   
    52   25   44 1   
    53   26   27 1   
    54   26   28 1   
    55   26   56 1   
    56   27   57 1   
    57   28   41 1   
    58   28   42 1   
    59   30   31 ar  
    60   30   39 1   
    61   31   32 ar  
    62   31   58 1   
    63   32   35 1   
@<TRIPOS>SUBSTRUCTURE
     1 TG0         1 TEMP              0 ****  ****    0 ROOT
