@<TRIPOS>MOLECULE
TG0
   58    61     1     0     0
SMALL
bcc


@<TRIPOS>ATOM
      1 N01        -6.7830    3.1140   -0.0070 nh        1 TG0     -0.821200
      2 C02        -6.3240    1.9200    0.5570 ca        1 TG0      0.142600
      3 C03        -4.9960    1.4620    0.3210 ca        1 TG0     -0.097300
      4 C04        -4.1000    2.2170   -0.5870 c3        1 TG0     -0.057800
      5 C05        -4.5570    0.3060    0.9740 ca        1 TG0     -0.092600
      6 C06        -3.1570   -0.1850    0.7850 c         1 TG0      0.680700
      7 N07        -2.9290   -1.1600   -0.1770 n         1 TG0     -0.452800
      8 C08        -1.6490   -1.8580   -0.2520 c3        1 TG0      0.029700
      9 C09        -0.6410   -1.1450   -1.1850 c         1 TG0      0.650100
     10 N10        -0.3430    0.1670   -0.8910 n         1 TG0     -0.550900
     11 C11         0.6760    0.8910   -1.6030 c3        1 TG0      0.131300
     12 C12         2.0580    0.7770   -1.0220 ca        1 TG0     -0.116300
     13 C13         2.7840   -0.4070   -1.1900 ca        1 TG0     -0.115000
     14 C14         4.0740   -0.5170   -0.6820 ca        1 TG0     -0.120000
     15 C15         4.6630    0.5590    0.0030 ca        1 TG0     -0.005000
     16 C16         5.9980    0.4400    0.5360 cc        1 TG0     -0.144400
     17 C17         7.0340    1.3790    0.4590 cd        1 TG0      0.355600
     18 C18         6.9380    2.6930   -0.2170 c3        1 TG0     -0.128400
     19 N19         8.2180    0.9790    1.0810 nd        1 TG0     -0.627000
     20 C20         8.0590   -0.2300    1.6040 cc        1 TG0      0.367300
     21 S21         6.5230   -0.9290    1.3830 ss        1 TG0     -0.092300
     22 C22         3.9290    1.7420    0.1710 ca        1 TG0     -0.120000
     23 C23         2.6360    1.8480   -0.3370 ca        1 TG0     -0.115000
     24 O24        -0.1320   -1.7360   -2.1590 o         1 TG0     -0.622100
     25 C25        -1.9320   -3.2940   -0.7380 c3        1 TG0     -0.088400
     26 C26        -3.4210   -3.3460   -1.1000 c3        1 TG0      0.128100
     27 O27        -4.0220   -4.3390   -0.2880 oh        1 TG0     -0.592800
     28 C28        -3.9920   -1.9400   -0.7790 c3        1 TG0      0.050000
     29 O29        -2.2000    0.2850    1.4330 o         1 TG0     -0.607100
     30 C30        -5.3850   -0.3990    1.8520 ca        1 TG0     -0.150000
     31 C31        -6.6810    0.0550    2.0820 ca        1 TG0     -0.097000
     32 C32        -7.1540    1.1920    1.4400 ca        1 TG0     -0.180000
     33 H011       -6.3270    3.3850   -0.8490 hn        1 TG0      0.394800
     34 H012       -7.7740    3.2000   -0.0430 hn        1 TG0      0.394800
     35 H32        -8.1820    1.5330    1.6360 ha        1 TG0      0.135000
     36 H041       -3.9880    3.2730   -0.2330 hc        1 TG0      0.050700
     37 H042       -3.0790    1.7630   -0.6310 hc        1 TG0      0.050700
     38 H043       -4.5170    2.2330   -1.6260 hc        1 TG0      0.050700
     39 H30        -5.0100   -1.2960    2.3650 ha        1 TG0      0.143000
     40 H08        -1.1720   -1.8810    0.7740 h1        1 TG0      0.088700
     41 H281       -4.8750   -2.0230   -0.0870 h1        1 TG0      0.060200
     42 H282       -4.3230   -1.4330   -1.7270 h1        1 TG0      0.060200
     43 H251       -1.3040   -3.5510   -1.6270 hc        1 TG0      0.089700
     44 H252       -1.7100   -4.0240    0.0810 hc        1 TG0      0.089700
     45 H10        -0.6270    0.5340   -0.0080 hn        1 TG0      0.336500
     46 H111        0.7060    0.5130   -2.6680 h1        1 TG0      0.066700
     47 H112        0.3680    1.9770   -1.6200 h1        1 TG0      0.066700
     48 H13         2.3220   -1.2520   -1.7290 ha        1 TG0      0.145000
     49 H23         2.0700    2.7810   -0.1950 ha        1 TG0      0.145000
     50 H14         4.6410   -1.4510   -0.8220 ha        1 TG0      0.138500
     51 H22         4.3780    2.5880    0.7130 ha        1 TG0      0.138500
     52 H181        6.7400    3.4940    0.5400 hc        1 TG0      0.054700
     53 H182        7.8880    2.9420   -0.7520 hc        1 TG0      0.054700
     54 H183        6.0990    2.6810   -0.9560 hc        1 TG0      0.054700
     55 H20         8.8730   -0.7290    2.1390 h5        1 TG0      0.054100
     56 H26        -3.5740   -3.5910   -2.1840 h1        1 TG0      0.055700
     57 H27        -4.9370   -4.4280   -0.5820 ho        1 TG0      0.402000
     58 H31        -7.3360   -0.4910    2.7770 ha        1 TG0      0.137000
@<TRIPOS>BOND
     1    1    2 1   
     2    1   33 1   
     3    1   34 1   
     4    2    3 ar  
     5    2   32 ar  
     6    3    4 1   
     7    3    5 ar  
     8    4   36 1   
     9    4   37 1   
    10    4   38 1   
    11    5    6 1   
    12    5   30 ar  
    13    6    7 1   
    14    6   29 2   
    15    7    8 1   
    16    7   28 1   
    17    8    9 1   
    18    8   25 1   
    19    8   40 1   
    20    9   10 1   
    21    9   24 2   
    22   10   11 1   
    23   10   45 1   
    24   11   12 1   
    25   11   46 1   
    26   11   47 1   
    27   12   13 ar  
    28   12   23 ar  
    29   13   14 ar  
    30   13   48 1   
    31   14   15 ar  
    32   14   50 1   
    33   15   16 1   
    34   15   22 ar  
    35   16   17 2   
    36   16   21 1   
    37   17   18 1   
    38   17   19 1   
    39   18   52 1   
    40   18   53 1   
    41   18   54 1   
    42   19   20 2   
    43   20   21 1   
    44   20   55 1   
    45   22   23 ar  
    46   22   51 1   
    47   23   49 1   
    48   25   26 1   
    49   25   43 1   
    50   25   44 1   
    51   26   27 1   
    52   26   28 1   
    53   26   56 1   
    54   27   57 1   
    55   28   41 1   
    56   28   42 1   
    57   30   31 ar  
    58   30   39 1   
    59   31   32 ar  
    60   31   58 1   
    61   32   35 1   
@<TRIPOS>SUBSTRUCTURE
     1 TG0         1 TEMP              0 ****  ****    0 ROOT
