@<TRIPOS>MOLECULE
TG6
   27    26     1     0     0
SMALL
bcc


@<TRIPOS>ATOM
      1 O1          0.8160   -0.0510   -1.0550 oh        1 TG6     -0.624800
      2 C1          2.1130   -0.2480   -0.5170 c3        1 TG6      0.007400
      3 C2          2.1710   -0.0200    0.9750 c         1 TG6      0.566100
      4 C3          3.5540   -0.1080    1.5660 c3        1 TG6      0.022100
      5 C4          3.9340   -1.5920    1.8390 c3        1 TG6      0.134100
      6 C5          5.2780   -1.6530    2.6030 c3        1 TG6      0.095100
      7 C6          6.0160   -3.0070    2.4060 c3        1 TG6      0.196400
      8 O63         8.8820   -2.9410   -0.0880 o         1 TG6     -0.913500
      9 P6          7.4220   -3.0870    0.1960 p5        1 TG6      1.322900
     10 O61         6.5270   -1.9110   -0.1800 o         1 TG6     -0.913500
     11 O62         6.7770   -4.4240   -0.0030 o         1 TG6     -0.913500
     12 O6          7.2820   -2.8330    1.9080 os        1 TG6     -0.566200
     13 O5          6.0800   -0.5500    2.2450 oh        1 TG6     -0.678800
     14 O4          3.9150   -2.2800    0.6200 oh        1 TG6     -0.683800
     15 O3          3.5710    0.6730    2.7530 oh        1 TG6     -0.624800
     16 O2          1.1300    0.1800    1.6160 o         1 TG6     -0.584100
     17 H1          0.1820   -0.3100   -0.3720 ho        1 TG6      0.404000
     18 H2          2.7760    0.4810   -1.0540 h1        1 TG6      0.096700
     19 H3          2.4670   -1.2990   -0.7310 h1        1 TG6      0.096700
     20 H4          4.3080    0.3020    0.8310 h1        1 TG6      0.086700
     21 H5          3.1300   -2.0580    2.4750 h1        1 TG6      0.023700
     22 H6          5.0460   -1.5000    3.6960 h1        1 TG6      0.006700
     23 H7          5.4160   -3.6860    1.7360 h1        1 TG6      0.005200
     24 H8          6.0880   -3.4850    3.4280 h1        1 TG6      0.005200
     25 H11         6.6020   -0.8320    1.4520 ho        1 TG6      0.490000
     26 H12         4.8390   -2.2750    0.2270 ho        1 TG6      0.513000
     27 H13         4.4870    0.6460    3.0670 ho        1 TG6      0.430000
@<TRIPOS>BOND
     1    1    2 1   
     2    1   17 1   
     3    2    3 1   
     4    2   18 1   
     5    2   19 1   
     6    3    4 1   
     7    3   16 2   
     8    4    5 1   
     9    4   15 1   
    10    4   20 1   
    11    5    6 1   
    12    5   14 1   
    13    5   21 1   
    14    6    7 1   
    15    6   13 1   
    16    6   22 1   
    17    7   12 1   
    18    7   23 1   
    19    7   24 1   
    20    8    9 1   
    21    9   10 1   
    22    9   11 1   
    23    9   12 1   
    24   13   25 1   
    25   14   26 1   
    26   15   27 1   
@<TRIPOS>SUBSTRUCTURE
     1 TG6         1 TEMP              0 ****  ****    0 ROOT
