@<TRIPOS>MOLECULE
TG6
   27    26     1     0     0
SMALL
bcc


@<TRIPOS>ATOM
      1 O1          2.3510    0.0010   -1.4730 oh        1 TG6     -0.618800
      2 C1          3.2010   -0.2430   -0.3650 c3        1 TG6     -0.009600
      3 C2          2.4240   -0.2930    0.9180 c         1 TG6      0.557100
      4 C3          3.2120   -0.1510    2.2050 c3        1 TG6      0.018100
      5 C4          4.0980   -1.3920    2.4930 c3        1 TG6      0.131100
      6 C5          5.5840   -1.0630    2.2320 c3        1 TG6      0.098100
      7 C6          6.4610   -2.3470    2.1930 c3        1 TG6      0.189400
      8 O63         7.5190   -3.5550   -1.2480 o         1 TG6     -0.917167
      9 P6          6.4970   -3.5010   -0.1600 p5        1 TG6      1.331900
     10 O61         5.2680   -2.6360   -0.4140 o         1 TG6     -0.917167
     11 O62         6.2050   -4.7420    0.6260 o         1 TG6     -0.917167
     12 O6          7.1820   -2.4400    1.0290 os        1 TG6     -0.567200
     13 O5          5.7170   -0.2810    1.0680 oh        1 TG6     -0.669800
     14 O4          3.5880   -2.5010    1.8020 oh        1 TG6     -0.673800
     15 O3          2.3320    0.0880    3.2980 oh        1 TG6     -0.627800
     16 O2          1.1910   -0.4410    0.9460 o         1 TG6     -0.610100
     17 H1          1.7650   -0.7620   -1.5340 ho        1 TG6      0.398000
     18 H2          3.7900   -1.2130   -0.4890 h1        1 TG6      0.140700
     19 H3          3.9330    0.6080   -0.3530 h1        1 TG6      0.140700
     20 H4          3.8560    0.7710    2.1510 h1        1 TG6      0.091700
     21 H5          3.9800   -1.6340    3.5910 h1        1 TG6      0.022700
     22 H6          5.9250   -0.3930    3.0730 h1        1 TG6      0.006700
     23 H7          5.8170   -3.2620    2.3350 h1        1 TG6      0.005700
     24 H8          7.1780   -2.2750    3.0630 h1        1 TG6      0.005700
     25 H11         5.8770   -0.9100    0.3230 ho        1 TG6      0.481000
     26 H12         4.1950   -2.7300    1.0450 ho        1 TG6      0.503000
     27 H13         1.6630   -0.6080    3.2640 ho        1 TG6      0.406000
@<TRIPOS>BOND
     1    1    2 1   
     2    1   17 1   
     3    2    3 1   
     4    2   18 1   
     5    2   19 1   
     6    3    4 1   
     7    3   16 2   
     8    4    5 1   
     9    4   15 1   
    10    4   20 1   
    11    5    6 1   
    12    5   14 1   
    13    5   21 1   
    14    6    7 1   
    15    6   13 1   
    16    6   22 1   
    17    7   12 1   
    18    7   23 1   
    19    7   24 1   
    20    8    9 1   
    21    9   10 1   
    22    9   11 1   
    23    9   12 1   
    24   13   25 1   
    25   14   26 1   
    26   15   27 1   
@<TRIPOS>SUBSTRUCTURE
     1 TG6         1 TEMP              0 ****  ****    0 ROOT
