@<TRIPOS>MOLECULE
TG6
   27    26     1     0     0
SMALL
bcc


@<TRIPOS>ATOM
      1 O1         -3.6420   -2.1350   -1.5260 oh        1 TG6     -0.618800
      2 C1         -2.7290   -1.1220   -1.1400 c3        1 TG6     -0.009600
      3 C2         -3.2680   -0.3080    0.0010 c         1 TG6      0.557100
      4 C3         -2.6050    1.0300    0.2630 c3        1 TG6      0.018100
      5 C4         -1.1680    0.8760    0.8250 c3        1 TG6      0.131100
      6 C5         -0.1260    1.2330   -0.2580 c3        1 TG6      0.098100
      7 C6          1.3060    0.7880    0.1500 c3        1 TG6      0.189400
      8 O63         2.6310   -2.3530   -1.5230 o         1 TG6     -0.917167
      9 P6          1.8200   -1.7130   -0.4450 p5        1 TG6      1.331900
     10 O61         0.3030   -1.8150   -0.5730 o         1 TG6     -0.917167
     11 O62         2.3080   -1.7790    0.9690 o         1 TG6     -0.917167
     12 O6          1.8840   -0.0160   -0.8010 os        1 TG6     -0.567200
     13 O5         -0.5200    0.7140   -1.5070 oh        1 TG6     -0.669800
     14 O4         -1.0280   -0.3890    1.4130 oh        1 TG6     -0.673800
     15 O3         -3.4000    1.8070    1.1520 oh        1 TG6     -0.627800
     16 O2         -4.2120   -0.6950    0.7090 o         1 TG6     -0.610100
     17 H1         -3.7160   -2.7310   -0.7710 ho        1 TG6      0.398000
     18 H2         -1.7140   -1.5560   -0.8490 h1        1 TG6      0.140700
     19 H3         -2.5850   -0.4820   -2.0510 h1        1 TG6      0.140700
     20 H4         -2.5790    1.6280   -0.6910 h1        1 TG6      0.091700
     21 H5         -1.0630    1.6200    1.6700 h1        1 TG6      0.022700
     22 H6         -0.1560    2.3530   -0.3880 h1        1 TG6      0.006700
     23 H7          1.9210    1.7300    0.2540 h1        1 TG6      0.005700
     24 H8          1.2810    0.2660    1.1490 h1        1 TG6      0.005700
     25 H11        -0.0890   -0.1720   -1.5920 ho        1 TG6      0.481000
     26 H12        -0.4450   -0.9600    0.8400 ho        1 TG6      0.503000
     27 H13        -3.5790    1.2450    1.9170 ho        1 TG6      0.406000
@<TRIPOS>BOND
     1    1    2 1   
     2    1   17 1   
     3    2    3 1   
     4    2   18 1   
     5    2   19 1   
     6    3    4 1   
     7    3   16 2   
     8    4    5 1   
     9    4   15 1   
    10    4   20 1   
    11    5    6 1   
    12    5   14 1   
    13    5   21 1   
    14    6    7 1   
    15    6   13 1   
    16    6   22 1   
    17    7   12 1   
    18    7   23 1   
    19    7   24 1   
    20    8    9 1   
    21    9   10 1   
    22    9   11 1   
    23    9   12 1   
    24   13   25 1   
    25   14   26 1   
    26   15   27 1   
@<TRIPOS>SUBSTRUCTURE
     1 TG6         1 TEMP              0 ****  ****    0 ROOT
