@<TRIPOS>MOLECULE
TGA
   31    31     1     0     0
SMALL
bcc


@<TRIPOS>ATOM
      1 O2          0.0580    0.0400    0.1970 oh        1 TGA     -0.605800
      2 C2          1.4700    0.0520    0.0990 c3        1 TGA      0.086100
      3 C3          2.0190   -0.0110    1.5310 c3        1 TGA      0.111100
      4 O3          1.7200   -1.2590    2.1320 oh        1 TGA     -0.606800
      5 C4          3.5530    0.1070    1.5050 c3        1 TGA      0.123100
      6 O4          4.1520   -1.0240    0.9000 oh        1 TGA     -0.590800
      7 C5          3.9690    1.3570    0.7160 c3        1 TGA      0.111100
      8 C6          5.4830    1.3810    0.4760 c3        1 TGA      0.143400
      9 O6          5.8760    2.5910   -0.1330 oh        1 TGA     -0.598800
     10 O5          3.3810    1.4190   -0.5850 os        1 TGA     -0.440600
     11 C1          1.9610    1.3520   -0.5660 c3        1 TGA      0.311900
     12 O1          1.6260    1.2620   -1.9330 os        1 TGA     -0.424600
     13 C13         1.9070    2.4600   -2.6700 c3        1 TGA      0.147400
     14 C14         1.5380    2.1570   -4.1060 c3        1 TGA     -0.002300
     15 S15         1.6130    3.6910   -4.9870 sh        1 TGA     -0.368900
     16 H           1.4890    3.2210   -6.2160 hs        1 TGA      0.208800
     17 H2         -0.2810    0.0860   -0.7070 ho        1 TGA      0.426000
     18 HA          1.8330   -0.8350   -0.4920 h1        1 TGA      0.086700
     19 H3          1.5750    0.8200    2.1470 h1        1 TGA      0.058700
     20 H1          1.5240    2.2680   -0.0810 h2        1 TGA      0.051700
     21 HB          0.7700   -1.4020    2.0170 ho        1 TGA      0.431000
     22 H4          3.9270    0.1980    2.5640 h1        1 TGA      0.057700
     23 HC          3.7540   -1.8040    1.3130 ho        1 TGA      0.425000
     24 H5          3.6470    2.2680    1.2970 h1        1 TGA      0.053700
     25 H61C        6.0190    1.3540    1.4610 h1        1 TGA      0.067700
     26 H62C        5.7770    0.4990   -0.1520 h1        1 TGA      0.067700
     27 H6          5.4400    2.6280   -0.9940 ho        1 TGA      0.412000
     28 H131        2.9950    2.7140   -2.5730 h1        1 TGA      0.054700
     29 H132        1.2840    3.2990   -2.2570 h1        1 TGA      0.054700
     30 H141        2.2460    1.4080   -4.5330 h1        1 TGA      0.074700
     31 H142        0.5100    1.7230   -4.1550 h1        1 TGA      0.074700
@<TRIPOS>BOND
     1    1    2 1   
     2    1   17 1   
     3    2    3 1   
     4    2   11 1   
     5    2   18 1   
     6    3    4 1   
     7    3    5 1   
     8    3   19 1   
     9    4   21 1   
    10    5    6 1   
    11    5    7 1   
    12    5   22 1   
    13    6   23 1   
    14    7    8 1   
    15    7   10 1   
    16    7   24 1   
    17    8    9 1   
    18    8   25 1   
    19    8   26 1   
    20    9   27 1   
    21   10   11 1   
    22   11   12 1   
    23   11   20 1   
    24   12   13 1   
    25   13   14 1   
    26   13   28 1   
    27   13   29 1   
    28   14   15 1   
    29   14   30 1   
    30   14   31 1   
    31   15   16 1   
@<TRIPOS>SUBSTRUCTURE
     1 TGA         1 TEMP              0 ****  ****    0 ROOT
