@<TRIPOS>MOLECULE
TGA
   31    31     1     0     0
SMALL
bcc


@<TRIPOS>ATOM
      1 O2          0.0510    0.0700    0.2110 oh        1 TGA     -0.605800
      2 C2          1.4620    0.0680    0.1100 c3        1 TGA      0.086100
      3 C3          2.0140    0.0130    1.5420 c3        1 TGA      0.111100
      4 O3          1.7050   -1.2270    2.1540 oh        1 TGA     -0.606800
      5 C4          3.5490    0.1180    1.5110 c3        1 TGA      0.123100
      6 O4          4.1360   -1.0240    0.9150 oh        1 TGA     -0.590800
      7 C5          3.9740    1.3570    0.7120 c3        1 TGA      0.111100
      8 C6          5.4870    1.3660    0.4690 c3        1 TGA      0.143400
      9 O6          5.8900    2.5670   -0.1520 oh        1 TGA     -0.598800
     10 O5          3.3840    1.4130   -0.5890 os        1 TGA     -0.440600
     11 C1          1.9640    1.3580   -0.5660 c3        1 TGA      0.311900
     12 O1          1.6250    1.2600   -1.9320 os        1 TGA     -0.424600
     13 C13         1.9160    2.4490   -2.6800 c3        1 TGA      0.147400
     14 C14         1.5380    2.1380   -4.1120 c3        1 TGA     -0.002300
     15 S15         1.6280    3.6640   -5.0060 sh        1 TGA     -0.368900
     16 H           1.4930    3.1850   -6.2310 hs        1 TGA      0.208800
     17 H2         -0.2890    0.1110   -0.6920 ho        1 TGA      0.426000
     18 HA          1.8170   -0.8260   -0.4740 h1        1 TGA      0.086700
     19 H3          1.5780    0.8530    2.1510 h1        1 TGA      0.058700
     20 H1          1.5360    2.2830   -0.0880 h2        1 TGA      0.051700
     21 HB          0.7540   -1.3630    2.0420 ho        1 TGA      0.431000
     22 H4          3.9260    0.2150    2.5690 h1        1 TGA      0.057700
     23 HC          3.7330   -1.7970    1.3350 ho        1 TGA      0.425000
     24 H5          3.6620    2.2760    1.2850 h1        1 TGA      0.053700
     25 H61C        5.7730    0.4760   -0.1530 h1        1 TGA      0.067700
     26 H62C        6.0250    1.3420    1.4520 h1        1 TGA      0.067700
     27 H6          5.4530    2.6000   -1.0130 ho        1 TGA      0.412000
     28 H131        1.3030    3.2980   -2.2720 h1        1 TGA      0.054700
     29 H132        3.0070    2.6920   -2.5890 h1        1 TGA      0.054700
     30 H141        0.5050    1.7160   -4.1540 h1        1 TGA      0.074700
     31 H142        2.2360    1.3770   -4.5360 h1        1 TGA      0.074700
@<TRIPOS>BOND
     1    1    2 1   
     2    1   17 1   
     3    2    3 1   
     4    2   11 1   
     5    2   18 1   
     6    3    4 1   
     7    3    5 1   
     8    3   19 1   
     9    4   21 1   
    10    5    6 1   
    11    5    7 1   
    12    5   22 1   
    13    6   23 1   
    14    7    8 1   
    15    7   10 1   
    16    7   24 1   
    17    8    9 1   
    18    8   25 1   
    19    8   26 1   
    20    9   27 1   
    21   10   11 1   
    22   11   12 1   
    23   11   20 1   
    24   12   13 1   
    25   13   14 1   
    26   13   28 1   
    27   13   29 1   
    28   14   15 1   
    29   14   30 1   
    30   14   31 1   
    31   15   16 1   
@<TRIPOS>SUBSTRUCTURE
     1 TGA         1 TEMP              0 ****  ****    0 ROOT
