@<TRIPOS>MOLECULE
TGA
   31    31     1     0     0
SMALL
bcc


@<TRIPOS>ATOM
      1 O2         -0.8800    2.8000    0.5370 oh        1 TGA     -0.605800
      2 C2         -1.1090    1.5100    0.0010 c3        1 TGA      0.086100
      3 C3         -2.4830    1.0520    0.5100 c3        1 TGA      0.111100
      4 O3         -3.5170    1.8490   -0.0410 oh        1 TGA     -0.606800
      5 C4         -2.7500   -0.3930    0.0530 c3        1 TGA      0.123100
      6 O4         -2.9040   -0.4740   -1.3520 oh        1 TGA     -0.590800
      7 C5         -1.5820   -1.2990    0.4670 c3        1 TGA      0.111100
      8 C6         -1.7080   -2.6880   -0.1690 c3        1 TGA      0.143400
      9 O6         -0.7060   -3.5550    0.3160 oh        1 TGA     -0.598800
     10 O5         -0.3110   -0.8040    0.0400 os        1 TGA     -0.440600
     11 C1         -0.0400    0.5160    0.4920 c3        1 TGA      0.311900
     12 O1          1.1590    0.8430   -0.1750 os        1 TGA     -0.424600
     13 C13         2.2890    0.0830    0.2720 c3        1 TGA      0.147400
     14 C14         3.4530    0.5290   -0.5860 c3        1 TGA     -0.002300
     15 S15         4.9110   -0.1860    0.1190 sh        1 TGA     -0.368900
     16 H           5.7640    0.1100   -0.8470 hs        1 TGA      0.208800
     17 H2         -0.0120    3.0800    0.2170 ho        1 TGA      0.426000
     18 HA         -1.1060    1.5420   -1.1240 h1        1 TGA      0.086700
     19 H3         -2.5150    1.1170    1.6330 h1        1 TGA      0.058700
     20 H1          0.0780    0.5380    1.6110 h2        1 TGA      0.051700
     21 HB         -3.2720    2.7700    0.1190 ho        1 TGA      0.431000
     22 H4         -3.6940   -0.7600    0.5470 h1        1 TGA      0.057700
     23 HC         -3.5350    0.2160   -1.6040 ho        1 TGA      0.425000
     24 H5         -1.5740   -1.3790    1.5910 h1        1 TGA      0.053700
     25 H61C       -2.6810   -3.1540    0.1380 h1        1 TGA      0.067700
     26 H62C       -1.6560   -2.5960   -1.2860 h1        1 TGA      0.067700
     27 H6          0.1440   -3.1830    0.0460 ho        1 TGA      0.412000
     28 H131        2.4740    0.3060    1.3570 h1        1 TGA      0.054700
     29 H132        2.0810   -1.0110    0.1400 h1        1 TGA      0.054700
     30 H141        3.3030    0.1920   -1.6390 h1        1 TGA      0.074700
     31 H142        3.5220    1.6440   -0.5920 h1        1 TGA      0.074700
@<TRIPOS>BOND
     1    1    2 1   
     2    1   17 1   
     3    2    3 1   
     4    2   11 1   
     5    2   18 1   
     6    3    4 1   
     7    3    5 1   
     8    3   19 1   
     9    4   21 1   
    10    5    6 1   
    11    5    7 1   
    12    5   22 1   
    13    6   23 1   
    14    7    8 1   
    15    7   10 1   
    16    7   24 1   
    17    8    9 1   
    18    8   25 1   
    19    8   26 1   
    20    9   27 1   
    21   10   11 1   
    22   11   12 1   
    23   11   20 1   
    24   12   13 1   
    25   13   14 1   
    26   13   28 1   
    27   13   29 1   
    28   14   15 1   
    29   14   30 1   
    30   14   31 1   
    31   15   16 1   
@<TRIPOS>SUBSTRUCTURE
     1 TGA         1 TEMP              0 ****  ****    0 ROOT
