@<TRIPOS>MOLECULE
TGE
   67    65     1     0     0
SMALL
bcc


@<TRIPOS>ATOM
      1 C1         -1.1290   -0.9490    0.9930 c3        1 TGE     -0.328000
      2 N1          2.0940    0.3280   -0.5290 n3        1 TGE     -0.211000
      3 O1          1.0160   -1.6880    1.8350 oh        1 TGE     -0.135000
      4 C2          0.3330   -0.9740    1.0080 c1        1 TGE     -0.019000
      5 N2          7.7320    2.8460   -3.4050 n         1 TGE     -0.232000
      6 C3          4.4210   -0.3620    0.2610 c3        1 TGE     -0.224000
      7 N3          6.3320    1.1980   -1.5490 n2        1 TGE     -0.020000
      8 C4          3.4210    0.3300   -0.5420 cv        1 TGE      0.165000
      9 N4         14.1180    2.1080   -2.0500 n2        1 TGE     -0.328000
     10 O4          7.7710    3.5530   -6.6240 oh        1 TGE     -0.318000
     11 C5          7.6980    1.2230   -1.5860 c2        1 TGE     -0.216000
     12 N5          9.7530    0.4120   -0.6710 n3        1 TGE     -0.153000
     13 C6          8.4260    2.0400   -2.5240 c2        1 TGE      0.162000
     14 N6          4.2410    1.9630   -2.4650 n2        1 TGE      0.006000
     15 C7          6.3140    2.7770   -3.4760 c2        1 TGE      0.338000
     16 C8          5.6500    1.9240   -2.4300 c2        1 TGE     -0.109000
     17 C9         11.9610    1.0910   -1.5380 c2        1 TGE     -0.274000
     18 C10        12.7490    2.1220   -1.9990 c2        1 TGE      0.048000
     19 C11        14.7510    1.0000   -1.6270 c2        1 TGE      0.140000
     20 C12        14.0750   -0.2130   -1.0840 c1        1 TGE      0.053000
     21 C13        12.6230   -0.1310   -1.0130 c3        1 TGE     -0.224000
     22 C14         8.4130    0.3940   -0.6360 c1        1 TGE     -0.024000
     23 C15        10.5110    1.1660   -1.5690 c2        1 TGE      0.141000
     24 C16         9.8520    1.9680   -2.4980 c2        1 TGE     -0.271000
     25 C17        16.4610    3.2740   -2.6560 c1        1 TGE     -0.005000
     26 C19         8.7630    3.2330   -5.6770 c3        1 TGE     -0.031000
     27 C20         4.7510    4.0300   -7.6540 c3        1 TGE     -0.251000
     28 C21         3.8710    5.2150   -7.9610 c3        1 TGE     -0.252000
     29 C22         3.6900    5.5890   -9.3460 c1        1 TGE     -0.055000
     30 C23         3.4630    1.3160   -1.6980 cv        1 TGE     -0.067000
     31 C24         1.9160    1.2830   -1.6470 cy        1 TGE     -0.047000
     32 H1          1.3530   -0.1840    0.0760 hn        1 TGE      0.356000
     33 H1A        -1.4770    0.1060    1.1540 hc        1 TGE      0.137667
     34 H2         -1.4880   -1.2670   -0.0220 hc        1 TGE      0.137667
     35 H2A        -1.6090   -1.6060    1.7640 hc        1 TGE      0.137667
     36 H3          5.0840    0.3920    0.7690 hc        1 TGE      0.152000
     37 H3A         0.4940   -2.2290    2.4710 ho        1 TGE      0.218000
     38 H4          3.9600   -1.0270    1.0350 hc        1 TGE      0.152000
     39 H4A         5.0820   -0.9780   -0.4090 hc        1 TGE      0.152000
     40 H10        12.3090    3.0720   -2.3610 h4        1 TGE      0.156000
     41 H12        12.4000   -0.2780    0.0920 hc        1 TGE      0.175500
     42 H13        12.2270   -1.0570   -1.5330 hc        1 TGE      0.175500
     43 H14        10.2360   -0.1580   -0.0060 hn        1 TGE      0.266000
     44 H16        10.4490    2.5180   -3.2400 ha        1 TGE      0.163000
     45 H17        16.2730    3.4610   -3.7190 ha        1 TGE      0.068000
     46 H17A       16.5000    1.8400   -2.0720 ho        1 TGE      0.325000
     47 H17B       16.3700    4.1570   -2.0130 ha        1 TGE      0.068000
     48 H18         7.7320    4.6780   -4.4260 h1        1 TGE      0.128500
     49 H18A        9.3490    4.1440   -3.7750 h1        1 TGE      0.128500
     50 H19         8.9430    2.1260   -5.6530 h1        1 TGE      0.098500
     51 H19A        9.6880    3.7510   -6.0530 h1        1 TGE      0.098500
     52 H20         6.9220    3.2180   -6.2980 ho        1 TGE      0.220000
     53 H20A        5.7900    4.2020   -8.0290 hc        1 TGE      0.079667
     54 H21         4.8030    3.8510   -6.5510 hc        1 TGE      0.079667
     55 H21A        4.3530    3.1080   -8.1420 hc        1 TGE      0.079667
     56 H22         4.2460    5.0010  -10.0940 ha        1 TGE      0.038000
     57 H22A        4.2700    6.1380   -7.4430 hc        1 TGE      0.142000
     58 H22B        2.8370    5.0510   -7.5340 hc        1 TGE      0.142000
     59 HN6        -0.4970    2.8610   -3.4970 ha        1 TGE      0.000750
     60 H23         0.1070    0.6150   -4.3500 ha        1 TGE      0.000750
     61 H23A        0.3800    0.0030   -4.4520 ha        1 TGE      0.000750
     62 H24         1.4270    2.2420   -1.3470 h1        1 TGE      0.157500
     63 H24A        1.4160    0.8400   -2.5450 h1        1 TGE      0.157500
     64 O2         16.0750    0.9340   -1.6730 oh        1 TGE     -0.257000
     65 O3          5.7250    3.3960   -4.3720 o         1 TGE     -0.299000
     66 H62        -0.1240    2.5110   -3.0520 ha        1 TGE      0.000750
     67 C18         8.4130    3.7850   -4.2850 c3        1 TGE     -0.095000
@<TRIPOS>BOND
     1    1    4 1   
     2    1   33 1   
     3    1   34 1   
     4    1   35 1   
     5    2    8 1   
     6    2   31 1   
     7    2   32 1   
     8    3    4 1   
     9    3   37 1   
    10    5   13 1   
    11    5   15 1   
    12    5   67 1   
    13    6    8 1   
    14    6   36 1   
    15    6   38 1   
    16    6   39 1   
    17    7   11 1   
    18    7   16 1   
    19    8   30 1   
    20    9   18 1   
    21    9   19 1   
    22   10   26 1   
    23   10   52 1   
    24   11   13 1   
    25   11   22 1   
    26   12   22 1   
    27   12   23 1   
    28   12   43 1   
    29   13   24 1   
    30   14   16 1   
    31   14   30 1   
    32   15   16 1   
    33   15   65 1   
    34   17   18 1   
    35   17   21 1   
    36   17   23 1   
    37   18   40 1   
    38   19   20 1   
    39   19   64 1   
    40   20   21 1   
    41   21   41 1   
    42   21   42 1   
    43   23   24 1   
    44   24   44 1   
    45   25   45 1   
    46   25   47 1   
    47   26   50 1   
    48   26   51 1   
    49   26   67 1   
    50   27   28 1   
    51   27   53 1   
    52   27   54 1   
    53   27   55 1   
    54   28   29 1   
    55   28   57 1   
    56   28   58 1   
    57   29   56 1   
    58   30   31 1   
    59   31   62 1   
    60   31   63 1   
    61   46   64 1   
    62   48   67 1   
    63   49   67 1   
    64   59   66 1   
    65   60   61 1   
@<TRIPOS>SUBSTRUCTURE
     1 TGE         1 TEMP              0 ****  ****    0 ROOT
