@<TRIPOS>MOLECULE
TGE
   67    66     1     0     0
SMALL
bcc


@<TRIPOS>ATOM
      1 C1          2.6820    4.0910   -1.5520 c3        1 TGE     -0.226000
      2 N1          2.9230   -0.2960   -1.2590 n7        1 TGE     -0.332000
      3 O1          1.4380    2.2490   -0.7160 os        1 TGE     -0.022000
      4 C2          2.4400    2.6330   -1.6370 c2        1 TGE      0.040000
      5 N2          7.6840    2.7030   -2.5700 n         1 TGE     -0.135000
      6 C3          1.1760    1.1200   -0.1850 c1        1 TGE      0.077000
      7 N3          5.7630    0.6040   -3.1170 n2        1 TGE      0.068000
      8 C4          1.8080   -0.2070   -0.3450 c3        1 TGE     -0.170000
      9 N4         13.1670   -0.3400   -0.6550 n2        1 TGE     -0.225000
     10 O4          7.5240    5.5050   -3.5680 oh        1 TGE     -0.338000
     11 C5          7.0640    0.3130   -2.7660 c2        1 TGE     -0.218000
     12 N5          8.7060   -1.3760   -2.3650 n7        1 TGE     -0.145000
     13 C6          8.0350    1.3250   -2.4830 c2        1 TGE      0.166000
     14 N6          4.0120    2.2410   -3.4770 ny        1 TGE      0.083000
     15 C7          6.2880    3.0060   -2.7060 c2        1 TGE      0.300000
     16 C8          5.3940    1.8660   -3.1020 c2        1 TGE     -0.189000
     17 C9         11.0310   -0.8480   -1.7210 c2        1 TGE     -0.241000
     18 C10        11.8660   -0.0330   -0.9920 c2        1 TGE      0.035000
     19 C11        13.6510   -1.5060   -1.0720 c2        1 TGE      0.091000
     20 C12        12.9130   -2.5290   -1.8590 c1        1 TGE      0.070000
     21 C13        11.5320   -2.1760   -2.1610 c3        1 TGE     -0.235000
     22 C14         7.4360   -1.0870   -2.7010 c1        1 TGE      0.008000
     23 C15         9.6850   -0.4300   -2.0790 c2        1 TGE      0.133000
     24 C16         9.3540    0.9290   -2.1540 c2        1 TGE     -0.213000
     25 C17        11.9560    3.8040   -4.0480 c3        1 TGE     -0.277000
     26 C19         8.6610    5.0240   -2.8850 c3        1 TGE     -0.073000
     27 C20         3.5660    3.8340   -5.9390 c2        1 TGE     -0.291000
     28 C21         4.2900    5.7750   -4.5650 c3        1 TGE     -0.222000
     29 C22         3.2790    4.8850   -5.1700 c2        1 TGE     -0.154000
     30 C23         3.0080    1.7740   -2.5200 c2        1 TGE     -0.225000
     31 C24         2.6740    0.2960   -2.5510 c3        1 TGE     -0.031000
     32 H1          3.2800   -1.2300   -1.3350 hn        1 TGE      0.206000
     33 H1A         2.0890    4.5390   -0.7120 hc        1 TGE      0.125667
     34 H2          3.7680    4.3010   -1.3690 hc        1 TGE      0.125667
     35 H2A         2.3700    4.5930   -2.5040 hc        1 TGE      0.125667
     36 H3          4.4230   -2.3250   -2.8830 ha        1 TGE      0.001750
     37 H3A         5.0880   -2.2070   -2.8110 ha        1 TGE      0.001750
     38 H4          2.1800   -0.5070    0.6840 h1        1 TGE      0.147000
     39 H4A         0.9570   -0.9150   -0.6000 h1        1 TGE      0.147000
     40 H10        11.5430    0.9530   -0.6010 h4        1 TGE      0.177000
     41 H12        10.9300   -3.0190   -1.6940 hc        1 TGE      0.184500
     42 H13        11.4150   -2.2980   -3.2830 hc        1 TGE      0.184500
     43 H14         8.9500   -2.3470   -2.3190 hn        1 TGE      0.275000
     44 H16        10.1250    1.7010   -1.9790 ha        1 TGE      0.203000
     45 H17        11.6870    4.7670   -4.5340 hc        1 TGE      0.069250
     46 H17A       15.3810   -1.1730   -0.2770 ho        1 TGE      0.253000
     47 H17B       12.8550    3.9520   -3.4100 hc        1 TGE      0.069250
     48 H18        11.1060    3.4540   -3.4190 hc        1 TGE      0.069250
     49 H18A       12.1790    3.0460   -4.8300 hc        1 TGE      0.069250
     50 H19         9.5280    5.1750   -3.6040 h1        1 TGE      0.155000
     51 H19A        8.8820    5.6000   -1.9420 h1        1 TGE      0.155000
     52 H20         6.9290    5.9160   -2.9270 ho        1 TGE      0.221000
     53 H20A        2.7840    3.2190   -6.4070 ha        1 TGE      0.123000
     54 H21         5.3380    5.4310   -4.7610 hc        1 TGE      0.101000
     55 H21A        4.5950    3.5700   -6.2210 ha        1 TGE      0.123000
     56 H22         2.2290    5.1620   -4.9590 ha        1 TGE      0.134000
     57 H22A        4.1780    6.8090   -4.9810 hc        1 TGE      0.101000
     58 H22B        4.1490    5.8280   -3.4540 hc        1 TGE      0.101000
     59 HN6         3.7870    1.8400   -4.4060 hn        1 TGE      0.272000
     60 H23         2.4390    0.9370   -5.9130 ha        1 TGE      0.001750
     61 H23A        2.3040    0.6080   -5.3350 ha        1 TGE      0.001750
     62 H24         1.5870    0.2250   -2.8640 h1        1 TGE      0.111000
     63 H24A        3.2770   -0.2520   -3.3330 h1        1 TGE      0.111000
     64 O2         14.9270   -1.8680   -0.7900 oh        1 TGE     -0.174000
     65 O3          5.8360    4.1370   -2.4780 o         1 TGE     -0.307000
     66 H62         3.9810    3.2780   -3.5560 hn        1 TGE      0.272000
     67 C18         8.6930    3.5890   -2.5570 c1        1 TGE     -0.044000
@<TRIPOS>BOND
     1    1    4 1   
     2    1   33 1   
     3    1   34 1   
     4    1   35 1   
     5    2    8 1   
     6    2   31 1   
     7    2   32 1   
     8    3    4 1   
     9    3    6 1   
    10    4   30 1   
    11    5   13 1   
    12    5   15 1   
    13    5   67 1   
    14    6    8 1   
    15    7   11 1   
    16    7   16 1   
    17    8   38 1   
    18    8   39 1   
    19    9   18 1   
    20    9   19 1   
    21   10   26 1   
    22   10   52 1   
    23   11   13 1   
    24   11   22 1   
    25   12   22 1   
    26   12   23 1   
    27   12   43 1   
    28   13   24 1   
    29   14   16 1   
    30   14   30 1   
    31   14   59 1   
    32   14   66 1   
    33   15   16 1   
    34   15   65 1   
    35   17   18 1   
    36   17   21 1   
    37   17   23 1   
    38   18   40 1   
    39   19   20 1   
    40   19   64 1   
    41   20   21 1   
    42   21   41 1   
    43   21   42 1   
    44   23   24 1   
    45   24   44 1   
    46   25   45 1   
    47   25   47 1   
    48   25   48 1   
    49   25   49 1   
    50   26   50 1   
    51   26   51 1   
    52   26   67 1   
    53   27   29 1   
    54   27   53 1   
    55   27   55 1   
    56   28   29 1   
    57   28   54 1   
    58   28   57 1   
    59   28   58 1   
    60   29   56 1   
    61   30   31 1   
    62   31   62 1   
    63   31   63 1   
    64   36   37 1   
    65   46   64 1   
    66   60   61 1   
@<TRIPOS>SUBSTRUCTURE
     1 TGE         1 TEMP              0 ****  ****    0 ROOT
