@<TRIPOS>MOLECULE
TGE
   67    65     1     0     0
SMALL
bcc


@<TRIPOS>ATOM
      1 C1          1.9520   -2.9170    0.0370 c3        1 TGE     -0.329000
      2 N1          2.2220    1.1300   -0.3900 n3        1 TGE     -0.324000
      3 O1          1.0490   -1.3620    1.6460 oh        1 TGE     -0.150000
      4 C2          1.6670   -1.5650    0.5330 c1        1 TGE     -0.033000
      5 N2          7.6610    3.4670   -3.3230 n         1 TGE     -0.202000
      6 C3          1.0490    1.9850    1.6500 c1        1 TGE     -0.039000
      7 N3          5.9200    1.2470   -2.8270 n2        1 TGE      0.047000
      8 C4          1.7700    2.2410    0.4210 c3        1 TGE     -0.133000
      9 N4         13.7650    1.2640   -2.3100 n2        1 TGE     -0.333000
     10 O4          7.5200    4.7770   -5.9110 oh        1 TGE     -0.321000
     11 C5          7.2850    1.1230   -2.7410 c2        1 TGE     -0.219000
     12 N5          9.1470   -0.3160   -2.3210 n3        1 TGE     -0.155000
     13 C6          8.1810    2.2170   -3.0210 c2        1 TGE      0.163000
     14 N6          3.9770    2.6140   -3.3220 n4        1 TGE      0.126000
     15 C7          6.2680    3.6390   -3.4310 c2        1 TGE      0.335000
     16 C8          5.4370    2.4260   -3.1700 c2        1 TGE     -0.199000
     17 C9         11.4870    0.4260   -2.5530 c2        1 TGE     -0.284000
     18 C10        12.4070    1.4280   -2.3330 c2        1 TGE      0.056000
     19 C11        14.2520    0.0280   -2.5280 c2        1 TGE      0.145000
     20 C12        13.4190   -1.1840   -2.7800 c1        1 TGE      0.056000
     21 C13        11.9810   -0.9620   -2.7490 c3        1 TGE     -0.224000
     22 C14         7.8140   -0.1760   -2.3710 c1        1 TGE      0.004000
     23 C15        10.0620    0.6960   -2.6110 c2        1 TGE      0.153000
     24 C16         9.5810    1.9550   -2.9720 c2        1 TGE     -0.276000
     25 C17        16.2820    2.2320   -2.0340 c1        1 TGE      0.001000
     26 C19         8.7260    4.7800   -5.1820 c3        1 TGE     -0.036000
     27 C20         2.8820    2.7220   -6.1310 c2        1 TGE     -0.286000
     28 C21         3.8510    5.0100   -6.0350 c3        1 TGE     -0.218000
     29 C22         2.7540    4.0300   -5.9070 c2        1 TGE     -0.153000
     30 C23         3.2480    2.5160   -2.0830 c2        1 TGE     -0.472000
     31 C24         2.9150    1.2960   -1.5270 c2        1 TGE      0.121000
     32 H1          2.0180    0.1770   -0.0650 hn        1 TGE      0.303000
     33 H1A         1.4730   -3.0390   -0.9690 hc        1 TGE      0.122667
     34 H2          3.0610   -3.0210   -0.1020 hc        1 TGE      0.122667
     35 H2A         1.5960   -3.7410    0.7070 hc        1 TGE      0.122667
     36 H3          2.6620    2.8850    0.7160 h1        1 TGE      0.154500
     37 H3A         0.7750   -2.1610    2.1500 ho        1 TGE      0.191000
     38 H4          1.0910    2.9130   -0.1990 h1        1 TGE      0.154500
     39 H4A         0.8430    0.9530    1.9660 ha        1 TGE      0.081000
     40 H10        12.0920    2.4720   -2.1370 h4        1 TGE      0.154000
     41 H12        11.6230   -1.6480   -1.9170 hc        1 TGE      0.177000
     42 H13        11.5720   -1.4020   -3.7100 hc        1 TGE      0.177000
     43 H14         9.5010   -1.2160   -2.0610 hn        1 TGE      0.270000
     44 H16        10.3060    2.7320   -3.2500 ha        1 TGE      0.162000
     45 H17        16.2010    2.6280   -1.0160 ha        1 TGE      0.070500
     46 H17A       16.1080    0.7380   -2.3360 ho        1 TGE      0.326000
     47 H17B       16.2590    2.9900   -2.8260 ha        1 TGE      0.070500
     48 H18         9.4830    4.5290   -3.1460 h1        1 TGE      0.125500
     49 H18A        7.9680    5.5320   -3.2830 h1        1 TGE      0.125500
     50 H19         9.3180    3.9250   -5.6060 h1        1 TGE      0.106000
     51 H19A        9.2860    5.7410   -5.3360 h1        1 TGE      0.106000
     52 H20         6.9740    5.5060   -5.5840 ho        1 TGE      0.218000
     53 H20A        2.0300    2.0310   -6.0680 ha        1 TGE      0.121000
     54 H21         3.6420    5.6950   -6.8970 hc        1 TGE      0.098333
     55 H21A        3.8250    2.2640   -6.4610 ha        1 TGE      0.121000
     56 H22         1.7760    4.4610   -5.6280 ha        1 TGE      0.132000
     57 H22A        4.8430    4.5210   -6.2090 hc        1 TGE      0.098333
     58 H22B        3.9320    5.6340   -5.1080 hc        1 TGE      0.098333
     59 HN6         3.6250    1.9150   -3.9990 hn        1 TGE      0.264000
     60 H23         2.9120    0.1640   -5.0430 ha        1 TGE      0.002500
     61 H23A        2.8940   -0.1070   -4.4220 ha        1 TGE      0.002500
     62 H24         3.0450    3.4860   -1.6080 hx        1 TGE      0.182000
     63 H24A        3.2130    0.3510   -2.0370 h4        1 TGE      0.158000
     64 O2         15.5600   -0.1780   -2.5270 oh        1 TGE     -0.257000
     65 O3          5.7690    4.7430   -3.7260 o         1 TGE     -0.357000
     66 H62         3.8280    3.5570   -3.7290 hn        1 TGE      0.264000
     67 C18         8.4930    4.6090   -3.6710 c3        1 TGE     -0.090000
@<TRIPOS>BOND
     1    1    4 1   
     2    1   33 1   
     3    1   34 1   
     4    1   35 1   
     5    2    8 1   
     6    2   31 1   
     7    2   32 1   
     8    3    4 1   
     9    3   37 1   
    10    5   13 1   
    11    5   15 1   
    12    5   67 1   
    13    6    8 1   
    14    6   39 1   
    15    7   11 1   
    16    7   16 1   
    17    8   36 1   
    18    8   38 1   
    19    9   18 1   
    20    9   19 1   
    21   10   26 1   
    22   10   52 1   
    23   11   13 1   
    24   11   22 1   
    25   12   22 1   
    26   12   23 1   
    27   12   43 1   
    28   13   24 1   
    29   14   16 1   
    30   14   30 1   
    31   14   59 1   
    32   14   66 1   
    33   15   16 1   
    34   15   65 1   
    35   17   18 1   
    36   17   21 1   
    37   17   23 1   
    38   18   40 1   
    39   19   20 1   
    40   19   64 1   
    41   20   21 1   
    42   21   41 1   
    43   21   42 1   
    44   23   24 1   
    45   24   44 1   
    46   25   45 1   
    47   25   47 1   
    48   26   50 1   
    49   26   51 1   
    50   26   67 1   
    51   27   29 1   
    52   27   53 1   
    53   27   55 1   
    54   28   29 1   
    55   28   54 1   
    56   28   57 1   
    57   28   58 1   
    58   29   56 1   
    59   30   31 1   
    60   30   62 1   
    61   31   63 1   
    62   46   64 1   
    63   48   67 1   
    64   49   67 1   
    65   60   61 1   
@<TRIPOS>SUBSTRUCTURE
     1 TGE         1 TEMP              0 ****  ****    0 ROOT
