@<TRIPOS>MOLECULE
TGE
   66    64     1     0     0
SMALL
bcc


@<TRIPOS>ATOM
      1 C1         -3.4180    5.1260   -2.3440 c3        1 TGE     -0.106000
      2 N1         -4.1220    4.8060   -1.1350 n3        1 TGE     -0.248000
      3 O1         -4.7020    7.2460   -2.5670 os        1 TGE     -0.271000
      4 C2         -3.3890    6.6530   -2.6230 c3        1 TGE     -0.024000
      5 N2         -0.2460   -0.9080   -0.3130 n         1 TGE     -0.234000
      6 O2          7.2680   -1.7450    5.2040 os        1 TGE     -0.204000
      7 C3         -5.3980    6.9270   -1.3610 c3        1 TGE     -0.024000
      8 N3         -1.3010    1.0360    1.5230 n1        1 TGE     -0.165000
      9 O3         -1.9520   -0.4230   -1.6660 o         1 TGE     -0.355000
     10 C4         -5.4310    5.4000   -1.0790 c3        1 TGE     -0.106000
     11 N4          5.0310   -2.5500    4.6310 n1        1 TGE     -0.209000
     12 O4         -0.5390   -3.6460   -2.5560 os        1 TGE     -0.295000
     13 C5         -0.0790    0.2810    1.8800 c1        1 TGE     -0.093000
     14 N5          1.7590   -0.1530    3.4250 n1        1 TGE     -0.150000
     15 C6          0.4340   -0.6610    1.0000 c2        1 TGE      0.070000
     16 N6         -3.2210    1.4260    0.0280 n3        1 TGE     -0.280000
     17 C7         -1.4090   -0.2230   -0.6300 c2        1 TGE      0.294000
     18 C8         -1.9420    0.8010    0.3000 c2        1 TGE      0.076000
     19 C9          3.6250   -1.3170    3.1630 c1        1 TGE     -0.128000
     20 C10         3.8290   -2.3930    3.9990 c1        1 TGE     -0.022000
     21 C11         6.0280   -1.6440    4.4360 c1        1 TGE      0.133000
     22 C12         5.8270   -0.5610    3.5980 c1        1 TGE     -0.205000
     23 C13         4.6310   -0.4020    2.9670 c1        1 TGE     -0.029000
     24 C14         0.5920    0.5400    3.1110 c1        1 TGE     -0.011000
     25 C15         2.2680   -1.0950    2.5410 c2        1 TGE      0.050000
     26 C16         1.6040   -1.3520    1.3210 c2        1 TGE     -0.192000
     27 C17         8.2270   -2.7370    4.6880 c3        1 TGE     -0.064000
     28 C18         0.3160   -1.7820   -1.2340 c3        1 TGE     -0.035000
     29 C19        -0.4920   -3.1280   -1.2360 c3        1 TGE     -0.037000
     30 C20        -0.1900   -5.0820   -2.6550 c3        1 TGE     -0.020000
     31 C21         0.6150   -5.3150   -3.8880 c3        1 TGE     -0.167000
     32 C22         1.2560   -6.7580   -3.8360 c3        1 TGE     -0.211000
     33 C23        -3.3600    2.8890    0.1110 c3        1 TGE     -0.037000
     34 C24        -4.2340    3.3590   -1.0040 c3        1 TGE     -0.078000
     35 H1         -3.8690    4.6610   -3.1220 h1        1 TGE      0.081750
     36 H1A        -2.4610    4.7860   -2.2670 h1        1 TGE      0.081750
     37 H2         -3.0010    6.8090   -3.5230 h1        1 TGE      0.095000
     38 H2A        -2.7930    7.1060   -1.9220 h1        1 TGE      0.095000
     39 H3         -4.9570    7.3680   -0.6250 h1        1 TGE      0.095000
     40 H3A        -6.3660    7.2790   -1.4270 h1        1 TGE      0.095000
     41 H4         -6.0390    4.9410   -1.7780 h1        1 TGE      0.081750
     42 H4A        -5.8220    5.2470   -0.1530 h1        1 TGE      0.081750
     43 H10         3.1320   -3.0260    4.1350 ha        1 TGE      0.172000
     44 H12         6.5650    0.1090    3.4560 ha        1 TGE      0.161000
     45 H13         4.4900    0.3520    2.3820 ha        1 TGE      0.159000
     46 H14         0.2320    1.2080    3.7380 ha        1 TGE      0.178000
     47 H16         1.9560   -2.0020    0.7110 ha        1 TGE      0.170000
     48 H17         8.9760   -2.8640    5.3660 h1        1 TGE      0.089333
     49 H17A        7.7790   -3.5770    4.5450 h1        1 TGE      0.089333
     50 H17B        8.6110   -2.4120    3.8230 h1        1 TGE      0.089333
     51 H18         0.2790   -1.3670   -2.1580 h1        1 TGE      0.122500
     52 H18A        1.2210   -1.9530   -1.0010 h1        1 TGE      0.122500
     53 H19        -0.0750   -3.7420   -0.6740 h1        1 TGE      0.084500
     54 H19A       -1.3800   -2.9680   -0.9260 h1        1 TGE      0.084500
     55 H20        -1.0610   -5.6450   -2.6990 h1        1 TGE      0.069500
     56 H20A        0.3360   -5.3490   -1.8630 h1        1 TGE      0.069500
     57 H21         1.3530   -4.6200   -3.9480 hc        1 TGE      0.094500
     58 H21A        0.0680   -5.2470   -4.6250 hc        1 TGE      0.094500
     59 H22         1.8150   -6.8500   -2.9970 hc        1 TGE      0.076333
     60 H22A        0.5620   -7.4140   -3.8300 hc        1 TGE      0.076333
     61 H22B        1.8430   -6.8950   -4.6490 hc        1 TGE      0.076333
     62 HN6        -3.8940    0.9500   -0.1440 hn        1 TGE      0.231000
     63 H23        -3.7680    3.1320    0.9780 h1        1 TGE      0.101000
     64 H23A       -2.4490    3.3250    0.0330 h1        1 TGE      0.101000
     65 H24        -5.2190    3.1040   -0.8030 h1        1 TGE      0.079500
     66 H24A       -3.9520    2.9380   -1.8300 h1        1 TGE      0.079500
@<TRIPOS>BOND
     1    1    2 1   
     2    1    4 1   
     3    1   35 1   
     4    1   36 1   
     5    2   10 1   
     6    2   34 1   
     7    3    4 1   
     8    3    7 1   
     9    4   37 1   
    10    4   38 1   
    11    5   15 1   
    12    5   17 1   
    13    5   28 1   
    14    6   21 1   
    15    6   27 1   
    16    7   10 1   
    17    7   39 1   
    18    7   40 1   
    19    8   18 1   
    20    9   17 1   
    21   10   41 1   
    22   10   42 1   
    23   11   20 1   
    24   12   29 1   
    25   12   30 1   
    26   13   15 1   
    27   13   24 1   
    28   14   25 1   
    29   15   26 1   
    30   16   18 1   
    31   16   33 1   
    32   16   62 1   
    33   17   18 1   
    34   19   23 1   
    35   19   25 1   
    36   20   43 1   
    37   21   22 1   
    38   22   44 1   
    39   23   45 1   
    40   24   46 1   
    41   25   26 1   
    42   26   47 1   
    43   27   48 1   
    44   27   49 1   
    45   27   50 1   
    46   28   29 1   
    47   28   51 1   
    48   28   52 1   
    49   29   53 1   
    50   29   54 1   
    51   30   31 1   
    52   30   55 1   
    53   30   56 1   
    54   31   32 1   
    55   31   57 1   
    56   31   58 1   
    57   32   59 1   
    58   32   60 1   
    59   32   61 1   
    60   33   34 1   
    61   33   63 1   
    62   33   64 1   
    63   34   65 1   
    64   34   66 1   
@<TRIPOS>SUBSTRUCTURE
     1 TGE         1 TEMP              0 ****  ****    0 ROOT
