@<TRIPOS>MOLECULE
TGE
   66    69     1     0     0
SMALL
bcc


@<TRIPOS>ATOM
      1 C1          7.8580    0.6470   -0.3620 c3        1 TGE      0.130800
      2 N1          6.5290    1.2200   -0.1760 n3        1 TGE     -0.723600
      3 O1          8.9040    2.8370   -0.0560 os        1 TGE     -0.414600
      4 C2          8.8740    1.6740   -0.8750 c3        1 TGE      0.126400
      5 N2         -0.3540   -1.1680    1.1780 n         1 TGE     -0.332000
      6 C3          7.6230    3.4450    0.0540 c3        1 TGE      0.126400
      7 N3          1.2860    0.8960    0.0170 nc        1 TGE     -0.602100
      8 C4          6.5710    2.4630    0.5840 c3        1 TGE      0.130800
      9 N4         -6.4980    1.0510    0.7150 nb        1 TGE     -0.733000
     10 O4         -0.7960   -3.9910    0.0880 os        1 TGE     -0.417600
     11 C5         -0.1040    0.9450   -0.0230 ca        1 TGE     -0.011900
     12 N5         -2.0670    2.1980   -0.7530 nb        1 TGE     -0.676000
     13 C6         -0.9440   -0.0750    0.5280 ca        1 TGE      0.059600
     14 N6          3.2200   -0.3710    0.5900 nh        1 TGE     -0.799200
     15 C7          1.0380   -1.2430    1.2990 c         1 TGE      0.579200
     16 C8          1.8480   -0.1450    0.6090 cd        1 TGE      0.594200
     17 C9         -4.3210    1.3770   -0.3230 cp        1 TGE     -0.301800
     18 C10        -5.1580    0.9590    0.7320 ca        1 TGE      0.444200
     19 C11        -7.0580    1.5920   -0.4010 ca        1 TGE      0.632600
     20 C12        -6.3070    2.0560   -1.5140 ca        1 TGE     -0.268300
     21 C13        -4.9240    1.9450   -1.4590 ca        1 TGE     -0.028000
     22 C14        -0.7490    2.0550   -0.6510 ca        1 TGE      0.456200
     23 C15        -2.8640    1.2240   -0.2210 cp        1 TGE      0.488800
     24 C16        -2.3450    0.0830    0.4120 ca        1 TGE     -0.276300
     25 C17        -9.2400    1.3040    0.5580 c3        1 TGE      0.124700
     26 C19        -1.8150   -3.1320    0.5840 c3        1 TGE      0.108400
     27 C20        -1.2620   -4.8290   -0.9700 c3        1 TGE      0.130400
     28 C21        -0.0840   -5.6900   -1.3890 c3        1 TGE     -0.084400
     29 C22        -0.4750   -6.6170   -2.5090 c3        1 TGE     -0.093100
     30 C23         4.1280    0.6860    0.2120 c3        1 TGE      0.202800
     31 C24         5.6010    0.2460    0.3780 c3        1 TGE      0.157800
     32 H1          8.2550    0.2020    0.5970 h1        1 TGE      0.042450
     33 H1A         7.7730   -0.1790   -1.1220 h1        1 TGE      0.042450
     34 H2          9.9120    1.2560   -0.8060 h1        1 TGE      0.055450
     35 H2A         8.6430    1.9660   -1.9330 h1        1 TGE      0.055450
     36 H3          7.7710    4.2820    0.7850 h1        1 TGE      0.055450
     37 H3A         7.3150    3.8540   -0.9450 h1        1 TGE      0.055450
     38 H4          5.5600    2.9520    0.5000 h1        1 TGE      0.042450
     39 H4A         6.7780    2.2740    1.6780 h1        1 TGE      0.042450
     40 H10        -4.7330    0.5320    1.6600 h4        1 TGE      0.023100
     41 H12        -6.8260    2.4890   -2.3780 ha        1 TGE      0.162000
     42 H13        -4.3070    2.3000   -2.2990 ha        1 TGE      0.160000
     43 H14        -0.1380    2.8660   -1.0930 h4        1 TGE      0.043100
     44 H16        -3.0350   -0.6770    0.8040 ha        1 TGE      0.147000
     45 H17       -10.2760    1.5320    0.1980 h1        1 TGE      0.051033
     46 H17A       -9.1140    0.2100    0.7400 h1        1 TGE      0.051033
     47 H17B       -9.0020    1.8850    1.4800 h1        1 TGE      0.051033
     48 H18        -0.5230   -2.9220    2.3140 h1        1 TGE      0.084700
     49 H18A       -1.9960   -1.8290    2.3080 h1        1 TGE      0.084700
     50 H19        -2.2460   -2.5210   -0.2530 h1        1 TGE      0.039200
     51 H19A       -2.6320   -3.7460    1.0520 h1        1 TGE      0.039200
     52 H20        -2.1130   -5.4610   -0.6020 h1        1 TGE      0.027200
     53 H20A       -1.6210   -4.1940   -1.8230 h1        1 TGE      0.027200
     54 H21         0.7610   -5.0260   -1.7100 hc        1 TGE      0.057200
     55 H21A        0.2760   -6.2770   -0.5040 hc        1 TGE      0.057200
     56 H22        -1.3050   -7.2950   -2.1910 hc        1 TGE      0.035367
     57 H22A       -0.8170   -6.0390   -3.4010 hc        1 TGE      0.035367
     58 H22B        0.3980   -7.2450   -2.8090 hc        1 TGE      0.035367
     59 HN6         3.5440   -1.0240    1.2730 hn        1 TGE      0.440800
     60 H23         3.9290    0.9510   -0.8660 h1        1 TGE      0.061700
     61 H23A        3.9390    1.6090    0.8330 h1        1 TGE      0.061700
     62 H24         5.7540   -0.7240   -0.1750 h1        1 TGE      0.040200
     63 H24A        5.8030    0.0520    1.4730 h1        1 TGE      0.040200
     64 C18        -1.1720   -2.2590    1.6690 c3        1 TGE      0.077000
     65 O2         -8.4230    1.7310   -0.5320 os        1 TGE     -0.445100
     66 O3          1.5810   -2.1350    1.9750 o         1 TGE     -0.611500
@<TRIPOS>BOND
     1    1    2 1   
     2    1    4 1   
     3    1   32 1   
     4    1   33 1   
     5    2    8 1   
     6    2   31 1   
     7    3    4 1   
     8    3    6 1   
     9    4   34 1   
    10    4   35 1   
    11    5   13 1   
    12    5   15 1   
    13    5   64 1   
    14    6    8 1   
    15    6   36 1   
    16    6   37 1   
    17    7   11 1   
    18    7   16 2   
    19    8   38 1   
    20    8   39 1   
    21    9   18 ar  
    22    9   19 ar  
    23   10   26 1   
    24   10   27 1   
    25   11   13 ar  
    26   11   22 ar  
    27   12   22 ar  
    28   12   23 ar  
    29   13   24 ar  
    30   14   16 1   
    31   14   30 1   
    32   14   59 1   
    33   15   16 1   
    34   15   66 2   
    35   17   18 ar  
    36   17   21 ar  
    37   17   23 1   
    38   18   40 1   
    39   19   20 ar  
    40   19   65 1   
    41   20   21 ar  
    42   20   41 1   
    43   21   42 1   
    44   22   43 1   
    45   23   24 ar  
    46   24   44 1   
    47   25   45 1   
    48   25   46 1   
    49   25   47 1   
    50   25   65 1   
    51   26   50 1   
    52   26   51 1   
    53   26   64 1   
    54   27   28 1   
    55   27   52 1   
    56   27   53 1   
    57   28   29 1   
    58   28   54 1   
    59   28   55 1   
    60   29   56 1   
    61   29   57 1   
    62   29   58 1   
    63   30   31 1   
    64   30   60 1   
    65   30   61 1   
    66   31   62 1   
    67   31   63 1   
    68   48   64 1   
    69   49   64 1   
@<TRIPOS>SUBSTRUCTURE
     1 TGE         1 TEMP              0 ****  ****    0 ROOT
