@<TRIPOS>MOLECULE
TGG
   45    44     1     0     0
SMALL
bcc


@<TRIPOS>ATOM
      1 OC1         7.7140   -0.9130    0.3220 o         1 TGG     -0.861800
      2 CO1         6.8050   -0.1410    0.7590 c         1 TGG      0.892600
      3 OT1         6.8750    0.4340    1.8810 o         1 TGG     -0.861800
      4 CA1         5.5730    0.1620   -0.1520 c3        1 TGG      0.030500
      5 NN1         5.7350   -0.2990   -1.5270 n3        1 TGG     -0.902800
      6 CB1         4.2950   -0.3470    0.5280 c3        1 TGG     -0.060400
      7 CG1         3.0460    0.2140   -0.1230 c3        1 TGG     -0.148400
      8 CD1         1.7680   -0.4290    0.4020 c         1 TGG      0.661100
      9 OE1         1.7520   -1.1200    1.4430 o         1 TGG     -0.639100
     10 NN2         0.6250   -0.2010   -0.3350 n         1 TGG     -0.550900
     11 CA2        -0.6830   -0.7180   -0.0130 c3        1 TGG      0.074700
     12 CO2        -0.9360   -2.0420   -0.8030 c         1 TGG      0.632100
     13 OC2        -0.8140   -2.0570   -2.0530 o         1 TGG     -0.678100
     14 NN3        -1.2960   -3.1690   -0.1160 n         1 TGG     -0.531900
     15 CA3        -1.5540   -4.4130   -0.7870 c3        1 TGG     -0.020000
     16 CO3        -1.8310   -5.6290    0.1300 c         1 TGG      0.906600
     17 OC3        -1.8690   -5.4980    1.3860 o         1 TGG     -0.861300
     18 OT3        -2.0170   -6.7370   -0.4590 o         1 TGG     -0.861300
     19 CB2        -1.8240    0.2320   -0.3980 c3        1 TGG     -0.024300
     20 SG2        -1.5300    1.9090    0.1140 ss        1 TGG     -0.425200
     21 CD2        -3.1130    2.7650   -0.1930 c3        1 TGG     -0.013600
     22 CE2        -4.2270    2.1980    0.7030 c         1 TGG      0.914600
     23 OE2        -4.7230    1.0710    0.3840 o         1 TGG     -0.866800
     24 OF2        -4.6450    2.8470    1.7070 o         1 TGG     -0.866800
     25 CF2        -2.8020    4.2230    0.0270 c3        1 TGG     -0.165400
     26 CH2        -3.0180    5.1580   -1.1690 c         1 TGG      0.908600
     27 OI2        -3.4040    4.7300   -2.2970 o         1 TGG     -0.889300
     28 OJ2        -2.7890    6.3990   -0.9810 o         1 TGG     -0.889300
     29 HA1         5.5030    1.2890   -0.2120 h1        1 TGG      0.041700
     30 HN11        6.7130   -0.4930   -1.6760 hn        1 TGG      0.329300
     31 HN12        5.2480   -1.1690   -1.6450 hn        1 TGG      0.329300
     32 HB11        4.2590   -1.4670    0.5070 hc        1 TGG      0.058200
     33 HB12        4.3320   -0.0390    1.6060 hc        1 TGG      0.058200
     34 HG11        2.9830    1.3170    0.0760 hc        1 TGG      0.058200
     35 HG12        3.1000    0.0740   -1.2350 hc        1 TGG      0.058200
     36 HN2         0.6730    0.3850   -1.1360 hn        1 TGG      0.319500
     37 HA2        -0.7130   -0.9160    1.1000 h1        1 TGG      0.087700
     38 HN3        -1.3560   -3.1740    0.8760 hn        1 TGG      0.333500
     39 HA31       -2.4450   -4.2860   -1.4650 h1        1 TGG      0.027700
     40 HA32       -0.6740   -4.6680   -1.4430 h1        1 TGG      0.027700
     41 HB21       -1.9620    0.2180   -1.5080 h1        1 TGG      0.092700
     42 HB22       -2.7840   -0.1210    0.0660 h1        1 TGG      0.092700
     43 HD2        -3.3950    2.5830   -1.2600 h1        1 TGG      0.087700
     44 HF21       -3.4380    4.6070    0.8700 hc        1 TGG      0.046700
     45 HF22       -1.7300    4.3470    0.3420 hc        1 TGG      0.046700
@<TRIPOS>BOND
     1    1    2 1   
     2    2    3 1   
     3    2    4 1   
     4    4    5 1   
     5    4    6 1   
     6    4   29 1   
     7    5   30 1   
     8    5   31 1   
     9    6    7 1   
    10    6   32 1   
    11    6   33 1   
    12    7    8 1   
    13    7   34 1   
    14    7   35 1   
    15    8    9 2   
    16    8   10 1   
    17   10   11 1   
    18   10   36 1   
    19   11   12 1   
    20   11   19 1   
    21   11   37 1   
    22   12   13 2   
    23   12   14 1   
    24   14   15 1   
    25   14   38 1   
    26   15   16 1   
    27   15   39 1   
    28   15   40 1   
    29   16   17 1   
    30   16   18 1   
    31   19   20 1   
    32   19   41 1   
    33   19   42 1   
    34   20   21 1   
    35   21   22 1   
    36   21   25 1   
    37   21   43 1   
    38   22   23 1   
    39   22   24 1   
    40   25   26 1   
    41   25   44 1   
    42   25   45 1   
    43   26   27 1   
    44   26   28 1   
@<TRIPOS>SUBSTRUCTURE
     1 TGG         1 TEMP              0 ****  ****    0 ROOT
