@<TRIPOS>MOLECULE
TGG
   45    43     1     0     0
SMALL
bcc


@<TRIPOS>ATOM
      1 OC1        -2.6360    4.6330   -4.3340 o         1 TGG     -0.614000
      2 CO1        -1.3910    4.4750   -4.4340 c1        1 TGG      0.313000
      3 OT1        -0.8780    4.2170   -5.5550 os        1 TGG     -0.579000
      4 CA1        -0.5110    4.6090   -3.2130 c3        1 TGG     -0.116000
      5 NN1        -0.6810    5.9030   -2.6460 n3        1 TGG     -0.336000
      6 CB1        -0.8970    3.5590   -2.1960 c3        1 TGG     -0.141000
      7 CG1         0.3070    2.6990   -1.8790 c3        1 TGG     -0.177000
      8 CD1        -0.0670    1.6760   -0.8280 c2        1 TGG      0.304000
      9 OE1        -1.1410    1.7490   -0.2660 o         1 TGG     -0.402000
     10 NN2         0.8420    0.6410   -0.4910 n         1 TGG     -0.345000
     11 CA2         0.5150   -0.2850    0.5350 c3        1 TGG      0.042000
     12 CO2         1.5970   -0.2710    1.5910 c2        1 TGG      0.271000
     13 OC2         2.7000   -0.7140    1.3360 o         1 TGG     -0.435000
     14 NN3         1.3300    0.2730    2.8740 n         1 TGG     -0.346000
     15 CA3         2.3590    0.3200    3.8540 c3        1 TGG     -0.086000
     16 CO3         1.7670    0.7210    5.1880 c2        1 TGG      0.325000
     17 OC3         1.5550    1.9360    5.4410 o         1 TGG     -0.597000
     18 OT3         1.4990   -0.1580    6.0480 o         1 TGG     -0.597000
     19 CB2         0.4030   -1.6730   -0.0550 c3        1 TGG     -0.278000
     20 SG2        -0.4200   -2.7400    1.0960 ss        1 TGG     -0.068000
     21 CD2        -0.6900   -4.3240    0.3450 c3        1 TGG     -0.181000
     22 CE2         0.3380   -5.3070    0.8600 c2        1 TGG      0.329000
     23 OE2         1.0120   -5.9950    0.0500 o         1 TGG     -0.599000
     24 OF2         0.5100   -5.4460    2.0990 o         1 TGG     -0.599000
     25 CF2        -2.0780   -4.8170    0.6920 c3        1 TGG     -0.197000
     26 CH2        -2.2100   -6.2700    0.2940 c2        1 TGG      0.327000
     27 OI2        -2.3950   -6.5790   -0.9120 o         1 TGG     -0.623500
     28 OJ2        -2.1430   -7.1710    1.1710 o         1 TGG     -0.623500
     29 HA1         0.4240    4.4860   -3.4700 h1        1 TGG      0.081000
     30 HN11       -1.2010    6.4130   -3.2010 hn        1 TGG      0.125000
     31 HN12        0.1380    6.3010   -2.5430 hn        1 TGG      0.125000
     32 HB11       -1.2090    3.9960   -1.3790 hc        1 TGG      0.096500
     33 HB12       -1.6110    2.9990   -2.5610 hc        1 TGG      0.096500
     34 HG11        1.0310    3.2630   -1.5420 hc        1 TGG      0.097000
     35 HG12        0.6020    2.2390   -2.6900 hc        1 TGG      0.097000
     36 HN2         1.6420    0.5780   -0.9230 hn        1 TGG      0.230000
     37 HA2        -0.3390   -0.0340    0.9400 h1        1 TGG      0.128000
     38 HN3         0.5000    0.5970    3.0680 hn        1 TGG      0.244000
     39 HA31        3.0360    0.9750    3.5870 h1        1 TGG      0.067500
     40 HA32        2.7740   -0.5640    3.9350 h1        1 TGG      0.067500
     41 HB21       -0.1090   -1.6330   -0.8870 h1        1 TGG      0.133000
     42 HB22        1.2990   -2.0210   -0.2400 h1        1 TGG      0.133000
     43 HD2        -0.6060   -4.2430   -0.6240 h1        1 TGG      0.132000
     44 HF21       -2.7420   -4.2850    0.2100 hc        1 TGG      0.086500
     45 HF22       -2.2240   -4.7270    1.6550 hc        1 TGG      0.086500
@<TRIPOS>BOND
     1    1    2 1   
     2    2    4 1   
     3    4    5 1   
     4    4    6 1   
     5    4   29 1   
     6    5   30 1   
     7    5   31 1   
     8    6    7 1   
     9    6   32 1   
    10    6   33 1   
    11    7    8 1   
    12    7   34 1   
    13    7   35 1   
    14    8    9 1   
    15    8   10 1   
    16   10   11 1   
    17   10   36 1   
    18   11   12 1   
    19   11   19 1   
    20   11   37 1   
    21   12   13 1   
    22   12   14 1   
    23   14   15 1   
    24   14   38 1   
    25   15   16 1   
    26   15   39 1   
    27   15   40 1   
    28   16   17 1   
    29   16   18 1   
    30   19   20 1   
    31   19   41 1   
    32   19   42 1   
    33   20   21 1   
    34   21   22 1   
    35   21   25 1   
    36   21   43 1   
    37   22   23 1   
    38   22   24 1   
    39   25   26 1   
    40   25   44 1   
    41   25   45 1   
    42   26   27 1   
    43   26   28 1   
@<TRIPOS>SUBSTRUCTURE
     1 TGG         1 TEMP              0 ****  ****    0 ROOT
