@<TRIPOS>MOLECULE
TGG
   45    44     1     0     0
SMALL
bcc


@<TRIPOS>ATOM
      1 OC1        -0.2610   -0.1170   -0.0550 o         1 TGG     -0.861800
      2 CO1         0.9910   -0.3320   -0.0730 c         1 TGG      0.892600
      3 OT1         1.6420   -0.5060   -1.1410 o         1 TGG     -0.861800
      4 CA1         1.7750   -0.3210    1.2780 c3        1 TGG      0.030500
      5 NN1         0.9960    0.1870    2.4020 n3        1 TGG     -0.902800
      6 CB1         2.3930   -1.7030    1.5240 c3        1 TGG     -0.060400
      7 CG1         3.4400   -1.6680    2.6190 c3        1 TGG     -0.148400
      8 CD1         3.9230   -3.0570    3.0190 c         1 TGG      0.661100
      9 OE1         3.6890   -4.0670    2.3210 o         1 TGG     -0.639100
     10 NN2         4.6380   -3.1380    4.1950 n         1 TGG     -0.550900
     11 CA2         5.1810   -4.3540    4.7500 c3        1 TGG      0.074700
     12 CO2         4.1860   -4.9450    5.8010 c         1 TGG      0.632100
     13 OC2         3.7870   -4.2310    6.7530 o         1 TGG     -0.678100
     14 NN3         3.7680   -6.2400    5.6660 n         1 TGG     -0.531900
     15 CA3         2.8640   -6.8440    6.6050 c3        1 TGG     -0.020000
     16 CO3         2.3850   -8.2740    6.2570 c         1 TGG      0.906600
     17 OC3         2.8150   -8.8700    5.2300 o         1 TGG     -0.861300
     18 OT3         1.5530   -8.7930    7.0630 o         1 TGG     -0.861300
     19 CB2         6.5080   -4.1450    5.4920 c3        1 TGG     -0.024300
     20 SG2         7.6640   -3.1540    4.5750 ss        1 TGG     -0.425200
     21 CD2         9.2250   -3.2870    5.5120 c3        1 TGG     -0.013600
     22 CE2         9.7480   -4.7330    5.5060 c         1 TGG      0.914600
     23 OE2         9.1690   -5.5720    6.2640 o         1 TGG     -0.866800
     24 OF2        10.7370   -5.0610    4.7840 o         1 TGG     -0.866800
     25 CF2        10.1390   -2.2770    4.8680 c3        1 TGG     -0.165400
     26 CH2        10.6600   -1.1520    5.7680 c         1 TGG      0.908600
     27 OI2        10.3180   -1.0480    6.9830 o         1 TGG     -0.889300
     28 OJ2        11.4620   -0.3120    5.2390 o         1 TGG     -0.889300
     29 HA1         2.6230    0.4140    1.1360 h1        1 TGG      0.041700
     30 HN11        0.6470   -0.5860    2.9400 hn        1 TGG      0.329300
     31 HN12        0.1910    0.6670    2.0310 hn        1 TGG      0.329300
     32 HB11        1.5970   -2.4470    1.7880 hc        1 TGG      0.058200
     33 HB12        2.8600   -2.0470    0.5640 hc        1 TGG      0.058200
     34 HG11        4.3310   -1.0830    2.2680 hc        1 TGG      0.058200
     35 HG12        3.0290   -1.1460    3.5230 hc        1 TGG      0.058200
     36 HN2         4.8340   -2.3060    4.7020 hn        1 TGG      0.319500
     37 HA2         5.3320   -5.0850    3.9010 h1        1 TGG      0.087700
     38 HN3         4.0490   -6.7980    4.8930 hn        1 TGG      0.333500
     39 HA31        3.3590   -6.8860    7.6170 h1        1 TGG      0.027700
     40 HA32        1.9520   -6.1910    6.7120 h1        1 TGG      0.027700
     41 HB21        6.3110   -3.6450    6.4730 h1        1 TGG      0.092700
     42 HB22        6.9810   -5.1400    5.7080 h1        1 TGG      0.092700
     43 HD2         9.0090   -2.9980    6.5720 h1        1 TGG      0.087700
     44 HF21       11.0350   -2.8130    4.4500 hc        1 TGG      0.046700
     45 HF22        9.6190   -1.7820    4.0020 hc        1 TGG      0.046700
@<TRIPOS>BOND
     1    1    2 1   
     2    2    3 1   
     3    2    4 1   
     4    4    5 1   
     5    4    6 1   
     6    4   29 1   
     7    5   30 1   
     8    5   31 1   
     9    6    7 1   
    10    6   32 1   
    11    6   33 1   
    12    7    8 1   
    13    7   34 1   
    14    7   35 1   
    15    8    9 2   
    16    8   10 1   
    17   10   11 1   
    18   10   36 1   
    19   11   12 1   
    20   11   19 1   
    21   11   37 1   
    22   12   13 2   
    23   12   14 1   
    24   14   15 1   
    25   14   38 1   
    26   15   16 1   
    27   15   39 1   
    28   15   40 1   
    29   16   17 1   
    30   16   18 1   
    31   19   20 1   
    32   19   41 1   
    33   19   42 1   
    34   20   21 1   
    35   21   22 1   
    36   21   25 1   
    37   21   43 1   
    38   22   23 1   
    39   22   24 1   
    40   25   26 1   
    41   25   44 1   
    42   25   45 1   
    43   26   27 1   
    44   26   28 1   
@<TRIPOS>SUBSTRUCTURE
     1 TGG         1 TEMP              0 ****  ****    0 ROOT
