@<TRIPOS>MOLECULE
TGL
  173   172     1     0     0
SMALL
bcc


@<TRIPOS>ATOM
      1 CA1        -1.1710    2.1990    0.5670 c         1 TGL      0.634100
      2 CA2        -0.0800    1.1770    0.6350 c3        1 TGL     -0.127400
      3 CA3         1.0600    1.6580    1.5070 c3        1 TGL     -0.079400
      4 CA4         2.0960    0.5690    1.6850 c3        1 TGL     -0.078900
      5 CA5         3.2490    1.0490    2.5400 c3        1 TGL     -0.079400
      6 CA6         4.2850   -0.0390    2.7240 c3        1 TGL     -0.079400
      7 CA7         5.4390    0.4410    3.5790 c3        1 TGL     -0.079400
      8 CA8         6.4750   -0.6460    3.7630 c3        1 TGL     -0.079400
      9 CA9         7.6280   -0.1670    4.6180 c3        1 TGL     -0.079400
     10 OA1        -1.6010    2.9460    1.4470 o         1 TGL     -0.541000
     11 CB1        -1.6270    3.5580   -4.0500 c         1 TGL      0.643100
     12 CB2        -0.8590    4.6610   -4.7140 c3        1 TGL     -0.127400
     13 CB3         0.5170    4.1870   -5.1340 c3        1 TGL     -0.079400
     14 CB4         1.2340    5.2580   -5.9260 c3        1 TGL     -0.079400
     15 CB5         2.6160    4.7980   -6.3360 c3        1 TGL     -0.078400
     16 CB6         3.3350    5.8640   -7.1350 c3        1 TGL     -0.079400
     17 CB7         4.7170    5.4030   -7.5460 c3        1 TGL     -0.079400
     18 CB8         5.4350    6.4680   -8.3470 c3        1 TGL     -0.079400
     19 CB9         6.8160    6.0080   -8.7590 c3        1 TGL     -0.079400
     20 C10         7.5340    7.0720   -9.5610 c3        1 TGL     -0.079400
     21 C11         8.9150    6.6120   -9.9740 c3        1 TGL     -0.079400
     22 C12         9.6330    7.6760  -10.7760 c3        1 TGL     -0.079400
     23 C13        11.0140    7.2150  -11.1890 c3        1 TGL     -0.079400
     24 C14        11.7310    8.2800  -11.9920 c3        1 TGL     -0.079400
     25 OB1        -1.6410    2.3570   -4.3160 o         1 TGL     -0.530000
     26 OG1        -1.7570    2.2560   -0.6700 os        1 TGL     -0.440900
     27 CG1        -2.8280    3.1970   -0.8320 c3        1 TGL      0.127400
     28 CG2        -3.2390    3.1110   -2.3030 c3        1 TGL      0.135100
     29 OG2        -2.4080    4.0310   -3.0270 os        1 TGL     -0.444900
     30 CG3        -4.6850    3.5870   -2.4630 c3        1 TGL      0.127400
     31 OG3        -5.1460    3.0260   -3.7010 os        1 TGL     -0.440900
     32 CC1        -6.4230    3.3480   -4.0820 c         1 TGL      0.634100
     33 CC2        -6.7940    2.7440   -5.4000 c3        1 TGL     -0.127400
     34 CC3        -8.2470    2.3190   -5.4130 c3        1 TGL     -0.079400
     35 CC4        -8.6530    1.8400   -6.7900 c3        1 TGL     -0.078900
     36 CC5       -10.1000    1.3970   -6.8070 c3        1 TGL     -0.079400
     37 CC6       -10.5120    0.9230   -8.1840 c3        1 TGL     -0.079400
     38 CC7       -11.9590    0.4800   -8.2020 c3        1 TGL     -0.079400
     39 CC8       -12.3720    0.0070   -9.5800 c3        1 TGL     -0.079400
     40 CC9       -13.8200   -0.4330   -9.5980 c3        1 TGL     -0.079400
     41 C15       -14.2330   -0.9060  -10.9760 c3        1 TGL     -0.079400
     42 C16       -15.6810   -1.3440  -10.9950 c3        1 TGL     -0.079400
     43 C17       -16.0940   -1.8160  -12.3730 c3        1 TGL     -0.079400
     44 C18       -17.5430   -2.2530  -12.3930 c3        1 TGL     -0.079400
     45 C19       -17.9560   -2.7240  -13.7710 c3        1 TGL     -0.079400
     46 OC1        -7.0840    4.0730   -3.3380 o         1 TGL     -0.541000
     47 C20         8.6650   -1.2540    4.8030 c3        1 TGL     -0.079400
     48 C21         9.8180   -0.7750    5.6580 c3        1 TGL     -0.079400
     49 C22        10.8540   -1.8620    5.8430 c3        1 TGL     -0.079400
     50 C23        12.0070   -1.3830    6.6990 c3        1 TGL     -0.079400
     51 C24        13.0440   -2.4700    6.8840 c3        1 TGL     -0.079400
     52 C25        14.1960   -1.9910    7.7410 c3        1 TGL     -0.079400
     53 C26        15.2330   -3.0780    7.9260 c3        1 TGL     -0.079400
     54 C27        16.3860   -2.6000    8.7820 c3        1 TGL     -0.080400
     55 C28        17.4210   -3.6790    8.9690 c3        1 TGL     -0.092100
     56 C29        13.1130    7.8190  -12.4050 c3        1 TGL     -0.079400
     57 C30        13.8300    8.8830  -13.2070 c3        1 TGL     -0.079400
     58 C31        15.2120    8.4240  -13.6210 c3        1 TGL     -0.080400
     59 C32        15.9300    9.4800  -14.4210 c3        1 TGL     -0.092100
     60 C33       -19.4050   -3.1610  -13.7900 c3        1 TGL     -0.079400
     61 C34       -19.8190   -3.6310  -15.1680 c3        1 TGL     -0.079400
     62 C35       -21.2680   -4.0680  -15.1900 c3        1 TGL     -0.080400
     63 C36       -21.6840   -4.5380  -16.5600 c3        1 TGL     -0.092100
     64 HA21       -0.5280    0.2380    1.0610 hc        1 TGL      0.080450
     65 HA22        0.2840    0.9440   -0.4000 hc        1 TGL      0.080450
     66 HA31        0.6590    1.9740    2.5070 hc        1 TGL      0.057700
     67 HA32        1.5350    2.5610    1.0410 hc        1 TGL      0.057700
     68 HA41        1.6220   -0.3290    2.1630 hc        1 TGL      0.041700
     69 HA42        2.4800    0.2460    0.6810 hc        1 TGL      0.041700
     70 HA51        3.7250    1.9450    2.0610 hc        1 TGL      0.042700
     71 HA52        2.8630    1.3750    3.5420 hc        1 TGL      0.042700
     72 HA61        4.6700   -0.3650    1.7220 hc        1 TGL      0.039950
     73 HA62        3.8090   -0.9350    3.2030 hc        1 TGL      0.039950
     74 HA71        5.9140    1.3370    3.1000 hc        1 TGL      0.040450
     75 HA72        5.0540    0.7680    4.5810 hc        1 TGL      0.040450
     76 HA81        6.8600   -0.9730    2.7610 hc        1 TGL      0.039700
     77 HA82        5.9990   -1.5430    4.2420 hc        1 TGL      0.039700
     78 HA91        8.1040    0.7290    4.1400 hc        1 TGL      0.039700
     79 HA92        7.2430    0.1600    5.6200 hc        1 TGL      0.039700
     80 HB21       -1.4520    4.9850   -5.6110 hc        1 TGL      0.078700
     81 HB22       -0.7790    5.5380   -4.0200 hc        1 TGL      0.078700
     82 HB31        1.1170    3.9220   -4.2240 hc        1 TGL      0.057700
     83 HB32        0.4190    3.2530   -5.7490 hc        1 TGL      0.057700
     84 HB41        1.3150    6.1930   -5.3110 hc        1 TGL      0.041200
     85 HB42        0.6370    5.5150   -6.8410 hc        1 TGL      0.041200
     86 HB51        2.5340    3.8600   -6.9470 hc        1 TGL      0.042700
     87 HB52        3.2150    4.5450   -5.4220 hc        1 TGL      0.042700
     88 HB61        2.7350    6.1170   -8.0500 hc        1 TGL      0.039700
     89 HB62        3.4170    6.8010   -6.5240 hc        1 TGL      0.039700
     90 HB71        4.6350    4.4650   -8.1570 hc        1 TGL      0.040200
     91 HB72        5.3170    5.1520   -6.6320 hc        1 TGL      0.040200
     92 HB81        4.8340    6.7210   -9.2610 hc        1 TGL      0.039700
     93 HB82        5.5170    7.4060   -7.7370 hc        1 TGL      0.039700
     94 HB91        7.4170    5.7560   -7.8460 hc        1 TGL      0.039700
     95 HB92        6.7340    5.0700   -9.3690 hc        1 TGL      0.039700
     96 H101        7.6170    8.0110   -8.9510 hc        1 TGL      0.039700
     97 H102        6.9330    7.3240  -10.4740 hc        1 TGL      0.039700
     98 H111        9.5170    6.3600   -9.0610 hc        1 TGL      0.039700
     99 H112        8.8320    5.6730  -10.5840 hc        1 TGL      0.039700
    100 H121        9.0320    7.9280  -11.6890 hc        1 TGL      0.039700
    101 H122        9.7160    8.6140  -10.1660 hc        1 TGL      0.039700
    102 H131       10.9310    6.2770  -11.7990 hc        1 TGL      0.039700
    103 H132       11.6160    6.9640  -10.2760 hc        1 TGL      0.039700
    104 H141       11.8150    9.2180  -11.3820 hc        1 TGL      0.039700
    105 H142       11.1300    8.5310  -12.9050 hc        1 TGL      0.039700
    106 HG11       -3.6710    2.9030   -0.1540 h1        1 TGL      0.067950
    107 HG12       -2.4650    4.2230   -0.5650 h1        1 TGL      0.067950
    108 HG2        -3.1150    2.0630   -2.6950 h1        1 TGL      0.118700
    109 HG31       -4.7480    4.7050   -2.5160 h1        1 TGL      0.067950
    110 HG32       -5.3330    3.2070   -1.6310 h1        1 TGL      0.067950
    111 HC21       -6.6080    3.5230   -6.1880 hc        1 TGL      0.080450
    112 HC22       -6.1240    1.8710   -5.6170 hc        1 TGL      0.080450
    113 HC31       -8.8930    3.1820   -5.0990 hc        1 TGL      0.057700
    114 HC32       -8.4050    1.4980   -4.6640 hc        1 TGL      0.057700
    115 HC41       -8.5040    2.6650   -7.5350 hc        1 TGL      0.041700
    116 HC42       -7.9940    0.9880   -7.1030 hc        1 TGL      0.041700
    117 HC51      -10.2490    0.5690   -6.0640 hc        1 TGL      0.042700
    118 HC52      -10.7580    2.2480   -6.4890 hc        1 TGL      0.042700
    119 HC61       -9.8540    0.0710   -8.5010 hc        1 TGL      0.039950
    120 HC62      -10.3620    1.7500   -8.9270 hc        1 TGL      0.039950
    121 HC71      -12.6170    1.3320   -7.8840 hc        1 TGL      0.040450
    122 HC72      -12.1090   -0.3480   -7.4600 hc        1 TGL      0.040450
    123 HC81      -11.7150   -0.8450   -9.8970 hc        1 TGL      0.039700
    124 HC82      -12.2210    0.8350  -10.3220 hc        1 TGL      0.039700
    125 HC91      -13.9710   -1.2610   -8.8560 hc        1 TGL      0.039700
    126 HC92      -14.4760    0.4190   -9.2800 hc        1 TGL      0.039700
    127 H151      -14.0800   -0.0780  -11.7180 hc        1 TGL      0.039700
    128 H152      -13.5770   -1.7590  -11.2930 hc        1 TGL      0.039700
    129 H161      -15.8330   -2.1720  -10.2530 hc        1 TGL      0.039700
    130 H162      -16.3370   -0.4910  -10.6770 hc        1 TGL      0.039700
    131 H171      -15.4390   -2.6690  -12.6910 hc        1 TGL      0.039700
    132 H172      -15.9410   -0.9880  -13.1150 hc        1 TGL      0.039700
    133 H181      -17.6960   -3.0810  -11.6510 hc        1 TGL      0.039700
    134 H182      -18.1980   -1.3990  -12.0750 hc        1 TGL      0.039700
    135 H191      -17.3020   -3.5780  -14.0880 hc        1 TGL      0.039700
    136 H192      -17.8030   -1.8970  -14.5120 hc        1 TGL      0.039700
    137 H201        9.0500   -1.5800    3.8010 hc        1 TGL      0.039700
    138 H202        8.1890   -2.1500    5.2810 hc        1 TGL      0.039700
    139 H211        9.4320   -0.4480    6.6600 hc        1 TGL      0.039700
    140 H212       10.2940    0.1210    5.1800 hc        1 TGL      0.039700
    141 H221       10.3780   -2.7580    6.3220 hc        1 TGL      0.039700
    142 H222       11.2400   -2.1880    4.8410 hc        1 TGL      0.039700
    143 H231       12.4830   -0.4860    6.2210 hc        1 TGL      0.039700
    144 H232       11.6210   -1.0560    7.7010 hc        1 TGL      0.039700
    145 H241       13.4300   -2.7960    5.8830 hc        1 TGL      0.039700
    146 H242       12.5670   -3.3660    7.3620 hc        1 TGL      0.039700
    147 H251       14.6720   -1.0940    7.2630 hc        1 TGL      0.039700
    148 H252       13.8100   -1.6650    8.7420 hc        1 TGL      0.039700
    149 H261       15.6190   -3.4040    6.9240 hc        1 TGL      0.039700
    150 H262       14.7570   -3.9740    8.4040 hc        1 TGL      0.039700
    151 H271       15.9970   -2.2730    9.7830 hc        1 TGL      0.038700
    152 H272       16.8600   -1.7020    8.3040 hc        1 TGL      0.038700
    153 H281       18.2610   -3.3060    9.6030 hc        1 TGL      0.032700
    154 H282       17.8380   -4.0000    7.9840 hc        1 TGL      0.032700
    155 H283       16.9730   -4.5730    9.4670 hc        1 TGL      0.032700
    156 H291       13.7140    7.5670  -11.4920 hc        1 TGL      0.039700
    157 H292       13.0290    6.8810  -13.0140 hc        1 TGL      0.039700
    158 H301       13.9130    9.8220  -12.5980 hc        1 TGL      0.039700
    159 H302       13.2290    9.1350  -14.1210 hc        1 TGL      0.039700
    160 H311       15.8110    8.1710  -12.7070 hc        1 TGL      0.038700
    161 H312       15.1260    7.4840  -14.2290 hc        1 TGL      0.038700
    162 H321       16.0460   10.4160  -13.8220 hc        1 TGL      0.032700
    163 H322       15.3600    9.7280  -15.3490 hc        1 TGL      0.032700
    164 H323       16.9450    9.1210  -14.7160 hc        1 TGL      0.032700
    165 H331      -19.5590   -3.9880  -13.0490 hc        1 TGL      0.039700
    166 H332      -20.0600   -2.3070  -13.4730 hc        1 TGL      0.039700
    167 H341      -19.1650   -4.4860  -15.4860 hc        1 TGL      0.039700
    168 H342      -19.6650   -2.8040  -15.9110 hc        1 TGL      0.039700
    169 H351      -21.9210   -3.2130  -14.8700 hc        1 TGL      0.038700
    170 H352      -21.4210   -4.8940  -14.4460 hc        1 TGL      0.038700
    171 H361      -21.0610   -5.4060  -16.8850 hc        1 TGL      0.032700
    172 H362      -22.7550   -4.8550  -16.5530 hc        1 TGL      0.032700
    173 H363      -21.5630   -3.7200  -17.3110 hc        1 TGL      0.032700
@<TRIPOS>BOND
     1    1    2 1   
     2    1   10 2   
     3    1   26 1   
     4    2    3 1   
     5    2   64 1   
     6    2   65 1   
     7    3    4 1   
     8    3   66 1   
     9    3   67 1   
    10    4    5 1   
    11    4   68 1   
    12    4   69 1   
    13    5    6 1   
    14    5   70 1   
    15    5   71 1   
    16    6    7 1   
    17    6   72 1   
    18    6   73 1   
    19    7    8 1   
    20    7   74 1   
    21    7   75 1   
    22    8    9 1   
    23    8   76 1   
    24    8   77 1   
    25    9   47 1   
    26    9   78 1   
    27    9   79 1   
    28   11   12 1   
    29   11   25 2   
    30   11   29 1   
    31   12   13 1   
    32   12   80 1   
    33   12   81 1   
    34   13   14 1   
    35   13   82 1   
    36   13   83 1   
    37   14   15 1   
    38   14   84 1   
    39   14   85 1   
    40   15   16 1   
    41   15   86 1   
    42   15   87 1   
    43   16   17 1   
    44   16   88 1   
    45   16   89 1   
    46   17   18 1   
    47   17   90 1   
    48   17   91 1   
    49   18   19 1   
    50   18   92 1   
    51   18   93 1   
    52   19   20 1   
    53   19   94 1   
    54   19   95 1   
    55   20   21 1   
    56   20   96 1   
    57   20   97 1   
    58   21   22 1   
    59   21   98 1   
    60   21   99 1   
    61   22   23 1   
    62   22  100 1   
    63   22  101 1   
    64   23   24 1   
    65   23  102 1   
    66   23  103 1   
    67   24   56 1   
    68   24  104 1   
    69   24  105 1   
    70   26   27 1   
    71   27   28 1   
    72   27  106 1   
    73   27  107 1   
    74   28   29 1   
    75   28   30 1   
    76   28  108 1   
    77   30   31 1   
    78   30  109 1   
    79   30  110 1   
    80   31   32 1   
    81   32   33 1   
    82   32   46 2   
    83   33   34 1   
    84   33  111 1   
    85   33  112 1   
    86   34   35 1   
    87   34  113 1   
    88   34  114 1   
    89   35   36 1   
    90   35  115 1   
    91   35  116 1   
    92   36   37 1   
    93   36  117 1   
    94   36  118 1   
    95   37   38 1   
    96   37  119 1   
    97   37  120 1   
    98   38   39 1   
    99   38  121 1   
   100   38  122 1   
   101   39   40 1   
   102   39  123 1   
   103   39  124 1   
   104   40   41 1   
   105   40  125 1   
   106   40  126 1   
   107   41   42 1   
   108   41  127 1   
   109   41  128 1   
   110   42   43 1   
   111   42  129 1   
   112   42  130 1   
   113   43   44 1   
   114   43  131 1   
   115   43  132 1   
   116   44   45 1   
   117   44  133 1   
   118   44  134 1   
   119   45   60 1   
   120   45  135 1   
   121   45  136 1   
   122   47   48 1   
   123   47  137 1   
   124   47  138 1   
   125   48   49 1   
   126   48  139 1   
   127   48  140 1   
   128   49   50 1   
   129   49  141 1   
   130   49  142 1   
   131   50   51 1   
   132   50  143 1   
   133   50  144 1   
   134   51   52 1   
   135   51  145 1   
   136   51  146 1   
   137   52   53 1   
   138   52  147 1   
   139   52  148 1   
   140   53   54 1   
   141   53  149 1   
   142   53  150 1   
   143   54   55 1   
   144   54  151 1   
   145   54  152 1   
   146   55  153 1   
   147   55  154 1   
   148   55  155 1   
   149   56   57 1   
   150   56  156 1   
   151   56  157 1   
   152   57   58 1   
   153   57  158 1   
   154   57  159 1   
   155   58   59 1   
   156   58  160 1   
   157   58  161 1   
   158   59  162 1   
   159   59  163 1   
   160   59  164 1   
   161   60   61 1   
   162   60  165 1   
   163   60  166 1   
   164   61   62 1   
   165   61  167 1   
   166   61  168 1   
   167   62   63 1   
   168   62  169 1   
   169   62  170 1   
   170   63  171 1   
   171   63  172 1   
   172   63  173 1   
@<TRIPOS>SUBSTRUCTURE
     1 TGL         1 TEMP              0 ****  ****    0 ROOT
