@<TRIPOS>MOLECULE
TGL
  173   172     1     0     0
SMALL
bcc


@<TRIPOS>ATOM
      1 CA1         4.2420   -2.5950    1.4520 c         1 TGL      0.634100
      2 CA2         4.2640   -1.4200    2.3790 c3        1 TGL     -0.127400
      3 CA3         4.2930   -1.8710    3.8250 c3        1 TGL     -0.079400
      4 CA4         4.4550   -0.6850    4.7520 c3        1 TGL     -0.078900
      5 CA5         4.4660   -1.1260    6.2000 c3        1 TGL     -0.079400
      6 CA6         4.6330    0.0560    7.1310 c3        1 TGL     -0.079400
      7 CA7         4.6430   -0.3840    8.5790 c3        1 TGL     -0.079400
      8 CA8         4.8110    0.7980    9.5110 c3        1 TGL     -0.079400
      9 CA9         4.8210    0.3580   10.9590 c3        1 TGL     -0.079400
     10 OA1         4.8210   -3.6780    1.5460 o         1 TGL     -0.541000
     11 CB1         0.1480   -2.3670   -1.1050 c         1 TGL      0.643100
     12 CB2        -1.1700   -2.9500   -0.6930 c3        1 TGL     -0.127400
     13 CB3        -1.8720   -2.0510    0.3030 c3        1 TGL     -0.079400
     14 CB4        -3.2590   -2.5710    0.6110 c3        1 TGL     -0.079400
     15 CB5        -3.9600   -1.6870    1.6200 c3        1 TGL     -0.078400
     16 CB6        -5.3500   -2.2020    1.9270 c3        1 TGL     -0.079400
     17 CB7        -6.0520   -1.3180    2.9360 c3        1 TGL     -0.079400
     18 CB8        -7.4420   -1.8330    3.2440 c3        1 TGL     -0.079400
     19 CB9        -8.1440   -0.9490    4.2530 c3        1 TGL     -0.079400
     20 C10        -9.5340   -1.4630    4.5600 c3        1 TGL     -0.079400
     21 C11       -10.2360   -0.5790    5.5690 c3        1 TGL     -0.079400
     22 C12       -11.6260   -1.0930    5.8770 c3        1 TGL     -0.079400
     23 C13       -12.3280   -0.2090    6.8850 c3        1 TGL     -0.079400
     24 C14       -13.7180   -0.7230    7.1930 c3        1 TGL     -0.079400
     25 OB1         0.4420   -1.1910   -1.3130 o         1 TGL     -0.530000
     26 OG1         3.4660   -2.3720    0.3450 os        1 TGL     -0.440900
     27 CG1         3.3940   -3.4360   -0.6150 c3        1 TGL      0.127400
     28 CG2         2.4180   -2.9590   -1.6930 c3        1 TGL      0.135100
     29 OG2         1.1010   -3.3390   -1.2680 os        1 TGL     -0.444900
     30 CG3         2.6990   -3.6940   -3.0050 c3        1 TGL      0.127400
     31 OG3         2.1410   -2.8730   -4.0410 os        1 TGL     -0.440900
     32 CC1         2.2440   -3.3470   -5.3220 c         1 TGL      0.634100
     33 CC2         1.6020   -2.4370   -6.3220 c3        1 TGL     -0.127400
     34 CC3         2.4040   -2.3880   -7.6050 c3        1 TGL     -0.079400
     35 CC4         1.6800   -1.5770   -8.6590 c3        1 TGL     -0.078900
     36 CC5         2.4850   -1.5080   -9.9390 c3        1 TGL     -0.079400
     37 CC6         1.7630   -0.7020  -10.9970 c3        1 TGL     -0.079400
     38 CC7         2.5680   -0.6310  -12.2770 c3        1 TGL     -0.079400
     39 CC8         1.8460    0.1740  -13.3360 c3        1 TGL     -0.079400
     40 CC9         2.6500    0.2450  -14.6160 c3        1 TGL     -0.079400
     41 C15         1.9290    1.0510  -15.6750 c3        1 TGL     -0.079400
     42 C16         2.7330    1.1220  -16.9550 c3        1 TGL     -0.079400
     43 C17         2.0110    1.9280  -18.0140 c3        1 TGL     -0.079400
     44 C18         2.8160    1.9990  -19.2930 c3        1 TGL     -0.079400
     45 C19         2.0950    2.8050  -20.3520 c3        1 TGL     -0.079400
     46 OC1         2.8140   -4.4250   -5.4970 o         1 TGL     -0.541000
     47 C20         4.9880    1.5400   11.8910 c3        1 TGL     -0.079400
     48 C21         4.9990    1.1000   13.3390 c3        1 TGL     -0.079400
     49 C22         5.1660    2.2810   14.2710 c3        1 TGL     -0.079400
     50 C23         5.1770    1.8420   15.7190 c3        1 TGL     -0.079400
     51 C24         5.3440    3.0230   16.6510 c3        1 TGL     -0.079400
     52 C25         5.3550    2.5830   18.0990 c3        1 TGL     -0.079400
     53 C26         5.5220    3.7640   19.0310 c3        1 TGL     -0.079400
     54 C27         5.5330    3.3260   20.4800 c3        1 TGL     -0.080400
     55 C28         5.6990    4.4990   21.4110 c3        1 TGL     -0.092100
     56 C29       -14.4200    0.1610    8.2010 c3        1 TGL     -0.079400
     57 C30       -15.8100   -0.3530    8.5090 c3        1 TGL     -0.079400
     58 C31       -16.5130    0.5300    9.5170 c3        1 TGL     -0.080400
     59 C32       -17.8980    0.0230    9.8270 c3        1 TGL     -0.092100
     60 C33         2.8990    2.8760  -21.6320 c3        1 TGL     -0.079400
     61 C34         2.1780    3.6820  -22.6910 c3        1 TGL     -0.079400
     62 C35         2.9820    3.7540  -23.9720 c3        1 TGL     -0.080400
     63 C36         2.2670    4.5560  -25.0290 c3        1 TGL     -0.092100
     64 HA21        3.3720   -0.7690    2.1860 hc        1 TGL      0.080450
     65 HA22        5.1840   -0.8220    2.1380 hc        1 TGL      0.080450
     66 HA31        5.1380   -2.5950    3.9740 hc        1 TGL      0.057700
     67 HA32        3.3430   -2.4150    4.0680 hc        1 TGL      0.057700
     68 HA41        3.6170    0.0420    4.5860 hc        1 TGL      0.041700
     69 HA42        5.4120   -0.1490    4.5150 hc        1 TGL      0.041700
     70 HA51        5.3020   -1.8560    6.3650 hc        1 TGL      0.042700
     71 HA52        3.5080   -1.6600    6.4380 hc        1 TGL      0.042700
     72 HA61        3.7980    0.7870    6.9660 hc        1 TGL      0.039950
     73 HA62        5.5910    0.5900    6.8940 hc        1 TGL      0.039950
     74 HA71        5.4780   -1.1140    8.7450 hc        1 TGL      0.040450
     75 HA72        3.6850   -0.9170    8.8170 hc        1 TGL      0.040450
     76 HA81        3.9750    1.5280    9.3450 hc        1 TGL      0.039700
     77 HA82        5.7680    1.3320    9.2730 hc        1 TGL      0.039700
     78 HA91        5.6560   -0.3720   11.1240 hc        1 TGL      0.039700
     79 HA92        3.8630   -0.1750   11.1970 hc        1 TGL      0.039700
     80 HB21       -1.7900   -3.0610   -1.6240 hc        1 TGL      0.078700
     81 HB22       -1.0140   -3.9730   -0.2600 hc        1 TGL      0.078700
     82 HB31       -1.2700   -1.9940    1.2480 hc        1 TGL      0.057700
     83 HB32       -1.9350   -1.0100   -0.1120 hc        1 TGL      0.057700
     84 HB41       -3.8640   -2.6160   -0.3330 hc        1 TGL      0.041200
     85 HB42       -3.1900   -3.6180    1.0110 hc        1 TGL      0.041200
     86 HB51       -3.3580   -1.6440    2.5650 hc        1 TGL      0.042700
     87 HB52       -4.0260   -0.6400    1.2210 hc        1 TGL      0.042700
     88 HB61       -5.9530   -2.2450    0.9820 hc        1 TGL      0.039700
     89 HB62       -5.2850   -3.2490    2.3250 hc        1 TGL      0.039700
     90 HB71       -5.4490   -1.2750    3.8820 hc        1 TGL      0.040200
     91 HB72       -6.1170   -0.2720    2.5380 hc        1 TGL      0.040200
     92 HB81       -8.0440   -1.8760    2.2990 hc        1 TGL      0.039700
     93 HB82       -7.3760   -2.8790    3.6420 hc        1 TGL      0.039700
     94 HB91       -7.5410   -0.9050    5.1980 hc        1 TGL      0.039700
     95 HB92       -8.2090    0.0980    3.8550 hc        1 TGL      0.039700
     96 H101      -10.1360   -1.5070    3.6150 hc        1 TGL      0.039700
     97 H102       -9.4680   -2.5100    4.9590 hc        1 TGL      0.039700
     98 H111       -9.6330   -0.5350    6.5140 hc        1 TGL      0.039700
     99 H112      -10.3010    0.4680    5.1710 hc        1 TGL      0.039700
    100 H121      -12.2280   -1.1370    4.9310 hc        1 TGL      0.039700
    101 H122      -11.5600   -2.1400    6.2760 hc        1 TGL      0.039700
    102 H131      -11.7250   -0.1650    7.8310 hc        1 TGL      0.039700
    103 H132      -12.3930    0.8370    6.4870 hc        1 TGL      0.039700
    104 H141      -14.3200   -0.7670    6.2470 hc        1 TGL      0.039700
    105 H142      -13.6520   -1.7700    7.5920 hc        1 TGL      0.039700
    106 HG11        4.4180   -3.6080   -1.0380 h1        1 TGL      0.067700
    107 HG12        3.0280   -4.3670   -0.1110 h1        1 TGL      0.067700
    108 HG2         2.4890   -1.8430   -1.8350 h1        1 TGL      0.118700
    109 HG31        3.8000   -3.8020   -3.1840 h1        1 TGL      0.067700
    110 HG32        2.2090   -4.7020   -3.0260 h1        1 TGL      0.067700
    111 HC21        0.5700   -2.8340   -6.5210 hc        1 TGL      0.080450
    112 HC22        1.4950   -1.4090   -5.8830 hc        1 TGL      0.080450
    113 HC31        3.4100   -1.9340   -7.4030 hc        1 TGL      0.057700
    114 HC32        2.5800   -3.4330   -7.9760 hc        1 TGL      0.057700
    115 HC41        0.6800   -2.0390   -8.8690 hc        1 TGL      0.041700
    116 HC42        1.4930   -0.5400   -8.2750 hc        1 TGL      0.041700
    117 HC51        3.4850   -1.0430   -9.7300 hc        1 TGL      0.042700
    118 HC52        2.6760   -2.5460  -10.3200 hc        1 TGL      0.042700
    119 HC61        0.7630   -1.1670  -11.2070 hc        1 TGL      0.039950
    120 HC62        1.5710    0.3350  -10.6150 hc        1 TGL      0.039950
    121 HC71        3.5670   -0.1670  -12.0680 hc        1 TGL      0.040450
    122 HC72        2.7590   -1.6690  -12.6590 hc        1 TGL      0.040450
    123 HC81        0.8460   -0.2900  -13.5450 hc        1 TGL      0.039700
    124 HC82        1.6540    1.2120  -12.9540 hc        1 TGL      0.039700
    125 HC91        3.6500    0.7100  -14.4060 hc        1 TGL      0.039700
    126 HC92        2.8420   -0.7920  -14.9980 hc        1 TGL      0.039700
    127 H151        0.9290    0.5870  -15.8840 hc        1 TGL      0.039700
    128 H152        1.7370    2.0880  -15.2930 hc        1 TGL      0.039700
    129 H161        3.7330    1.5870  -16.7450 hc        1 TGL      0.039700
    130 H162        2.9250    0.0850  -17.3370 hc        1 TGL      0.039700
    131 H171        1.0120    1.4640  -18.2230 hc        1 TGL      0.039700
    132 H172        1.8200    2.9650  -17.6310 hc        1 TGL      0.039700
    133 H181        3.8160    2.4630  -19.0840 hc        1 TGL      0.039700
    134 H182        3.0080    0.9620  -19.6760 hc        1 TGL      0.039700
    135 H191        1.0950    2.3410  -20.5620 hc        1 TGL      0.039700
    136 H192        1.9030    3.8420  -19.9700 hc        1 TGL      0.039700
    137 H201        4.1530    2.2700   11.7260 hc        1 TGL      0.039700
    138 H202        5.9460    2.0730   11.6530 hc        1 TGL      0.039700
    139 H211        5.8340    0.3690   13.5040 hc        1 TGL      0.039700
    140 H212        4.0410    0.5660   13.5770 hc        1 TGL      0.039700
    141 H221        4.3310    3.0120   14.1050 hc        1 TGL      0.039700
    142 H222        6.1240    2.8150   14.0330 hc        1 TGL      0.039700
    143 H231        6.0120    1.1110   15.8840 hc        1 TGL      0.039700
    144 H232        4.2190    1.3080   15.9570 hc        1 TGL      0.039700
    145 H241        4.5090    3.7530   16.4850 hc        1 TGL      0.039700
    146 H242        6.3020    3.5570   16.4130 hc        1 TGL      0.039700
    147 H251        6.1900    1.8530   18.2640 hc        1 TGL      0.039700
    148 H252        4.3970    2.0490   18.3370 hc        1 TGL      0.039700
    149 H261        4.6870    4.4950   18.8660 hc        1 TGL      0.039700
    150 H262        6.4790    4.2980   18.7930 hc        1 TGL      0.039700
    151 H271        6.3680    2.5940   20.6420 hc        1 TGL      0.038700
    152 H272        4.5750    2.7910   20.7150 hc        1 TGL      0.038700
    153 H281        5.7050    4.1540   22.4730 hc        1 TGL      0.032700
    154 H282        6.6600    5.0310   21.2080 hc        1 TGL      0.032700
    155 H283        4.8620    5.2270   21.2810 hc        1 TGL      0.032700
    156 H291      -13.8170    0.2050    9.1470 hc        1 TGL      0.039700
    157 H292      -14.4860    1.2080    7.8020 hc        1 TGL      0.039700
    158 H301      -16.4130   -0.3970    7.5640 hc        1 TGL      0.039700
    159 H302      -15.7450   -1.3990    8.9080 hc        1 TGL      0.039700
    160 H311      -15.9080    0.5750   10.4610 hc        1 TGL      0.038700
    161 H312      -16.5760    1.5770    9.1170 hc        1 TGL      0.038700
    162 H321      -18.3980    0.6880   10.5710 hc        1 TGL      0.032700
    163 H322      -18.5240   -0.0050    8.9020 hc        1 TGL      0.032700
    164 H323      -17.8540   -1.0100   10.2500 hc        1 TGL      0.032700
    165 H331        3.8990    3.3410  -21.4230 hc        1 TGL      0.039700
    166 H332        3.0910    1.8390  -22.0140 hc        1 TGL      0.039700
    167 H341        1.1780    3.2180  -22.9010 hc        1 TGL      0.039700
    168 H342        1.9870    4.7190  -22.3090 hc        1 TGL      0.039700
    169 H351        3.9820    4.2170  -23.7600 hc        1 TGL      0.038700
    170 H352        3.1740    2.7160  -24.3520 hc        1 TGL      0.038700
    171 H361        2.8770    4.5960  -25.9640 hc        1 TGL      0.032700
    172 H362        1.2790    4.0960  -25.2720 hc        1 TGL      0.032700
    173 H363        2.0890    5.6010  -24.6790 hc        1 TGL      0.032700
@<TRIPOS>BOND
     1    1    2 1   
     2    1   10 2   
     3    1   26 1   
     4    2    3 1   
     5    2   64 1   
     6    2   65 1   
     7    3    4 1   
     8    3   66 1   
     9    3   67 1   
    10    4    5 1   
    11    4   68 1   
    12    4   69 1   
    13    5    6 1   
    14    5   70 1   
    15    5   71 1   
    16    6    7 1   
    17    6   72 1   
    18    6   73 1   
    19    7    8 1   
    20    7   74 1   
    21    7   75 1   
    22    8    9 1   
    23    8   76 1   
    24    8   77 1   
    25    9   47 1   
    26    9   78 1   
    27    9   79 1   
    28   11   12 1   
    29   11   25 2   
    30   11   29 1   
    31   12   13 1   
    32   12   80 1   
    33   12   81 1   
    34   13   14 1   
    35   13   82 1   
    36   13   83 1   
    37   14   15 1   
    38   14   84 1   
    39   14   85 1   
    40   15   16 1   
    41   15   86 1   
    42   15   87 1   
    43   16   17 1   
    44   16   88 1   
    45   16   89 1   
    46   17   18 1   
    47   17   90 1   
    48   17   91 1   
    49   18   19 1   
    50   18   92 1   
    51   18   93 1   
    52   19   20 1   
    53   19   94 1   
    54   19   95 1   
    55   20   21 1   
    56   20   96 1   
    57   20   97 1   
    58   21   22 1   
    59   21   98 1   
    60   21   99 1   
    61   22   23 1   
    62   22  100 1   
    63   22  101 1   
    64   23   24 1   
    65   23  102 1   
    66   23  103 1   
    67   24   56 1   
    68   24  104 1   
    69   24  105 1   
    70   26   27 1   
    71   27   28 1   
    72   27  106 1   
    73   27  107 1   
    74   28   29 1   
    75   28   30 1   
    76   28  108 1   
    77   30   31 1   
    78   30  109 1   
    79   30  110 1   
    80   31   32 1   
    81   32   33 1   
    82   32   46 2   
    83   33   34 1   
    84   33  111 1   
    85   33  112 1   
    86   34   35 1   
    87   34  113 1   
    88   34  114 1   
    89   35   36 1   
    90   35  115 1   
    91   35  116 1   
    92   36   37 1   
    93   36  117 1   
    94   36  118 1   
    95   37   38 1   
    96   37  119 1   
    97   37  120 1   
    98   38   39 1   
    99   38  121 1   
   100   38  122 1   
   101   39   40 1   
   102   39  123 1   
   103   39  124 1   
   104   40   41 1   
   105   40  125 1   
   106   40  126 1   
   107   41   42 1   
   108   41  127 1   
   109   41  128 1   
   110   42   43 1   
   111   42  129 1   
   112   42  130 1   
   113   43   44 1   
   114   43  131 1   
   115   43  132 1   
   116   44   45 1   
   117   44  133 1   
   118   44  134 1   
   119   45   60 1   
   120   45  135 1   
   121   45  136 1   
   122   47   48 1   
   123   47  137 1   
   124   47  138 1   
   125   48   49 1   
   126   48  139 1   
   127   48  140 1   
   128   49   50 1   
   129   49  141 1   
   130   49  142 1   
   131   50   51 1   
   132   50  143 1   
   133   50  144 1   
   134   51   52 1   
   135   51  145 1   
   136   51  146 1   
   137   52   53 1   
   138   52  147 1   
   139   52  148 1   
   140   53   54 1   
   141   53  149 1   
   142   53  150 1   
   143   54   55 1   
   144   54  151 1   
   145   54  152 1   
   146   55  153 1   
   147   55  154 1   
   148   55  155 1   
   149   56   57 1   
   150   56  156 1   
   151   56  157 1   
   152   57   58 1   
   153   57  158 1   
   154   57  159 1   
   155   58   59 1   
   156   58  160 1   
   157   58  161 1   
   158   59  162 1   
   159   59  163 1   
   160   59  164 1   
   161   60   61 1   
   162   60  165 1   
   163   60  166 1   
   164   61   62 1   
   165   61  167 1   
   166   61  168 1   
   167   62   63 1   
   168   62  169 1   
   169   62  170 1   
   170   63  171 1   
   171   63  172 1   
   172   63  173 1   
@<TRIPOS>SUBSTRUCTURE
     1 TGL         1 TEMP              0 ****  ****    0 ROOT
