@<TRIPOS>MOLECULE
TGL
  173   172     1     0     0
SMALL
bcc


@<TRIPOS>ATOM
      1 CA1        -1.1880    2.2300    0.4690 c         1 TGL      0.634100
      2 CA2        -0.1010    1.2040    0.5320 c3        1 TGL     -0.127400
      3 CA3         1.0410    1.6770    1.4070 c3        1 TGL     -0.079400
      4 CA4         2.0730    0.5830    1.5780 c3        1 TGL     -0.078900
      5 CA5         3.2270    1.0540    2.4370 c3        1 TGL     -0.079400
      6 CA6         4.2600   -0.0380    2.6150 c3        1 TGL     -0.079400
      7 CA7         5.4150    0.4320    3.4730 c3        1 TGL     -0.079400
      8 CA8         6.4470   -0.6600    3.6510 c3        1 TGL     -0.079400
      9 CA9         7.6020   -0.1890    4.5090 c3        1 TGL     -0.079400
     10 OA1        -1.6160    2.9730    1.3540 o         1 TGL     -0.541000
     11 CB1        -1.6410    3.6090   -4.1380 c         1 TGL      0.643100
     12 CB2        -0.8690    4.7100   -4.7980 c3        1 TGL     -0.127400
     13 CB3         0.5180    4.2420   -5.1840 c3        1 TGL     -0.079400
     14 CB4         1.2460    5.3120   -5.9710 c3        1 TGL     -0.079400
     15 CB5         2.6400    4.8570   -6.3450 c3        1 TGL     -0.078400
     16 CB6         3.3690    5.9230   -7.1360 c3        1 TGL     -0.079400
     17 CB7         4.7640    5.4690   -7.5110 c3        1 TGL     -0.079400
     18 CB8         5.4930    6.5340   -8.3020 c3        1 TGL     -0.079400
     19 CB9         6.8880    6.0810   -8.6760 c3        1 TGL     -0.079400
     20 C10         7.6180    7.1450   -9.4670 c3        1 TGL     -0.079400
     21 C11         9.0130    6.6920   -9.8420 c3        1 TGL     -0.079400
     22 C12         9.7420    7.7560  -10.6330 c3        1 TGL     -0.079400
     23 C13        11.1370    7.3040  -11.0070 c3        1 TGL     -0.079400
     24 C14        11.8670    8.3680  -11.7980 c3        1 TGL     -0.079400
     25 OB1        -1.6600    2.4090   -4.4070 o         1 TGL     -0.530000
     26 OG1        -1.7740    2.2960   -0.7670 os        1 TGL     -0.440900
     27 CG1        -2.8440    3.2400   -0.9220 c3        1 TGL      0.127400
     28 CG2        -3.2570    3.1620   -2.3940 c3        1 TGL      0.135100
     29 OG2        -2.4240    4.0810   -3.1160 os        1 TGL     -0.444900
     30 CG3        -4.7020    3.6440   -2.5500 c3        1 TGL      0.127400
     31 OG3        -5.1710    3.0800   -3.7830 os        1 TGL     -0.440900
     32 CC1        -6.4480    3.4020   -4.1590 c         1 TGL      0.634100
     33 CC2        -6.8280    2.7940   -5.4720 c3        1 TGL     -0.127400
     34 CC3        -8.2770    2.3540   -5.4670 c3        1 TGL     -0.079400
     35 CC4        -8.6950    1.8680   -6.8380 c3        1 TGL     -0.078900
     36 CC5       -10.1370    1.4090   -6.8360 c3        1 TGL     -0.079400
     37 CC6       -10.5600    0.9260   -8.2070 c3        1 TGL     -0.079400
     38 CC7       -12.0020    0.4660   -8.2060 c3        1 TGL     -0.079400
     39 CC8       -12.4260   -0.0170   -9.5770 c3        1 TGL     -0.079400
     40 CC9       -13.8680   -0.4760   -9.5760 c3        1 TGL     -0.079400
     41 C15       -14.2920   -0.9590  -10.9460 c3        1 TGL     -0.079400
     42 C16       -15.7340   -1.4180  -10.9460 c3        1 TGL     -0.079400
     43 C17       -16.1580   -1.9010  -12.3160 c3        1 TGL     -0.079400
     44 C18       -17.6000   -2.3590  -12.3150 c3        1 TGL     -0.079400
     45 C19       -18.0240   -2.8420  -13.6860 c3        1 TGL     -0.079400
     46 OC1        -7.1040    4.1330   -3.4150 o         1 TGL     -0.541000
     47 C20         8.6350   -1.2810    4.6870 c3        1 TGL     -0.079400
     48 C21         9.7900   -0.8100    5.5450 c3        1 TGL     -0.079400
     49 C22        10.8230   -1.9020    5.7230 c3        1 TGL     -0.079400
     50 C23        11.9770   -1.4320    6.5820 c3        1 TGL     -0.079400
     51 C24        13.0100   -2.5240    6.7600 c3        1 TGL     -0.079400
     52 C25        14.1650   -2.0530    7.6180 c3        1 TGL     -0.079400
     53 C26        15.1980   -3.1450    7.7960 c3        1 TGL     -0.079400
     54 C27        16.3540   -2.6750    8.6540 c3        1 TGL     -0.080400
     55 C28        17.3850   -3.7590    8.8350 c3        1 TGL     -0.092100
     56 C29        13.2620    7.9150  -12.1730 c3        1 TGL     -0.079400
     57 C30        13.9910    8.9790  -12.9640 c3        1 TGL     -0.079400
     58 C31        15.3870    8.5280  -13.3390 c3        1 TGL     -0.080400
     59 C32        16.1170    9.5850  -14.1260 c3        1 TGL     -0.092100
     60 C33       -19.4670   -3.3010  -13.6850 c3        1 TGL     -0.079400
     61 C34       -19.8910   -3.7840  -15.0550 c3        1 TGL     -0.079400
     62 C35       -21.3340   -4.2430  -15.0560 c3        1 TGL     -0.080400
     63 C36       -21.7600   -4.7250  -16.4190 c3        1 TGL     -0.092100
     64 HA21       -0.5510    0.2640    0.9500 hc        1 TGL      0.080450
     65 HA22        0.2640    0.9770   -0.5050 hc        1 TGL      0.080450
     66 HA31        0.6400    1.9870    2.4090 hc        1 TGL      0.057700
     67 HA32        1.5190    2.5810    0.9470 hc        1 TGL      0.057700
     68 HA41        1.5960   -0.3160    2.0500 hc        1 TGL      0.041700
     69 HA42        2.4570    0.2650    0.5730 hc        1 TGL      0.041700
     70 HA51        3.7070    1.9520    1.9640 hc        1 TGL      0.042700
     71 HA52        2.8420    1.3750    3.4410 hc        1 TGL      0.042700
     72 HA61        4.6440   -0.3600    1.6110 hc        1 TGL      0.039950
     73 HA62        3.7810   -0.9360    3.0880 hc        1 TGL      0.039950
     74 HA71        5.8940    1.3300    2.9990 hc        1 TGL      0.040450
     75 HA72        5.0300    0.7540    4.4760 hc        1 TGL      0.040450
     76 HA81        6.8310   -0.9820    2.6470 hc        1 TGL      0.039700
     77 HA82        5.9680   -1.5570    4.1240 hc        1 TGL      0.039700
     78 HA91        8.0810    0.7080    4.0350 hc        1 TGL      0.039700
     79 HA92        7.2180    0.1330    5.5130 hc        1 TGL      0.039700
     80 HB21       -1.4450    5.0210   -5.7100 hc        1 TGL      0.078700
     81 HB22       -0.8090    5.5960   -4.1110 hc        1 TGL      0.078700
     82 HB31        1.1010    3.9900   -4.2590 hc        1 TGL      0.057700
     83 HB32        0.4400    3.3030   -5.7930 hc        1 TGL      0.057700
     84 HB41        1.3060    6.2530   -5.3620 hc        1 TGL      0.041200
     85 HB42        0.6670    5.5550   -6.9010 hc        1 TGL      0.041200
     86 HB51        2.5790    3.9150   -6.9500 hc        1 TGL      0.042700
     87 HB52        3.2200    4.6160   -5.4150 hc        1 TGL      0.042700
     88 HB61        2.7900    6.1630   -8.0660 hc        1 TGL      0.039700
     89 HB62        3.4300    6.8650   -6.5310 hc        1 TGL      0.039700
     90 HB71        4.7030    4.5260   -8.1150 hc        1 TGL      0.040200
     91 HB72        5.3430    5.2290   -6.5800 hc        1 TGL      0.040200
     92 HB81        4.9140    6.7740   -9.2320 hc        1 TGL      0.039700
     93 HB82        5.5540    7.4770   -7.6970 hc        1 TGL      0.039700
     94 HB91        7.4680    5.8400   -7.7460 hc        1 TGL      0.039700
     95 HB92        6.8280    5.1380   -9.2810 hc        1 TGL      0.039700
     96 H101        7.6780    8.0880   -8.8630 hc        1 TGL      0.039700
     97 H102        7.0380    7.3860  -10.3980 hc        1 TGL      0.039700
     98 H111        9.5920    6.4510   -8.9120 hc        1 TGL      0.039700
     99 H112        8.9520    5.7490  -10.4470 hc        1 TGL      0.039700
    100 H121        9.1630    7.9970  -11.5630 hc        1 TGL      0.039700
    101 H122        9.8030    8.7000  -10.0280 hc        1 TGL      0.039700
    102 H131       11.0770    6.3610  -11.6120 hc        1 TGL      0.039700
    103 H132       11.7170    7.0630  -10.0770 hc        1 TGL      0.039700
    104 H141       11.9270    9.3110  -11.1940 hc        1 TGL      0.039700
    105 H142       11.2870    8.6090  -12.7280 hc        1 TGL      0.039700
    106 HG11       -3.6860    2.9450   -0.2450 h1        1 TGL      0.067700
    107 HG12       -2.4780    4.2640   -0.6520 h1        1 TGL      0.067700
    108 HG2        -3.1380    2.1150   -2.7900 h1        1 TGL      0.118700
    109 HG31       -4.7590    4.7620   -2.6080 h1        1 TGL      0.067700
    110 HG32       -5.3480    3.2720   -1.7140 h1        1 TGL      0.067700
    111 HC21       -6.6600    3.5740   -6.2630 hc        1 TGL      0.080450
    112 HC22       -6.1530    1.9260   -5.6960 hc        1 TGL      0.080450
    113 HC31       -8.9280    3.2120   -5.1490 hc        1 TGL      0.057700
    114 HC32       -8.4190    1.5340   -4.7150 hc        1 TGL      0.057700
    115 HC41       -8.5640    2.6930   -7.5870 hc        1 TGL      0.041700
    116 HC42       -8.0300    1.0220   -7.1570 hc        1 TGL      0.041700
    117 HC51      -10.2680    0.5820   -6.0890 hc        1 TGL      0.042700
    118 HC52      -10.8000    2.2540   -6.5140 hc        1 TGL      0.042700
    119 HC61       -9.8960    0.0810   -8.5300 hc        1 TGL      0.039950
    120 HC62      -10.4290    1.7530   -8.9540 hc        1 TGL      0.039950
    121 HC71      -12.6660    1.3110   -7.8830 hc        1 TGL      0.040450
    122 HC72      -12.1330   -0.3600   -7.4590 hc        1 TGL      0.040450
    123 HC81      -11.7620   -0.8620   -9.9000 hc        1 TGL      0.039700
    124 HC82      -12.2950    0.8100  -10.3240 hc        1 TGL      0.039700
    125 HC91      -13.9990   -1.3020   -8.8290 hc        1 TGL      0.039700
    126 HC92      -14.5320    0.3690   -9.2530 hc        1 TGL      0.039700
    127 H151      -14.1610   -0.1320  -11.6940 hc        1 TGL      0.039700
    128 H152      -13.6280   -1.8040  -11.2690 hc        1 TGL      0.039700
    129 H161      -15.8650   -2.2440  -10.1980 hc        1 TGL      0.039700
    130 H162      -16.3980   -0.5720  -10.6230 hc        1 TGL      0.039700
    131 H171      -15.4950   -2.7460  -12.6390 hc        1 TGL      0.039700
    132 H172      -16.0260   -1.0740  -13.0630 hc        1 TGL      0.039700
    133 H181      -17.7320   -3.1860  -11.5680 hc        1 TGL      0.039700
    134 H182      -18.2640   -1.5140  -11.9930 hc        1 TGL      0.039700
    135 H191      -17.3610   -3.6880  -14.0080 hc        1 TGL      0.039700
    136 H192      -17.8930   -2.0160  -14.4330 hc        1 TGL      0.039700
    137 H201        9.0190   -1.6030    3.6830 hc        1 TGL      0.039700
    138 H202        8.1560   -2.1780    5.1600 hc        1 TGL      0.039700
    139 H211        9.4050   -0.4890    6.5490 hc        1 TGL      0.039700
    140 H212       10.2690    0.0870    5.0720 hc        1 TGL      0.039700
    141 H221       10.3440   -2.8000    6.1970 hc        1 TGL      0.039700
    142 H222       11.2070   -2.2240    4.7200 hc        1 TGL      0.039700
    143 H231       12.4560   -0.5340    6.1080 hc        1 TGL      0.039700
    144 H232       11.5930   -1.1100    7.5850 hc        1 TGL      0.039700
    145 H241       13.3940   -2.8450    5.7560 hc        1 TGL      0.039700
    146 H242       12.5310   -3.4210    7.2330 hc        1 TGL      0.039700
    147 H251       14.6440   -1.1560    7.1440 hc        1 TGL      0.039700
    148 H252       13.7810   -1.7310    8.6220 hc        1 TGL      0.039700
    149 H261       15.5820   -3.4670    6.7930 hc        1 TGL      0.039700
    150 H262       14.7190   -4.0420    8.2700 hc        1 TGL      0.039700
    151 H271       15.9670   -2.3530    9.6570 hc        1 TGL      0.038700
    152 H272       16.8300   -1.7770    8.1800 hc        1 TGL      0.038700
    153 H281       18.2270   -3.3930    9.4700 hc        1 TGL      0.032700
    154 H282       17.8000   -4.0770    7.8480 hc        1 TGL      0.032700
    155 H283       16.9340   -4.6540    9.3290 hc        1 TGL      0.032700
    156 H291       13.8410    7.6740  -11.2430 hc        1 TGL      0.039700
    157 H292       13.2010    6.9720  -12.7780 hc        1 TGL      0.039700
    158 H301       14.0520    9.9220  -12.3590 hc        1 TGL      0.039700
    159 H302       13.4120    9.2210  -13.8940 hc        1 TGL      0.039700
    160 H311       15.9640    8.2860  -12.4070 hc        1 TGL      0.038700
    161 H312       15.3240    7.5840  -13.9420 hc        1 TGL      0.038700
    162 H321       16.2110   10.5250  -13.5320 hc        1 TGL      0.032700
    163 H322       15.5700    9.8220  -15.0710 hc        1 TGL      0.032700
    164 H323       17.1430    9.2320  -14.3920 hc        1 TGL      0.032700
    165 H331      -19.5980   -4.1270  -12.9380 hc        1 TGL      0.039700
    166 H332      -20.1300   -2.4550  -13.3630 hc        1 TGL      0.039700
    167 H341      -19.2280   -4.6300  -15.3780 hc        1 TGL      0.039700
    168 H342      -19.7590   -2.9580  -15.8030 hc        1 TGL      0.039700
    169 H351      -21.9950   -3.3960  -14.7320 hc        1 TGL      0.038700
    170 H352      -21.4630   -5.0680  -14.3070 hc        1 TGL      0.038700
    171 H361      -21.1280   -5.5850  -16.7480 hc        1 TGL      0.032700
    172 H362      -22.8260   -5.0580  -16.3970 hc        1 TGL      0.032700
    173 H363      -21.6610   -3.9080  -17.1740 hc        1 TGL      0.032700
@<TRIPOS>BOND
     1    1    2 1   
     2    1   10 2   
     3    1   26 1   
     4    2    3 1   
     5    2   64 1   
     6    2   65 1   
     7    3    4 1   
     8    3   66 1   
     9    3   67 1   
    10    4    5 1   
    11    4   68 1   
    12    4   69 1   
    13    5    6 1   
    14    5   70 1   
    15    5   71 1   
    16    6    7 1   
    17    6   72 1   
    18    6   73 1   
    19    7    8 1   
    20    7   74 1   
    21    7   75 1   
    22    8    9 1   
    23    8   76 1   
    24    8   77 1   
    25    9   47 1   
    26    9   78 1   
    27    9   79 1   
    28   11   12 1   
    29   11   25 2   
    30   11   29 1   
    31   12   13 1   
    32   12   80 1   
    33   12   81 1   
    34   13   14 1   
    35   13   82 1   
    36   13   83 1   
    37   14   15 1   
    38   14   84 1   
    39   14   85 1   
    40   15   16 1   
    41   15   86 1   
    42   15   87 1   
    43   16   17 1   
    44   16   88 1   
    45   16   89 1   
    46   17   18 1   
    47   17   90 1   
    48   17   91 1   
    49   18   19 1   
    50   18   92 1   
    51   18   93 1   
    52   19   20 1   
    53   19   94 1   
    54   19   95 1   
    55   20   21 1   
    56   20   96 1   
    57   20   97 1   
    58   21   22 1   
    59   21   98 1   
    60   21   99 1   
    61   22   23 1   
    62   22  100 1   
    63   22  101 1   
    64   23   24 1   
    65   23  102 1   
    66   23  103 1   
    67   24   56 1   
    68   24  104 1   
    69   24  105 1   
    70   26   27 1   
    71   27   28 1   
    72   27  106 1   
    73   27  107 1   
    74   28   29 1   
    75   28   30 1   
    76   28  108 1   
    77   30   31 1   
    78   30  109 1   
    79   30  110 1   
    80   31   32 1   
    81   32   33 1   
    82   32   46 2   
    83   33   34 1   
    84   33  111 1   
    85   33  112 1   
    86   34   35 1   
    87   34  113 1   
    88   34  114 1   
    89   35   36 1   
    90   35  115 1   
    91   35  116 1   
    92   36   37 1   
    93   36  117 1   
    94   36  118 1   
    95   37   38 1   
    96   37  119 1   
    97   37  120 1   
    98   38   39 1   
    99   38  121 1   
   100   38  122 1   
   101   39   40 1   
   102   39  123 1   
   103   39  124 1   
   104   40   41 1   
   105   40  125 1   
   106   40  126 1   
   107   41   42 1   
   108   41  127 1   
   109   41  128 1   
   110   42   43 1   
   111   42  129 1   
   112   42  130 1   
   113   43   44 1   
   114   43  131 1   
   115   43  132 1   
   116   44   45 1   
   117   44  133 1   
   118   44  134 1   
   119   45   60 1   
   120   45  135 1   
   121   45  136 1   
   122   47   48 1   
   123   47  137 1   
   124   47  138 1   
   125   48   49 1   
   126   48  139 1   
   127   48  140 1   
   128   49   50 1   
   129   49  141 1   
   130   49  142 1   
   131   50   51 1   
   132   50  143 1   
   133   50  144 1   
   134   51   52 1   
   135   51  145 1   
   136   51  146 1   
   137   52   53 1   
   138   52  147 1   
   139   52  148 1   
   140   53   54 1   
   141   53  149 1   
   142   53  150 1   
   143   54   55 1   
   144   54  151 1   
   145   54  152 1   
   146   55  153 1   
   147   55  154 1   
   148   55  155 1   
   149   56   57 1   
   150   56  156 1   
   151   56  157 1   
   152   57   58 1   
   153   57  158 1   
   154   57  159 1   
   155   58   59 1   
   156   58  160 1   
   157   58  161 1   
   158   59  162 1   
   159   59  163 1   
   160   59  164 1   
   161   60   61 1   
   162   60  165 1   
   163   60  166 1   
   164   61   62 1   
   165   61  167 1   
   166   61  168 1   
   167   62   63 1   
   168   62  169 1   
   169   62  170 1   
   170   63  171 1   
   171   63  172 1   
   172   63  173 1   
@<TRIPOS>SUBSTRUCTURE
     1 TGL         1 TEMP              0 ****  ****    0 ROOT
