@<TRIPOS>MOLECULE
TGN
   44    46     1     0     0
SMALL
bcc


@<TRIPOS>ATOM
      1 C8         -0.1560    0.1150    0.1240 c3        1 TGN     -0.115700
      2 C10         1.3660   -0.1080    0.2730 c3        1 TGN      0.160500
      3 N12         1.7460    0.1970    1.6750 n3        1 TGN     -0.687600
      4 C14         3.0340   -0.3300    2.0490 c3        1 TGN      0.148100
      5 C18         2.1150    0.9250   -0.6180 c3        1 TGN     -0.108400
      6 C21         2.3450    2.1200    0.3130 c3        1 TGN     -0.112400
      7 C24         1.6920    1.6830    1.6570 c3        1 TGN      0.155500
      8 C26         0.2180    2.1120    1.6730 c3        1 TGN     -0.090400
      9 C29        -0.5160    1.5890    0.4280 c3        1 TGN      0.234100
     10 O1         -1.8890    1.7350    0.5750 os        1 TGN     -0.574200
     11 P2         -2.6070    2.7390   -0.5680 p5        1 TGN      1.388900
     12 O17        -2.2660    4.1150   -0.1420 o         1 TGN     -0.866000
     13 O3         -2.1400    2.1760   -1.8580 o         1 TGN     -0.866000
     14 C4         -4.2100    2.4090   -0.3070 ca        1 TGN     -0.334500
     15 C5         -4.8270    1.3740   -0.9980 ca        1 TGN     -0.042500
     16 C13        -4.9370    3.1830    0.5900 ca        1 TGN     -0.042500
     17 C7         -6.1800    1.1000   -0.7880 ca        1 TGN     -0.175000
     18 C9         -6.9070    1.8730    0.1180 ca        1 TGN     -0.116000
     19 C11        -6.2900    2.9180    0.8070 ca        1 TGN     -0.175000
     20 C6         -0.8870   -0.8990    0.9570 c         1 TGN      0.675100
     21 O7         -1.1780   -2.0550    0.6200 o         1 TGN     -0.604000
     22 O5         -1.2380   -0.5110    2.2180 os        1 TGN     -0.388900
     23 C1         -1.9980   -1.4430    2.9810 c3        1 TGN      0.128700
     24 H8         -0.4490   -0.0900   -0.9460 hc        1 TGN      0.103700
     25 H10         1.6290   -1.1630    0.0020 h1        1 TGN      0.060700
     26 H141        3.2480   -0.0270    3.1070 h1        1 TGN      0.022367
     27 H142        3.8830    0.0240    1.4010 h1        1 TGN      0.022367
     28 H143        2.9930   -1.4500    1.9960 h1        1 TGN      0.022367
     29 H181        1.5080    1.2010   -1.5110 hc        1 TGN      0.050700
     30 H182        3.0840    0.4960   -0.9690 hc        1 TGN      0.050700
     31 H211        3.4340    2.3170    0.4530 hc        1 TGN      0.046700
     32 H212        1.8660    3.0490   -0.0770 hc        1 TGN      0.046700
     33 H24         2.2340    2.1110    2.5380 h1        1 TGN      0.047700
     34 H261        0.1560    3.2290    1.6900 hc        1 TGN      0.066700
     35 H262       -0.2940    1.7140    2.5860 hc        1 TGN      0.066700
     36 H29        -0.1720    2.1900   -0.4710 h1        1 TGN      0.042700
     37 H5         -4.2170    0.7970   -1.7140 ha        1 TGN      0.161000
     38 H13        -4.4100    4.0070    1.1010 ha        1 TGN      0.161000
     39 H7         -6.6700    0.2810   -1.3310 ha        1 TGN      0.112000
     40 H9         -7.9720    1.6590    0.2880 ha        1 TGN      0.104000
     41 H11        -6.8670    3.5270    1.5160 ha        1 TGN      0.112000
     42 H11A       -1.3960   -2.3630    3.1740 h1        1 TGN      0.036033
     43 H12        -2.2170   -0.8940    3.9300 h1        1 TGN      0.036033
     44 H13A       -2.9380   -1.7100    2.4410 h1        1 TGN      0.036033
@<TRIPOS>BOND
     1    1    2 1   
     2    1    9 1   
     3    1   20 1   
     4    1   24 1   
     5    2    3 1   
     6    2    5 1   
     7    2   25 1   
     8    3    4 1   
     9    3    7 1   
    10    4   26 1   
    11    4   27 1   
    12    4   28 1   
    13    5    6 1   
    14    5   29 1   
    15    5   30 1   
    16    6    7 1   
    17    6   31 1   
    18    6   32 1   
    19    7    8 1   
    20    7   33 1   
    21    8    9 1   
    22    8   34 1   
    23    8   35 1   
    24    9   10 1   
    25    9   36 1   
    26   10   11 1   
    27   11   12 1   
    28   11   13 1   
    29   11   14 1   
    30   14   15 ar  
    31   14   16 ar  
    32   15   17 ar  
    33   15   37 1   
    34   16   19 ar  
    35   16   38 1   
    36   17   18 ar  
    37   17   39 1   
    38   18   19 ar  
    39   18   40 1   
    40   19   41 1   
    41   20   21 2   
    42   20   22 1   
    43   22   23 1   
    44   23   42 1   
    45   23   43 1   
    46   23   44 1   
@<TRIPOS>SUBSTRUCTURE
     1 TGN         1 TEMP              0 ****  ****    0 ROOT
