@<TRIPOS>MOLECULE
TGN
   44    46     1     0     0
SMALL
bcc


@<TRIPOS>ATOM
      1 C8         -0.1530    0.1180    0.1260 c3        1 TGN     -0.115700
      2 C10         1.3720   -0.0950    0.2710 c3        1 TGN      0.160500
      3 N12         1.7550    0.2210    1.6690 n3        1 TGN     -0.687600
      4 C14         3.0480   -0.2960    2.0420 c3        1 TGN      0.148100
      5 C18         2.1110    0.9370   -0.6290 c3        1 TGN     -0.108400
      6 C21         2.3360    2.1400    0.2930 c3        1 TGN     -0.112400
      7 C24         1.6920    1.7060    1.6430 c3        1 TGN      0.155500
      8 C26         0.2140    2.1260    1.6610 c3        1 TGN     -0.090400
      9 C29        -0.5210    1.5920    0.4230 c3        1 TGN      0.234100
     10 O1         -1.8940    1.7300    0.5740 os        1 TGN     -0.574200
     11 P2         -2.6230    2.7220   -0.5730 p5        1 TGN      1.388900
     12 O17        -2.2890    4.1030   -0.1560 o         1 TGN     -0.866000
     13 O3         -2.1560    2.1540   -1.8610 o         1 TGN     -0.866000
     14 C4         -4.2230    2.3830   -0.3030 ca        1 TGN     -0.334500
     15 C5         -4.8350    1.3400   -0.9860 ca        1 TGN     -0.042500
     16 C13        -4.9510    3.1580    0.5910 ca        1 TGN     -0.042500
     17 C7         -6.1850    1.0580   -0.7700 ca        1 TGN     -0.175000
     18 C9         -6.9150    1.8320    0.1350 ca        1 TGN     -0.116000
     19 C11        -6.3010    2.8850    0.8150 ca        1 TGN     -0.175000
     20 C6         -0.8740   -0.8960    0.9680 c         1 TGN      0.675100
     21 O7         -1.1590   -2.0560    0.6390 o         1 TGN     -0.604000
     22 O5         -1.2220   -0.5020    2.2280 os        1 TGN     -0.388900
     23 C1         -1.9740   -1.4340    3.0000 c3        1 TGN      0.128700
     24 H8         -0.4480   -0.0960   -0.9410 hc        1 TGN      0.103700
     25 H10         1.6400   -1.1500    0.0050 h1        1 TGN      0.060700
     26 H141        3.0130   -1.4160    1.9950 h1        1 TGN      0.022367
     27 H142        3.8920    0.0590    1.3880 h1        1 TGN      0.022367
     28 H143        3.2640    0.0150    3.0970 h1        1 TGN      0.022367
     29 H181        3.0810    0.5130   -0.9820 hc        1 TGN      0.050700
     30 H182        1.4980    1.2040   -1.5220 hc        1 TGN      0.050700
     31 H211        3.4250    2.3440    0.4280 hc        1 TGN      0.046700
     32 H212        1.8500    3.0630   -0.1000 hc        1 TGN      0.046700
     33 H24         2.2350    2.1430    2.5190 h1        1 TGN      0.047700
     34 H261        0.1460    3.2430    1.6720 hc        1 TGN      0.066700
     35 H262       -0.2910    1.7310    2.5790 hc        1 TGN      0.066700
     36 H29        -0.1840    2.1890   -0.4820 h1        1 TGN      0.042700
     37 H5         -4.2240    0.7630   -1.7010 ha        1 TGN      0.161000
     38 H13        -4.4280    3.9880    1.0960 ha        1 TGN      0.161000
     39 H7         -6.6720    0.2330   -1.3060 ha        1 TGN      0.112000
     40 H9         -7.9770    1.6120    0.3100 ha        1 TGN      0.104000
     41 H11        -6.8800    3.4940    1.5220 ha        1 TGN      0.112000
     42 H11A       -1.3650   -2.3490    3.1960 h1        1 TGN      0.036033
     43 H12        -2.1920   -0.8810    3.9460 h1        1 TGN      0.036033
     44 H13A       -2.9140   -1.7100    2.4650 h1        1 TGN      0.036033
@<TRIPOS>BOND
     1    1    2 1   
     2    1    9 1   
     3    1   20 1   
     4    1   24 1   
     5    2    3 1   
     6    2    5 1   
     7    2   25 1   
     8    3    4 1   
     9    3    7 1   
    10    4   26 1   
    11    4   27 1   
    12    4   28 1   
    13    5    6 1   
    14    5   29 1   
    15    5   30 1   
    16    6    7 1   
    17    6   31 1   
    18    6   32 1   
    19    7    8 1   
    20    7   33 1   
    21    8    9 1   
    22    8   34 1   
    23    8   35 1   
    24    9   10 1   
    25    9   36 1   
    26   10   11 1   
    27   11   12 1   
    28   11   13 1   
    29   11   14 1   
    30   14   15 ar  
    31   14   16 ar  
    32   15   17 ar  
    33   15   37 1   
    34   16   19 ar  
    35   16   38 1   
    36   17   18 ar  
    37   17   39 1   
    38   18   19 ar  
    39   18   40 1   
    40   19   41 1   
    41   20   21 2   
    42   20   22 1   
    43   22   23 1   
    44   23   42 1   
    45   23   43 1   
    46   23   44 1   
@<TRIPOS>SUBSTRUCTURE
     1 TGN         1 TEMP              0 ****  ****    0 ROOT
