@<TRIPOS>MOLECULE
TGN
   44    46     1     0     0
SMALL
bcc


@<TRIPOS>ATOM
      1 C8         -0.1380    0.1220    0.1390 c3        1 TGN     -0.115700
      2 C10         1.3870   -0.0780    0.3040 c3        1 TGN      0.160500
      3 N12         1.7490    0.2440    1.7060 n3        1 TGN     -0.687600
      4 C14         3.0410   -0.2610    2.0970 c3        1 TGN      0.148100
      5 C18         2.1290    0.9580   -0.5890 c3        1 TGN     -0.108400
      6 C21         2.3320    2.1640    0.3340 c3        1 TGN     -0.112400
      7 C24         1.6740    1.7290    1.6760 c3        1 TGN      0.155500
      8 C26         0.1930    2.1370    1.6740 c3        1 TGN     -0.090400
      9 C29        -0.5210    1.5930    0.4270 c3        1 TGN      0.234100
     10 O1         -1.8970    1.7200    0.5600 os        1 TGN     -0.574200
     11 P2         -2.6190    2.7040   -0.5980 p5        1 TGN      1.388900
     12 O17        -2.2960    4.0880   -0.1830 o         1 TGN     -0.866000
     13 O3         -2.1360    2.1330   -1.8790 o         1 TGN     -0.866000
     14 C4         -4.2200    2.3590   -0.3440 ca        1 TGN     -0.334500
     15 C5         -4.8200    1.3090   -1.0280 ca        1 TGN     -0.042000
     16 C13        -4.9620    3.1340    0.5380 ca        1 TGN     -0.042000
     17 C7         -6.1710    1.0220   -0.8250 ca        1 TGN     -0.175000
     18 C9         -6.9140    1.7960    0.0670 ca        1 TGN     -0.116000
     19 C11        -6.3130    2.8560    0.7490 ca        1 TGN     -0.175000
     20 C6         -0.8610   -0.8960    0.9740 c         1 TGN      0.675100
     21 O7         -1.1320   -2.0590    0.6440 o         1 TGN     -0.604000
     22 O5         -1.2300   -0.5020    2.2280 os        1 TGN     -0.388900
     23 C1         -1.9840   -1.4390    2.9920 c3        1 TGN      0.128700
     24 H8         -0.4170   -0.0970   -0.9320 hc        1 TGN      0.103700
     25 H10         1.6670   -1.1310    0.0440 h1        1 TGN      0.060700
     26 H141        3.0160   -1.3820    2.0530 h1        1 TGN      0.022367
     27 H142        3.8910    0.1000    1.4540 h1        1 TGN      0.022367
     28 H143        3.2400    0.0540    3.1550 h1        1 TGN      0.022367
     29 H181        3.1070    0.5410   -0.9270 hc        1 TGN      0.050700
     30 H182        1.5260    1.2180   -1.4900 hc        1 TGN      0.050700
     31 H211        1.8440    3.0830   -0.0680 hc        1 TGN      0.046700
     32 H212        3.4180    2.3780    0.4820 hc        1 TGN      0.046700
     33 H24         2.2010    2.1720    2.5580 h1        1 TGN      0.047700
     34 H261       -0.3220    1.7400    2.5860 hc        1 TGN      0.066700
     35 H262        0.1160    3.2530    1.6810 hc        1 TGN      0.066700
     36 H29        -0.1770    2.1910   -0.4740 h1        1 TGN      0.042700
     37 H5         -4.1980    0.7320   -1.7340 ha        1 TGN      0.161000
     38 H13        -4.4490    3.9690    1.0450 ha        1 TGN      0.161000
     39 H7         -6.6480    0.1910   -1.3630 ha        1 TGN      0.112000
     40 H9         -7.9770    1.5720    0.2320 ha        1 TGN      0.104000
     41 H11        -6.9030    3.4650    1.4470 ha        1 TGN      0.112000
     42 H11A       -2.2190   -0.8850    3.9340 h1        1 TGN      0.036033
     43 H12        -2.9140   -1.7240    2.4460 h1        1 TGN      0.036033
     44 H13A       -1.3700   -2.3490    3.1980 h1        1 TGN      0.036033
@<TRIPOS>BOND
     1    1    2 1   
     2    1    9 1   
     3    1   20 1   
     4    1   24 1   
     5    2    3 1   
     6    2    5 1   
     7    2   25 1   
     8    3    4 1   
     9    3    7 1   
    10    4   26 1   
    11    4   27 1   
    12    4   28 1   
    13    5    6 1   
    14    5   29 1   
    15    5   30 1   
    16    6    7 1   
    17    6   31 1   
    18    6   32 1   
    19    7    8 1   
    20    7   33 1   
    21    8    9 1   
    22    8   34 1   
    23    8   35 1   
    24    9   10 1   
    25    9   36 1   
    26   10   11 1   
    27   11   12 1   
    28   11   13 1   
    29   11   14 1   
    30   14   15 ar  
    31   14   16 ar  
    32   15   17 ar  
    33   15   37 1   
    34   16   19 ar  
    35   16   38 1   
    36   17   18 ar  
    37   17   39 1   
    38   18   19 ar  
    39   18   40 1   
    40   19   41 1   
    41   20   21 2   
    42   20   22 1   
    43   22   23 1   
    44   23   42 1   
    45   23   43 1   
    46   23   44 1   
@<TRIPOS>SUBSTRUCTURE
     1 TGN         1 TEMP              0 ****  ****    0 ROOT
