@<TRIPOS>MOLECULE
TGN
   44    44     1     0     0
SMALL
bcc


@<TRIPOS>ATOM
      1 C8          1.0660    0.6780   -1.3160 c3        1 TGN     -0.151000
      2 C10         2.5660    0.6820   -1.2760 c3        1 TGN     -0.010000
      3 N12         3.1100    0.6200   -0.0770 n3        1 TGN     -0.266000
      4 C14         2.7280   -0.6000    0.5600 c3        1 TGN     -0.110000
      5 C18         3.0030    2.1040   -1.6820 c3        1 TGN     -0.155000
      6 C21         3.1640    2.8110   -0.2350 c3        1 TGN     -0.156000
      7 C24         2.8040    1.6520    0.7090 c3        1 TGN     -0.027000
      8 C26         1.3400    1.8210    1.0430 c3        1 TGN     -0.210000
      9 C29         0.3670    1.3060   -0.0370 c3        1 TGN      0.119000
     10 O1         -0.4570    0.3440    0.5360 os        1 TGN     -0.742000
     11 P2         -1.9020    0.8130    1.1130 p5        1 TGN      2.014000
     12 O17        -1.7120    1.5530    2.4140 o         1 TGN     -0.863000
     13 O3         -2.5760    1.7340    0.0990 o         1 TGN     -0.863000
     14 C4         -2.9430   -0.6450    1.3940 c2        1 TGN     -0.726000
     15 C5         -2.9640   -1.2510    2.6460 c2        1 TGN     -0.040000
     16 C13        -3.8000   -1.0930    0.3900 c1        1 TGN     -0.043000
     17 C7         -3.8390   -2.3030    2.8950 c1        1 TGN     -0.175000
     18 C9         -4.6920   -2.7480    1.8930 c1        1 TGN     -0.145500
     19 C11        -4.6710   -2.1410    0.6380 c1        1 TGN     -0.145500
     20 C6          0.5940   -0.7600   -1.4700 c2        1 TGN      0.347000
     21 O7         -0.0160   -1.3130   -0.5460 o         1 TGN     -0.376000
     22 O5          0.9360   -1.5060   -2.6540 os        1 TGN     -0.284000
     23 C1         -0.1780   -2.1750   -3.2600 c3        1 TGN     -0.059000
     24 H8          0.7830    1.1770   -2.0910 hc        1 TGN      0.138000
     25 H10         2.9420    0.0150   -1.8720 h1        1 TGN      0.094000
     26 H141        1.8530   -0.4880    0.9810 h1        1 TGN      0.073333
     27 H142        2.6800   -1.3290   -0.1180 h1        1 TGN      0.073333
     28 H143        3.3970   -0.8340    1.2480 h1        1 TGN      0.073333
     29 H181        3.8820    2.0860   -2.1740 hc        1 TGN      0.086500
     30 H182        2.3110    2.5430   -2.2110 hc        1 TGN      0.086500
     31 H211        2.5240    3.5640   -0.1340 hc        1 TGN      0.084000
     32 H212        4.0960    3.1120   -0.0880 hc        1 TGN      0.084000
     33 H24         3.3570    1.6660    1.5100 h1        1 TGN      0.091000
     34 H261        1.1660    2.7720    1.1860 hc        1 TGN      0.103000
     35 H262        1.1540    1.3370    1.8860 hc        1 TGN      0.103000
     36 H29        -0.1990    2.0640   -0.3330 h1        1 TGN      0.098000
     37 H5         -2.3440   -0.9270    3.3740 ha        1 TGN      0.160000
     38 H13        -3.7860   -0.6610   -0.5040 ha        1 TGN      0.162000
     39 H7         -3.8550   -2.7330    3.7830 ha        1 TGN      0.112000
     40 H9         -5.3230   -3.5050    2.0710 ha        1 TGN      0.107500
     41 H11        -5.2790   -2.4590   -0.0750 ha        1 TGN      0.107500
     42 H11A       -0.6900   -2.6340   -2.5760 h1        1 TGN      0.077000
     43 H12        -0.7540   -1.5110   -3.7120 h1        1 TGN      0.077000
     44 H13A        0.1540   -2.8360   -3.9270 h1        1 TGN      0.077000
@<TRIPOS>BOND
     1    1    2 1   
     2    1    9 1   
     3    1   20 1   
     4    1   24 1   
     5    2    3 1   
     6    2    5 1   
     7    2   25 1   
     8    3    4 1   
     9    3    7 1   
    10    4   26 1   
    11    4   27 1   
    12    4   28 1   
    13    5    6 1   
    14    5   29 1   
    15    5   30 1   
    16    6    7 1   
    17    6   31 1   
    18    6   32 1   
    19    7    8 1   
    20    7   33 1   
    21    8    9 1   
    22    8   34 1   
    23    8   35 1   
    24    9   10 1   
    25    9   36 1   
    26   10   11 1   
    27   11   12 1   
    28   11   13 1   
    29   11   14 1   
    30   14   15 1   
    31   14   16 1   
    32   15   17 1   
    33   15   37 1   
    34   16   38 1   
    35   17   39 1   
    36   18   19 1   
    37   18   40 1   
    38   19   41 1   
    39   20   21 1   
    40   20   22 1   
    41   22   23 1   
    42   23   42 1   
    43   23   43 1   
    44   23   44 1   
@<TRIPOS>SUBSTRUCTURE
     1 TGN         1 TEMP              0 ****  ****    0 ROOT
