@<TRIPOS>MOLECULE
TGN
   44    46     1     0     0
SMALL
bcc


@<TRIPOS>ATOM
      1 C8         -1.5610    0.2770   -0.7580 c3        1 TGN     -0.115700
      2 C10        -3.0710   -0.0480   -0.6790 c3        1 TGN      0.160500
      3 N12        -3.4870    0.0190    0.7430 n3        1 TGN     -0.687600
      4 C14        -4.9150    0.1200    0.9190 c3        1 TGN      0.148100
      5 C18        -3.2920   -1.5210   -1.1300 c3        1 TGN     -0.108400
      6 C21        -3.1970   -2.3260    0.1700 c3        1 TGN     -0.112400
      7 C24        -2.9120   -1.2510    1.2600 c3        1 TGN      0.155500
      8 C26        -1.3940   -1.0660    1.4090 c3        1 TGN     -0.090400
      9 C29        -0.7450   -0.7600    0.0510 c3        1 TGN      0.234100
     10 O1          0.5620   -0.3250    0.2220 os        1 TGN     -0.574200
     11 P2          1.7230   -1.3100   -0.4930 p5        1 TGN      1.388900
     12 O17         1.8400   -2.4820    0.4040 o         1 TGN     -0.866000
     13 O3          1.2490   -1.4330   -1.8930 o         1 TGN     -0.866000
     14 C4          3.0620   -0.3380   -0.3890 ca        1 TGN     -0.334500
     15 C5          3.3530    0.5540   -1.4130 ca        1 TGN     -0.042500
     16 C13         3.8990   -0.4320    0.7160 ca        1 TGN     -0.042500
     17 C7          4.4850    1.3670   -1.3340 ca        1 TGN     -0.175000
     18 C9          5.3210    1.2770   -0.2200 ca        1 TGN     -0.116000
     19 C11         5.0330    0.3760    0.8060 ca        1 TGN     -0.175000
     20 C6         -1.3440    1.7060   -0.3540 c         1 TGN      0.675100
     21 O7         -1.4400    2.7010   -1.0870 o         1 TGN     -0.604000
     22 O5         -1.0360    1.9280    0.9580 os        1 TGN     -0.388900
     23 C1         -0.7530    3.2750    1.3260 c3        1 TGN      0.128700
     24 H8         -1.2300    0.2020   -1.8340 hc        1 TGN      0.103700
     25 H10        -3.6530    0.6730   -1.3080 h1        1 TGN      0.060700
     26 H141       -5.4980   -0.7210    0.4530 h1        1 TGN      0.022367
     27 H142       -5.1360    0.1350    2.0190 h1        1 TGN      0.022367
     28 H143       -5.2640    1.0850    0.4670 h1        1 TGN      0.022367
     29 H181       -2.5210   -1.8350   -1.8730 hc        1 TGN      0.050700
     30 H182       -4.2980   -1.6310   -1.6000 hc        1 TGN      0.050700
     31 H211       -2.3780   -3.0820    0.1340 hc        1 TGN      0.046700
     32 H212       -4.1560   -2.8550    0.3850 hc        1 TGN      0.046700
     33 H24        -3.3720   -1.5260    2.2420 h1        1 TGN      0.047700
     34 H261       -0.9460   -2.0020    1.8260 hc        1 TGN      0.066700
     35 H262       -1.1720   -0.2230    2.1130 hc        1 TGN      0.066700
     36 H29        -0.7420   -1.7120   -0.5690 h1        1 TGN      0.042700
     37 H5          2.6710    0.5820   -2.2800 ha        1 TGN      0.161000
     38 H13         3.6380   -1.1670    1.4970 ha        1 TGN      0.161000
     39 H7          4.7170    2.0740   -2.1410 ha        1 TGN      0.112000
     40 H9          6.2130    1.9170   -0.1520 ha        1 TGN      0.104000
     41 H11         5.6970    0.3050    1.6790 ha        1 TGN      0.112000
     42 H11A        0.0910    3.6740    0.7140 h1        1 TGN      0.036033
     43 H12        -1.6600    3.9100    1.1830 h1        1 TGN      0.036033
     44 H13A       -0.4730    3.2020    2.4060 h1        1 TGN      0.036033
@<TRIPOS>BOND
     1    1    2 1   
     2    1    9 1   
     3    1   20 1   
     4    1   24 1   
     5    2    3 1   
     6    2    5 1   
     7    2   25 1   
     8    3    4 1   
     9    3    7 1   
    10    4   26 1   
    11    4   27 1   
    12    4   28 1   
    13    5    6 1   
    14    5   29 1   
    15    5   30 1   
    16    6    7 1   
    17    6   31 1   
    18    6   32 1   
    19    7    8 1   
    20    7   33 1   
    21    8    9 1   
    22    8   34 1   
    23    8   35 1   
    24    9   10 1   
    25    9   36 1   
    26   10   11 1   
    27   11   12 1   
    28   11   13 1   
    29   11   14 1   
    30   14   15 ar  
    31   14   16 ar  
    32   15   17 ar  
    33   15   37 1   
    34   16   19 ar  
    35   16   38 1   
    36   17   18 ar  
    37   17   39 1   
    38   18   19 ar  
    39   18   40 1   
    40   19   41 1   
    41   20   21 2   
    42   20   22 1   
    43   22   23 1   
    44   23   42 1   
    45   23   43 1   
    46   23   44 1   
@<TRIPOS>SUBSTRUCTURE
     1 TGN         1 TEMP              0 ****  ****    0 ROOT
