@<TRIPOS>MOLECULE
TGP
   35    36     1     0     0
SMALL
bcc


@<TRIPOS>ATOM
      1 S5'         0.8490    0.2450   -3.6050 s         1 TGP     -0.756000
      2 N9          1.9880    1.8060   -0.2510 na        1 TGP     -0.159000
      3 C4          1.9790    2.8440    0.6860 c2        1 TGP     -0.044000
      4 N3          2.2890    2.8200    2.0370 n2        1 TGP     -0.191000
      5 C2          2.1890    4.0030    2.6590 c2        1 TGP      0.118000
      6 N2          2.5520    4.1140    4.0550 nh        1 TGP     -0.301000
      7 N1          1.7650    5.1990    2.0450 n         1 TGP     -0.333000
      8 C6          1.4420    5.2750    0.6650 c2        1 TGP      0.386000
      9 O6          1.1020    6.3930    0.2350 o         1 TGP     -0.379000
     10 C5          1.5510    4.0170   -0.0420 c2        1 TGP     -0.198000
     11 N7          1.3210    3.6950   -1.3770 n2        1 TGP     -0.136000
     12 C8          1.5880    2.3710   -1.4860 c2        1 TGP     -0.044000
     13 C2'         1.5060   -0.3850    0.9330 c3        1 TGP     -0.220000
     14 C5'         0.3580   -0.5480   -2.1090 c3        1 TGP     -0.140000
     15 C4'         1.5210   -1.1830   -1.3710 c3        1 TGP     -0.040000
     16 O4'         2.6310   -0.2840   -1.1690 os        1 TGP     -0.218000
     17 C1'         2.4490    0.4560    0.0310 c3        1 TGP      0.152000
     18 C3'         1.0890   -1.5830    0.0610 c3        1 TGP     -0.005000
     19 O3'         1.7130   -2.7670    0.5260 oh        1 TGP     -0.353000
     20 OP3         3.0070   -0.7370   -5.7150 o         1 TGP     -1.179667
     21 P           1.8850   -1.5000   -5.1140 p3        1 TGP      2.492000
     22 OP1         2.1940   -2.4600   -4.0100 o         1 TGP     -1.179667
     23 OP2         0.7420   -1.8490   -5.9950 o         1 TGP     -1.179667
     24 H21         1.7210    4.1680    4.6130 hn        1 TGP      0.168000
     25 H22         3.0970    3.3220    4.3400 hn        1 TGP      0.168000
     26 H1          1.7710    6.0460    2.5660 hn        1 TGP      0.232000
     27 H8          1.4730    1.6910   -2.4560 h5        1 TGP      0.347000
     28 H2'         0.6100    0.1910    1.2620 hc        1 TGP      0.094000
     29 H2''        2.0630   -0.7260    1.8370 hc        1 TGP      0.094000
     30 H5'        -0.1410    0.2120   -1.4600 h1        1 TGP      0.068500
     31 H5''       -0.3810   -1.3530   -2.3450 h1        1 TGP      0.068500
     32 H4'         1.9630   -2.0240   -1.9980 h1        1 TGP      0.239000
     33 H1'         3.4780    0.5500    0.4920 h2        1 TGP      0.107000
     34 H3'        -0.0110   -1.7820    0.1300 h1        1 TGP      0.107000
     35 HO3'        2.5180   -2.8900    0.0050 ho        1 TGP      0.215000
@<TRIPOS>BOND
     1    1   14 1   
     2    2    3 1   
     3    2   12 1   
     4    2   17 1   
     5    3    4 1   
     6    3   10 1   
     7    4    5 1   
     8    5    6 1   
     9    5    7 1   
    10    6   24 1   
    11    6   25 1   
    12    7    8 1   
    13    7   26 1   
    14    8    9 1   
    15    8   10 1   
    16   10   11 1   
    17   11   12 1   
    18   12   27 1   
    19   13   17 1   
    20   13   18 1   
    21   13   28 1   
    22   13   29 1   
    23   14   15 1   
    24   14   30 1   
    25   14   31 1   
    26   15   16 1   
    27   15   18 1   
    28   15   32 1   
    29   16   17 1   
    30   17   33 1   
    31   18   19 1   
    32   18   34 1   
    33   19   35 1   
    34   20   21 1   
    35   21   22 1   
    36   21   23 1   
@<TRIPOS>SUBSTRUCTURE
     1 TGP         1 TEMP              0 ****  ****    0 ROOT
