@<TRIPOS>MOLECULE
TGT
   40    41     1     0     0
SMALL
bcc


@<TRIPOS>ATOM
      1 C1         -0.9000   -0.0350    0.1230 c3        1 TGT      0.236100
      2 C2          0.1510    0.8250   -0.6910 c3        1 TGT      0.079500
      3 C3          1.4190    1.0470    0.1600 c3        1 TGT      0.165100
      4 C4          1.9760   -0.2580    0.7420 c3        1 TGT      0.110100
      5 C5          2.8370   -1.1330   -0.2090 c3        1 TGT      0.173900
      6 C6          0.2190   -2.1490   -0.7570 c3        1 TGT      0.016700
      7 C7         -0.1720   -1.3670    0.4910 c3        1 TGT      0.012800
      8 C8          4.0580   -0.4390   -0.8260 c         1 TGT      0.688100
      9 C9         -0.9610   -2.3230    1.4860 c         1 TGT      0.962600
     10 C11        -0.5170    3.4940    1.8080 c3        1 TGT     -0.213100
     11 O1          0.9900   -1.0920    1.3040 os        1 TGT     -0.395600
     12 O2          3.4050   -2.1700    0.5910 oh        1 TGT     -0.614800
     13 O3          4.6610   -0.8700   -1.8300 o         1 TGT     -0.628100
     14 O4         -1.0770   -3.5410    1.1580 o         1 TGT     -0.837300
     15 O5         -1.3250   -1.8590    2.5940 o         1 TGT     -0.837300
     16 O6         -2.0160   -0.2670   -0.6330 os        1 TGT     -0.563200
     17 O7         -3.2210    1.4400   -1.9380 o         1 TGT     -0.932833
     18 O8         -2.8640    1.8430    0.4910 o         1 TGT     -0.932833
     19 O9         -4.5970    0.0830   -0.2590 o         1 TGT     -0.932833
     20 O10         1.1500    1.8350    1.3370 os        1 TGT     -0.474900
     21 O11         1.5730    3.8850    0.5730 o         1 TGT     -0.614000
     22 N1          4.5880    0.6620   -0.1730 n         1 TGT     -0.654000
     23 N2         -0.3260    2.1020   -1.1970 n3        1 TGT     -0.935800
     24 P1         -3.3520    0.8590   -0.5540 p5        1 TGT      1.339900
     25 S1          1.8190   -1.8290   -1.5360 ss        1 TGT     -0.423200
     26 H1         -1.1590    0.5100    1.0760 h1        1 TGT      0.084700
     27 H2          0.4820    0.1960   -1.5720 h1        1 TGT      0.047700
     28 H3          2.1900    1.5910   -0.4520 h1        1 TGT      0.017700
     29 H4          2.6210   -0.0030    1.6400 h1        1 TGT      0.056700
     30 H61         0.2110   -3.2450   -0.5360 h1        1 TGT      0.104200
     31 H62        -0.5380   -1.9190   -1.5510 h1        1 TGT      0.104200
     32 H111       -0.6900    4.5920    1.7670 hc        1 TGT      0.099033
     33 H112       -1.3750    2.9400    1.2840 hc        1 TGT      0.099033
     34 H113       -0.5090    3.1370    2.8650 hc        1 TGT      0.099033
     35 HO2         2.6570   -2.5870    1.0510 ho        1 TGT      0.443000
     36 HN11        4.0230    1.1450    0.4860 hn        1 TGT      0.293500
     37 HN12        5.2310    1.2180   -0.6820 hn        1 TGT      0.293500
     38 HN21       -0.5490    1.9980   -2.1700 hn        1 TGT      0.379300
     39 HN22       -1.2050    2.3260   -0.7330 hn        1 TGT      0.379300
     40 C10         0.7620    3.1450    1.1460 c         1 TGT      0.702100
@<TRIPOS>BOND
     1    1    2 1   
     2    1    7 1   
     3    1   16 1   
     4    1   26 1   
     5    2    3 1   
     6    2   23 1   
     7    2   27 1   
     8    3    4 1   
     9    3   20 1   
    10    3   28 1   
    11    4    5 1   
    12    4   11 1   
    13    4   29 1   
    14    5    8 1   
    15    5   12 1   
    16    5   25 1   
    17    6    7 1   
    18    6   25 1   
    19    6   30 1   
    20    6   31 1   
    21    7    9 1   
    22    7   11 1   
    23    8   13 2   
    24    8   22 1   
    25    9   14 1   
    26    9   15 1   
    27   10   32 1   
    28   10   33 1   
    29   10   34 1   
    30   10   40 1   
    31   12   35 1   
    32   16   24 1   
    33   17   24 1   
    34   18   24 1   
    35   19   24 1   
    36   20   40 1   
    37   21   40 2   
    38   22   36 1   
    39   22   37 1   
    40   23   38 1   
    41   23   39 1   
@<TRIPOS>SUBSTRUCTURE
     1 TGT         1 TEMP              0 ****  ****    0 ROOT
