@<TRIPOS>MOLECULE
TGT
   42    42     1     0     0
SMALL
bcc


@<TRIPOS>ATOM
      1 C1          0.2780   -0.1310   -0.0550 c2        1 TGT      0.379000
      2 C2          1.7710    0.1720    0.0710 c3        1 TGT     -0.111000
      3 C3          2.2480    0.1370    1.5420 c3        1 TGT      0.031000
      4 C4          1.5970   -0.9850    2.3620 c3        1 TGT     -0.013000
      5 C5          2.1410   -2.4140    2.1540 c3        1 TGT     -0.031000
      6 C6          0.1000   -2.5700    0.3110 c3        1 TGT     -0.268000
      7 C7         -0.2660   -1.2030    0.8620 c3        1 TGT     -0.102000
      8 C8          3.6480   -2.5520    2.4040 c2        1 TGT      0.331000
      9 C9         -1.8850   -1.1490    1.0300 c2        1 TGT      0.393000
     10 C11         2.0400    3.6240    2.8020 c3        1 TGT     -0.218000
     11 O1          0.1860   -1.0130    2.1970 os        1 TGT     -0.209000
     12 O2          1.5170   -3.2640    3.1010 oh        1 TGT     -0.317000
     13 O3          4.3590   -1.5860    2.7430 o         1 TGT     -0.375000
     14 O4         -2.3890   -2.2040    1.4700 o         1 TGT     -0.500500
     15 O5         -2.4220   -0.0740    0.7070 o         1 TGT     -0.500500
     16 O6         -0.3980    0.3710   -0.9750 os        1 TGT     -0.463000
     17 O7          0.0860    1.7740   -2.8530 oh        1 TGT     -0.795000
     18 O8         -2.2940    2.1010   -2.4220 o         1 TGT     -0.722500
     19 O9         -1.3700   -0.2290   -3.3870 o         1 TGT     -0.722500
     20 O10         1.8440    1.3370    2.2250 os        1 TGT     -0.249000
     21 O11         3.7860    2.3260    1.6640 o         1 TGT     -0.375000
     22 N1          4.1860   -3.7990    2.2310 n         1 TGT     -0.411000
     23 N2          2.1710    1.3960   -0.5940 n3        1 TGT     -0.357000
     24 P1         -1.3370    1.0500   -2.7070 p5        1 TGT      1.930000
     25 S1          1.8260   -3.0000    0.4580 ss        1 TGT     -0.042000
     26 H1         -0.7630    1.2670    1.8130 ha        1 TGT      0.001500
     27 H2         -0.5390    1.8350    2.1120 ha        1 TGT      0.001500
     28 H3          2.2490   -0.7540   -0.4090 h1        1 TGT      0.115000
     29 H4          3.3710    0.0440    1.5740 h1        1 TGT      0.148000
     30 H61        -0.5180   -3.3330    0.8550 h1        1 TGT      0.155000
     31 H62        -0.1440   -2.6290   -0.7780 h1        1 TGT      0.155000
     32 H111        0.9260    3.5230    2.8040 hc        1 TGT      0.113667
     33 H112        2.3370    4.5340    2.2270 hc        1 TGT      0.113667
     34 H113        2.4060    3.7120    3.8530 hc        1 TGT      0.113667
     35 HO2         0.5650   -3.0590    3.0920 ho        1 TGT      0.250000
     36 HN11        3.5970   -4.5700    2.0370 hn        1 TGT      0.233000
     37 HN12        5.1430   -3.9510    2.4300 hn        1 TGT      0.233000
     38 HN21        3.1540    1.5470   -0.4740 hn        1 TGT      0.171500
     39 HN22        0.1740    2.5750   -2.3420 ho        1 TGT      0.265000
     40 C10         2.6660    2.4260    2.1710 c2        1 TGT      0.326000
     41 H13         1.7260   -0.7320    3.4590 h1        1 TGT      0.154000
     42 H23         1.9320    1.3610   -1.5650 hn        1 TGT      0.171500
@<TRIPOS>BOND
     1    1    2 1   
     2    1    7 1   
     3    1   16 1   
     4    2    3 1   
     5    2   23 1   
     6    2   28 1   
     7    3    4 1   
     8    3   20 1   
     9    3   29 1   
    10    4    5 1   
    11    4   11 1   
    12    4   41 1   
    13    5    8 1   
    14    5   12 1   
    15    5   25 1   
    16    6    7 1   
    17    6   25 1   
    18    6   30 1   
    19    6   31 1   
    20    7    9 1   
    21    7   11 1   
    22    8   13 1   
    23    8   22 1   
    24    9   14 1   
    25    9   15 1   
    26   10   32 1   
    27   10   33 1   
    28   10   34 1   
    29   10   40 1   
    30   12   35 1   
    31   16   24 1   
    32   17   24 1   
    33   17   39 1   
    34   18   24 1   
    35   19   24 1   
    36   20   40 1   
    37   21   40 1   
    38   22   36 1   
    39   22   37 1   
    40   23   38 1   
    41   23   42 1   
    42   26   27 1   
@<TRIPOS>SUBSTRUCTURE
     1 TGT         1 TEMP              0 ****  ****    0 ROOT
