@<TRIPOS>MOLECULE
TGT
   42    41     1     0     0
SMALL
bcc


@<TRIPOS>ATOM
      1 C1          0.6250   -0.1690    0.0990 c2        1 TGT      0.385000
      2 C2          2.0840    0.2470    0.2690 c3        1 TGT     -0.126000
      3 C3          2.3960    0.4220    1.7780 c3        1 TGT     -0.034000
      4 C4          1.9740   -0.8250    2.5150 c1        1 TGT     -0.044000
      5 C5          1.8960   -3.8570    0.9690 c2        1 TGT     -0.474000
      6 C6         -0.3260   -2.4720    0.3730 c3        1 TGT     -0.285000
      7 C7          0.0660   -1.1750    1.0540 c3        1 TGT     -0.165000
      8 C8          3.1100   -3.2200    1.1910 c2        1 TGT      0.268000
      9 C9         -1.2460   -0.5670    1.8120 c2        1 TGT      0.376000
     10 C11         1.3740    3.8420    2.7450 c3        1 TGT     -0.219000
     11 O1          0.9780   -1.5240    2.1420 os        1 TGT     -0.041000
     12 O2          1.4250   -4.6960    1.9740 oh        1 TGT     -0.278000
     13 O3          3.9430   -2.6410    0.4640 o         1 TGT     -0.412000
     14 O4         -0.9980   -0.0600    2.9240 o         1 TGT     -0.486500
     15 O5         -2.3200   -0.7060    1.2000 o         1 TGT     -0.486500
     16 O6         -0.0710    0.2700   -0.8450 os        1 TGT     -0.491000
     17 O7          0.5090    1.6670   -2.8180 oh        1 TGT     -0.794000
     18 O8         -1.7310    2.1950   -2.0150 o         1 TGT     -0.722500
     19 O9         -1.2360   -0.1270   -3.2660 o         1 TGT     -0.722500
     20 O10         1.6860    1.5330    2.3220 os        1 TGT     -0.218000
     21 O11         3.4750    2.8410    1.9490 o         1 TGT     -0.386000
     22 N1          3.5700   -3.2030    2.6690 nz        1 TGT     -0.165000
     23 N2          2.4460    1.4230   -0.4930 n8        1 TGT     -0.352000
     24 P1         -0.9510    1.0810   -2.5190 p5        1 TGT      1.921000
     25 S1          0.9300   -3.5030   -0.3550 ss        1 TGT      0.228000
     26 H1         -0.6760    1.8330    1.3700 ha        1 TGT      0.000500
     27 H2         -0.4890    2.4840    1.4080 ha        1 TGT      0.000500
     28 H3          2.6690   -0.6810   -0.0600 h1        1 TGT      0.133000
     29 H4          3.5060    0.5610    1.9180 h1        1 TGT      0.132000
     30 H61        -0.9100   -3.0720    1.1150 h1        1 TGT      0.143000
     31 H62        -1.0160   -2.2100   -0.4730 h1        1 TGT      0.143000
     32 H111        0.9180    4.3100    1.8360 hc        1 TGT      0.119333
     33 H112        1.9500    4.6080    3.3140 hc        1 TGT      0.119333
     34 H113        0.5520    3.4220    3.3770 hc        1 TGT      0.119333
     35 HO2         0.6800   -4.2250    2.3820 ho        1 TGT      0.185000
     36 HN11        3.2680   -4.0550    3.1330 hn        1 TGT      0.232333
     37 HN12        4.5750   -3.0950    2.7300 hn        1 TGT      0.232333
     38 HN21        3.3590    1.7370   -0.2300 hn        1 TGT      0.171000
     39 HN22        0.7150    2.4620   -2.3320 ho        1 TGT      0.265000
     40 C10         2.2940    2.7590    2.2990 c2        1 TGT      0.324000
     41 H13         3.0950   -2.3810    3.0970 hn        1 TGT      0.232333
     42 H23         2.4060    1.2280   -1.4750 hn        1 TGT      0.171000
@<TRIPOS>BOND
     1    1    2 1   
     2    1    7 1   
     3    1   16 1   
     4    2    3 1   
     5    2   23 1   
     6    2   28 1   
     7    3    4 1   
     8    3   20 1   
     9    3   29 1   
    10    4   11 1   
    11    5    8 1   
    12    5   12 1   
    13    5   25 1   
    14    6    7 1   
    15    6   25 1   
    16    6   30 1   
    17    6   31 1   
    18    7    9 1   
    19    7   11 1   
    20    8   13 1   
    21    8   22 1   
    22    9   14 1   
    23    9   15 1   
    24   10   32 1   
    25   10   33 1   
    26   10   34 1   
    27   10   40 1   
    28   12   35 1   
    29   16   24 1   
    30   17   24 1   
    31   17   39 1   
    32   18   24 1   
    33   19   24 1   
    34   20   40 1   
    35   21   40 1   
    36   22   36 1   
    37   22   37 1   
    38   22   41 1   
    39   23   38 1   
    40   23   42 1   
    41   26   27 1   
@<TRIPOS>SUBSTRUCTURE
     1 TGT         1 TEMP              0 ****  ****    0 ROOT
