@<TRIPOS>MOLECULE
TGW
   31    33     1     0     0
SMALL
bcc


@<TRIPOS>ATOM
      1 Cl1        -0.0040    1.3550   -0.2700 cl        1 TGW     -0.084400
      2 CAB         1.6020    0.8050   -0.1340 ca        1 TGW      0.033400
      3 CAC         2.3620    1.2740    0.9420 ca        1 TGW     -0.121000
      4 CAD         3.6760    0.8270    1.0980 ca        1 TGW      0.031400
      5 Cl2         4.6060    1.3930    2.4000 cl        1 TGW     -0.075400
      6 CAF         4.2250   -0.0870    0.1930 ca        1 TGW     -0.123000
      7 CAG         3.4570   -0.5420   -0.8750 ca        1 TGW     -0.093000
      8 CAH         2.1460   -0.0960   -1.0630 ca        1 TGW     -0.145300
      9 CAI         1.2880   -0.5840   -2.2400 c3        1 TGW      0.440200
     10 NAJ         0.3980   -1.6480   -1.8080 ns        1 TGW     -0.573900
     11 CAK         0.6600   -2.9830   -2.0660 c         1 TGW      0.728100
     12 OAL        -0.0660   -3.8640   -1.5630 o         1 TGW     -0.636500
     13 CAM         1.7930   -3.2820   -2.9660 ca        1 TGW     -0.309900
     14 CAN         2.1680   -4.6060   -3.2050 ca        1 TGW     -0.004000
     15 CAO         3.2440   -4.8680   -4.0480 ca        1 TGW     -0.303300
     16 CAP         3.9140   -3.7720   -4.6220 ca        1 TGW      0.455200
     17 NAQ         3.5910   -2.4880   -4.4200 nb        1 TGW     -0.728000
     18 CAR         2.5150   -2.2210   -3.6060 ca        1 TGW      0.670200
     19 NAS         2.0550   -0.9000   -3.4530 nh        1 TGW     -0.757300
     20 CAT         2.8170    0.1920   -4.0030 c3        1 TGW      0.197100
     21 HAC         1.9260    1.9860    1.6610 ha        1 TGW      0.166000
     22 HAF         5.2570   -0.4480    0.3230 ha        1 TGW      0.156000
     23 HAG         3.9010   -1.2710   -1.5730 ha        1 TGW      0.153000
     24 HAI         0.6220    0.2920   -2.5510 h2        1 TGW      0.085700
     25 HAJ        -0.2880   -1.4040   -1.1320 hn        1 TGW      0.338500
     26 HAN         1.6010   -5.4190   -2.7200 ha        1 TGW      0.167000
     27 HAO         3.5650   -5.8940   -4.2640 ha        1 TGW      0.151000
     28 HAP         4.7820   -3.9300   -5.2900 h4        1 TGW      0.025100
     29 HAT1        3.8060    0.3200   -3.4860 h1        1 TGW      0.052033
     30 HAT2        2.2250    1.1400   -3.8960 h1        1 TGW      0.052033
     31 HAT3        2.9970   -0.0000   -5.0940 h1        1 TGW      0.052033
@<TRIPOS>BOND
     1    1    2 1   
     2    2    3 ar  
     3    2    8 ar  
     4    3    4 ar  
     5    3   21 1   
     6    4    5 1   
     7    4    6 ar  
     8    6    7 ar  
     9    6   22 1   
    10    7    8 ar  
    11    7   23 1   
    12    8    9 1   
    13    9   10 1   
    14    9   19 1   
    15    9   24 1   
    16   10   11 1   
    17   10   25 1   
    18   11   12 2   
    19   11   13 1   
    20   13   14 ar  
    21   13   18 ar  
    22   14   15 ar  
    23   14   26 1   
    24   15   16 ar  
    25   15   27 1   
    26   16   17 ar  
    27   16   28 1   
    28   17   18 ar  
    29   18   19 1   
    30   19   20 1   
    31   20   29 1   
    32   20   30 1   
    33   20   31 1   
@<TRIPOS>SUBSTRUCTURE
     1 TGW         1 TEMP              0 ****  ****    0 ROOT
