@<TRIPOS>MOLECULE
TGW
   31    33     1     0     0
SMALL
bcc


@<TRIPOS>ATOM
      1 CL1        -0.0050    1.3800   -0.3110 cl        1 TGW     -0.084400
      2 CAB         1.6020    0.8350   -0.1690 ca        1 TGW      0.033400
      3 CAC         2.3620    1.3240    0.8970 ca        1 TGW     -0.121000
      4 CAD         3.6780    0.8810    1.0590 ca        1 TGW      0.031400
      5 CL2         4.6090    1.4720    2.3490 cl        1 TGW     -0.075400
      6 CAF         4.2270   -0.0470    0.1690 ca        1 TGW     -0.123000
      7 CAG         3.4570   -0.5220   -0.8900 ca        1 TGW     -0.093000
      8 CAH         2.1450   -0.0810   -1.0840 ca        1 TGW     -0.145300
      9 CAI         1.2860   -0.5910   -2.2500 c3        1 TGW      0.440200
     10 NAJ         0.3990   -1.6490   -1.7990 n         1 TGW     -0.573900
     11 CAK         0.6630   -2.9880   -2.0350 c         1 TGW      0.728100
     12 OAL        -0.0600   -3.8610   -1.5150 o         1 TGW     -0.636500
     13 CAM         1.7950   -3.2990   -2.9310 ca        1 TGW     -0.309900
     14 CAN         2.1720   -4.6270   -3.1480 ca        1 TGW     -0.004000
     15 CAO         3.2470   -4.9010   -3.9880 ca        1 TGW     -0.303300
     16 CAP         3.9150   -3.8140   -4.5820 ca        1 TGW      0.455200
     17 NAQ         3.5890   -2.5270   -4.4020 nb        1 TGW     -0.728000
     18 CAR         2.5140   -2.2480   -3.5900 ca        1 TGW      0.670200
     19 NAS         2.0520   -0.9260   -3.4590 nh        1 TGW     -0.757300
     20 CAT         2.8100    0.1580   -4.0290 c3        1 TGW      0.197100
     21 HAC         1.9270    2.0470    1.6050 ha        1 TGW      0.166000
     22 HAF         5.2600   -0.4040    0.3030 ha        1 TGW      0.156000
     23 HAG         3.9020   -1.2610   -1.5770 ha        1 TGW      0.153000
     24 HAI         0.6180    0.2790   -2.5750 h2        1 TGW      0.085700
     25 HAJ        -0.2870   -1.3950   -1.1260 hn        1 TGW      0.338500
     26 HAN         1.6080   -5.4330   -2.6480 ha        1 TGW      0.167000
     27 HAO         3.5700   -5.9300   -4.1870 ha        1 TGW      0.151000
     28 HAP         4.7820   -3.9820   -5.2490 h4        1 TGW      0.025100
     29 HAT1        3.8010    0.2970   -3.5160 h1        1 TGW      0.052033
     30 HAT2        2.2170    1.1070   -3.9370 h1        1 TGW      0.052033
     31 HAT3        2.9890   -0.0520   -5.1170 h1        1 TGW      0.052033
@<TRIPOS>BOND
     1    1    2 1   
     2    2    3 ar  
     3    2    8 ar  
     4    3    4 ar  
     5    3   21 1   
     6    4    5 1   
     7    4    6 ar  
     8    6    7 ar  
     9    6   22 1   
    10    7    8 ar  
    11    7   23 1   
    12    8    9 1   
    13    9   10 1   
    14    9   19 1   
    15    9   24 1   
    16   10   11 1   
    17   10   25 1   
    18   11   12 2   
    19   11   13 1   
    20   13   14 ar  
    21   13   18 ar  
    22   14   15 ar  
    23   14   26 1   
    24   15   16 ar  
    25   15   27 1   
    26   16   17 ar  
    27   16   28 1   
    28   17   18 ar  
    29   18   19 1   
    30   19   20 1   
    31   20   29 1   
    32   20   30 1   
    33   20   31 1   
@<TRIPOS>SUBSTRUCTURE
     1 TGW         1 TEMP              0 ****  ****    0 ROOT
