@<TRIPOS>MOLECULE
TGX
   21    22     1     0     0
SMALL
bcc


@<TRIPOS>ATOM
      1 O13        -0.0850   -0.0950    0.0270 o         1 TGX     -0.615500
      2 C11         1.1580   -0.0420    0.0280 c         1 TGX      0.709500
      3 C12         1.9520   -0.0860    1.3050 c3        1 TGX     -0.123300
      4 N10         1.8190    0.1010   -1.1840 ns        1 TGX     -0.471100
      5 C7          3.2080    0.0940   -1.3580 ca        1 TGX      0.068600
      6 C3          4.0810   -0.3120   -0.3230 ca        1 TGX     -0.059100
      7 C9          3.7590    0.4840   -2.6010 ca        1 TGX     -0.160000
      8 C5          5.1310    0.4490   -2.8010 ca        1 TGX     -0.099000
      9 C2          5.9970    0.0390   -1.7790 ca        1 TGX     -0.092300
     10 C6          7.4600    0.0180   -2.0050 c3        1 TGX     -0.051800
     11 C1          5.4600   -0.3290   -0.5460 ca        1 TGX     -0.082000
     12 S8          3.5290   -0.8470    1.1860 ss        1 TGX     -0.138000
     13 H121        1.3750   -0.6740    2.0670 h1        1 TGX      0.109200
     14 H122        2.0410    0.9650    1.6830 h1        1 TGX      0.109200
     15 H10         1.2570    0.1980   -2.0030 hn        1 TGX      0.335500
     16 H9          3.1000    0.8110   -3.4200 ha        1 TGX      0.138000
     17 H1          6.1290   -0.6430    0.2720 ha        1 TGX      0.145000
     18 H5          5.5450    0.7480   -3.7770 ha        1 TGX      0.137000
     19 H61C        7.8730    1.0560   -1.9390 hc        1 TGX      0.046033
     20 H62C        7.6960   -0.3870   -3.0210 hc        1 TGX      0.046033
     21 H63C        7.9790   -0.6150   -1.2440 hc        1 TGX      0.046033
@<TRIPOS>BOND
     1    1    2 2   
     2    2    3 1   
     3    2    4 1   
     4    3   12 1   
     5    3   13 1   
     6    3   14 1   
     7    4    5 1   
     8    4   15 1   
     9    5    6 ar  
    10    5    7 ar  
    11    6   11 ar  
    12    6   12 1   
    13    7    8 ar  
    14    7   16 1   
    15    8    9 ar  
    16    8   18 1   
    17    9   10 1   
    18    9   11 ar  
    19   10   19 1   
    20   10   20 1   
    21   10   21 1   
    22   11   17 1   
@<TRIPOS>SUBSTRUCTURE
     1 TGX         1 TEMP              0 ****  ****    0 ROOT
