@<TRIPOS>MOLECULE
TH0
   15    15     1     0     0
SMALL
bcc


@<TRIPOS>ATOM
      1 C1          2.9140   -1.6090    0.6510 ca        1 TH0     -0.267000
      2 C2          2.7730   -1.6410    2.0490 ca        1 TH0      0.219100
      3 O1          3.8220   -2.1830    2.7400 oh        1 TH0     -0.494100
      4 S1          1.4180   -1.2540    4.3650 sh        1 TH0     -0.301700
      5 C3          1.6160   -1.1390    2.6780 ca        1 TH0     -0.151100
      6 C4          0.5960   -0.6100    1.8750 ca        1 TH0     -0.016000
      7 C5          0.7080   -0.5640    0.4950 ca        1 TH0     -0.207000
      8 C6          1.8770   -1.0670   -0.1110 ca        1 TH0      0.188100
      9 O3          1.9320   -0.9950   -1.4800 oh        1 TH0     -0.490100
     10 H1          3.8260   -2.0070    0.1880 ha        1 TH0      0.156000
     11 HO1         3.5900   -2.1760    3.6890 ho        1 TH0      0.444000
     12 HS1         1.7340   -0.0130    4.7050 hs        1 TH0      0.189800
     13 H4         -0.3170   -0.2260    2.3600 ha        1 TH0      0.148000
     14 H5         -0.0920   -0.1480   -0.1330 ha        1 TH0      0.157000
     15 HO3         2.7750   -1.3760   -1.7700 ho        1 TH0      0.426000
@<TRIPOS>BOND
     1    1    2 ar  
     2    1    8 ar  
     3    1   10 1   
     4    2    3 1   
     5    2    5 ar  
     6    3   11 1   
     7    4    5 1   
     8    4   12 1   
     9    5    6 ar  
    10    6    7 ar  
    11    6   13 1   
    12    7    8 ar  
    13    7   14 1   
    14    8    9 1   
    15    9   15 1   
@<TRIPOS>SUBSTRUCTURE
     1 TH0         1 TEMP              0 ****  ****    0 ROOT
