@<TRIPOS>MOLECULE
TH0
   15    15     1     0     0
SMALL
bcc


@<TRIPOS>ATOM
      1 C1         -0.1050    0.1250    0.0670 ca        1 TH0     -0.267000
      2 C2          1.2910   -0.0210   -0.0010 ca        1 TH0      0.219100
      3 O1          1.8240   -0.0620   -1.2610 oh        1 TH0     -0.494100
      4 S1          3.7540   -0.3750    1.0750 sh        1 TH0     -0.301700
      5 C3          2.0740   -0.1170    1.1670 ca        1 TH0     -0.151100
      6 C4          1.4270   -0.0700    2.4090 ca        1 TH0     -0.016000
      7 C5          0.0530    0.0760    2.5090 ca        1 TH0     -0.207000
      8 C6         -0.7090    0.1740    1.3260 ca        1 TH0      0.188100
      9 O3         -2.0630    0.3180    1.4850 oh        1 TH0     -0.490100
     10 H1         -0.6900    0.1970   -0.8590 ha        1 TH0      0.156000
     11 HO1         2.7870   -0.1980   -1.1740 ho        1 TH0      0.444000
     12 HS1         4.1760    0.8620    1.2960 hs        1 TH0      0.189800
     13 H4          2.0330   -0.1560    3.3270 ha        1 TH0      0.148000
     14 H5         -0.4530    0.1130    3.4830 ha        1 TH0      0.157000
     15 HO3        -2.4690    0.3660    0.6060 ho        1 TH0      0.426000
@<TRIPOS>BOND
     1    1    2 ar  
     2    1    8 ar  
     3    1   10 1   
     4    2    3 1   
     5    2    5 ar  
     6    3   11 1   
     7    4    5 1   
     8    4   12 1   
     9    5    6 ar  
    10    6    7 ar  
    11    6   13 1   
    12    7    8 ar  
    13    7   14 1   
    14    8    9 1   
    15    9   15 1   
@<TRIPOS>SUBSTRUCTURE
     1 TH0         1 TEMP              0 ****  ****    0 ROOT
