@<TRIPOS>MOLECULE
TH1
   38    40     1     0     0
SMALL
bcc


@<TRIPOS>ATOM
      1 C1         -0.3320    0.0230    0.3040 c3        1 TH1      0.101800
      2 C2          1.0270   -0.6920    0.4340 c3        1 TH1      0.094100
      3 O2          0.8750   -2.0990    0.3640 oh        1 TH1     -0.604800
      4 C3          1.6120   -0.4060    1.8270 c3        1 TH1      0.105100
      5 O3          2.9310   -0.9110    1.9360 oh        1 TH1     -0.606800
      6 C4          1.7050    1.1130    2.0460 c3        1 TH1      0.123100
      7 O4          2.0760    1.4010    3.3820 oh        1 TH1     -0.595800
      8 C5          0.3280    1.7500    1.8110 c3        1 TH1      0.098100
      9 O5         -0.1530    1.4300    0.5020 os        1 TH1     -0.413600
     10 C6          0.4190    3.2790    1.8520 c3        1 TH1      0.141400
     11 O6         -0.8590    3.8680    1.7700 oh        1 TH1     -0.594800
     12 C7         -0.9600   -0.1310   -1.0480 cc        1 TH1      0.349200
     13 N1         -0.3060   -0.4400   -2.1570 nd        1 TH1     -0.527100
     14 C8         -1.2060   -0.5030   -3.2310 ca        1 TH1      0.084400
     15 C9         -0.8730   -0.8060   -4.5660 ca        1 TH1     -0.075000
     16 C10        -1.8770   -0.8320   -5.5250 ca        1 TH1     -0.074300
     17 C11        -3.2150   -0.5590   -5.1650 ca        1 TH1     -0.116000
     18 C12        -3.5620   -0.2590   -3.8610 ca        1 TH1     -0.087000
     19 C13        -2.5690   -0.2260   -2.8770 ca        1 TH1     -0.098100
     20 S1         -2.6710    0.1030   -1.2270 ss        1 TH1      0.008900
     21 C14        -1.5630   -1.1440   -6.9390 c3        1 TH1     -0.056800
     22 H1         -1.0400   -0.3810    1.0840 h1        1 TH1      0.067700
     23 H2          1.7370   -0.3280   -0.3580 h1        1 TH1      0.082700
     24 HO2         0.7100   -2.3230   -0.5600 ho        1 TH1      0.425000
     25 H3          0.9640   -0.8760    2.6190 h1        1 TH1      0.062700
     26 HO3         2.8850   -1.8500    1.7090 ho        1 TH1      0.427000
     27 H4          2.4640    1.5480    1.3370 h1        1 TH1      0.064700
     28 HO4         2.8930    0.9110    3.5490 ho        1 TH1      0.426000
     29 H5         -0.4040    1.3830    2.5830 h1        1 TH1      0.070700
     30 H61         1.0770    3.6450    1.0210 h1        1 TH1      0.066200
     31 H62         0.8330    3.5910    2.8480 h1        1 TH1      0.066200
     32 HO6        -1.2400    3.6020    0.9230 ho        1 TH1      0.410000
     33 H9          0.1740   -1.0140   -4.8360 ha        1 TH1      0.152000
     34 H11        -3.9900   -0.5870   -5.9470 ha        1 TH1      0.138000
     35 H12        -4.6080   -0.0460   -3.5950 ha        1 TH1      0.142000
     36 H141       -2.1410   -2.0410   -7.2750 hc        1 TH1      0.048033
     37 H142       -0.4740   -1.3540   -7.0790 hc        1 TH1      0.048033
     38 H143       -1.8430   -0.2830   -7.5960 hc        1 TH1      0.048033
@<TRIPOS>BOND
     1    1    2 1   
     2    1    9 1   
     3    1   12 1   
     4    1   22 1   
     5    2    3 1   
     6    2    4 1   
     7    2   23 1   
     8    3   24 1   
     9    4    5 1   
    10    4    6 1   
    11    4   25 1   
    12    5   26 1   
    13    6    7 1   
    14    6    8 1   
    15    6   27 1   
    16    7   28 1   
    17    8    9 1   
    18    8   10 1   
    19    8   29 1   
    20   10   11 1   
    21   10   30 1   
    22   10   31 1   
    23   11   32 1   
    24   12   13 2   
    25   12   20 1   
    26   13   14 1   
    27   14   15 ar  
    28   14   19 ar  
    29   15   16 ar  
    30   15   33 1   
    31   16   17 ar  
    32   16   21 1   
    33   17   18 ar  
    34   17   34 1   
    35   18   19 ar  
    36   18   35 1   
    37   19   20 1   
    38   21   36 1   
    39   21   37 1   
    40   21   38 1   
@<TRIPOS>SUBSTRUCTURE
     1 TH1         1 TEMP              0 ****  ****    0 ROOT
