@<TRIPOS>MOLECULE
TH1
   38    40     1     0     0
SMALL
bcc


@<TRIPOS>ATOM
      1 C1          1.0640    0.1240    0.8190 c3        1 TH1      0.101800
      2 C2          1.5080   -1.3510    0.7790 c3        1 TH1      0.094100
      3 O2          1.0620   -2.0510    1.9270 oh        1 TH1     -0.604800
      4 C3          3.0440   -1.4120    0.8250 c3        1 TH1      0.105100
      5 O3          3.5030   -2.7390    0.6310 oh        1 TH1     -0.606800
      6 C4          3.6280   -0.5740   -0.3240 c3        1 TH1      0.123100
      7 O4          5.0360   -0.4730   -0.1990 oh        1 TH1     -0.595800
      8 C5          3.0650    0.8530   -0.2550 c3        1 TH1      0.098100
      9 O5          1.6350    0.8270   -0.2910 os        1 TH1     -0.413600
     10 C6          3.4910    1.6680   -1.4800 c3        1 TH1      0.141400
     11 O6          3.0900    3.0140   -1.3620 oh        1 TH1     -0.594800
     12 C7         -0.4200    0.3040    0.7070 cc        1 TH1      0.349200
     13 N1         -1.2550   -0.5880    0.1970 nd        1 TH1     -0.527100
     14 C8         -2.5650   -0.0920    0.2540 ca        1 TH1      0.084400
     15 C9         -3.7200   -0.7630   -0.1960 ca        1 TH1     -0.075000
     16 C10        -4.9550   -0.1420   -0.0730 ca        1 TH1     -0.074300
     17 C11        -5.0530    1.1470    0.4970 ca        1 TH1     -0.116000
     18 C12        -3.9320    1.8230    0.9440 ca        1 TH1     -0.087000
     19 C13        -2.6770    1.2180    0.8310 ca        1 TH1     -0.098100
     20 S1         -1.1480    1.7750    1.2740 ss        1 TH1      0.008900
     21 C14        -6.1900   -0.8170   -0.5380 c3        1 TH1     -0.056800
     22 H1          1.4160    0.5920    1.7840 h1        1 TH1      0.067700
     23 H2          1.1360   -1.8450   -0.1600 h1        1 TH1      0.082700
     24 HO2         0.1160   -2.2090    1.8160 ho        1 TH1      0.425000
     25 H3          3.4140   -1.0290    1.8160 h1        1 TH1      0.062700
     26 HO3         3.0630   -3.2820    1.2990 ho        1 TH1      0.427000
     27 H4          3.3650   -1.0530   -1.3080 h1        1 TH1      0.064700
     28 HO4         5.3690   -1.3800   -0.1420 ho        1 TH1      0.426000
     29 H5          3.4100    1.3590    0.6880 h1        1 TH1      0.070700
     30 H61         4.6130    1.6890   -1.5300 h1        1 TH1      0.066200
     31 H62         3.0650    1.2100   -2.4120 h1        1 TH1      0.066200
     32 HO6         2.1250    3.0180   -1.3060 ho        1 TH1      0.410000
     33 H9         -3.6320   -1.7650   -0.6420 ha        1 TH1      0.152000
     34 H11        -6.0460    1.6150    0.5820 ha        1 TH1      0.138000
     35 H12        -4.0230    2.8270    1.3850 ha        1 TH1      0.142000
     36 H141       -6.9110   -0.9300    0.3100 hc        1 TH1      0.048033
     37 H142       -6.6840   -0.2090   -1.3370 hc        1 TH1      0.048033
     38 H143       -5.9700   -1.8310   -0.9520 hc        1 TH1      0.048033
@<TRIPOS>BOND
     1    1    2 1   
     2    1    9 1   
     3    1   12 1   
     4    1   22 1   
     5    2    3 1   
     6    2    4 1   
     7    2   23 1   
     8    3   24 1   
     9    4    5 1   
    10    4    6 1   
    11    4   25 1   
    12    5   26 1   
    13    6    7 1   
    14    6    8 1   
    15    6   27 1   
    16    7   28 1   
    17    8    9 1   
    18    8   10 1   
    19    8   29 1   
    20   10   11 1   
    21   10   30 1   
    22   10   31 1   
    23   11   32 1   
    24   12   13 2   
    25   12   20 1   
    26   13   14 1   
    27   14   15 ar  
    28   14   19 ar  
    29   15   16 ar  
    30   15   33 1   
    31   16   17 ar  
    32   16   21 1   
    33   17   18 ar  
    34   17   34 1   
    35   18   19 ar  
    36   18   35 1   
    37   19   20 1   
    38   21   36 1   
    39   21   37 1   
    40   21   38 1   
@<TRIPOS>SUBSTRUCTURE
     1 TH1         1 TEMP              0 ****  ****    0 ROOT
