@<TRIPOS>MOLECULE
TH1
   38    40     1     0     0
SMALL
bcc


@<TRIPOS>ATOM
      1 C1         -0.3720    0.0680    0.3070 c3        1 TH1      0.101800
      2 C2          0.9280   -0.7370    0.4890 c3        1 TH1      0.094100
      3 O2          0.6780   -2.1310    0.4580 oh        1 TH1     -0.604800
      4 C3          1.5030   -0.4490    1.8870 c3        1 TH1      0.105100
      5 O3          2.7800   -1.0430    2.0410 oh        1 TH1     -0.606800
      6 C4          1.6990    1.0650    2.0630 c3        1 TH1      0.123100
      7 O4          2.0610    1.3670    3.3990 oh        1 TH1     -0.595800
      8 C5          0.3760    1.7900    1.7780 c3        1 TH1      0.098100
      9 O5         -0.0990    1.4650    0.4680 os        1 TH1     -0.413600
     10 C6          0.5740    3.3090    1.7760 c3        1 TH1      0.141400
     11 O6         -0.6570    3.9840    1.6470 oh        1 TH1     -0.594800
     12 C7         -0.9810   -0.0830   -1.0550 cc        1 TH1      0.349200
     13 N1         -0.3280   -0.4730   -2.1380 nd        1 TH1     -0.527100
     14 C8         -1.2070   -0.5060   -3.2300 ca        1 TH1      0.084400
     15 C9         -0.8680   -0.8730   -4.5480 ca        1 TH1     -0.075000
     16 C10        -1.8500   -0.8580   -5.5290 ca        1 TH1     -0.074300
     17 C11        -3.1730   -0.4780   -5.2090 ca        1 TH1     -0.116000
     18 C12        -3.5250   -0.1130   -3.9220 ca        1 TH1     -0.087000
     19 C13        -2.5540   -0.1210   -2.9170 ca        1 TH1     -0.098100
     20 S1         -2.6670    0.2670   -1.2800 ss        1 TH1      0.008900
     21 C14        -1.5300   -1.2360   -6.9260 c3        1 TH1     -0.056800
     22 H1         -1.1250   -0.2620    1.0810 h1        1 TH1      0.067700
     23 H2          1.6790   -0.4480   -0.2960 h1        1 TH1      0.082700
     24 HO2         0.5180   -2.3720   -0.4630 ho        1 TH1      0.425000
     25 H3          0.8070   -0.8480    2.6770 h1        1 TH1      0.062700
     26 HO3         2.6730   -1.9830    1.8410 ho        1 TH1      0.427000
     27 H4          2.5020    1.4230    1.3600 h1        1 TH1      0.064700
     28 HO4         2.8370    0.8270    3.5980 ho        1 TH1      0.426000
     29 H5         -0.3970    1.4990    2.5420 h1        1 TH1      0.070700
     30 H61         0.9880    3.6220    2.7720 h1        1 TH1      0.066200
     31 H62         1.2740    3.6030    0.9500 h1        1 TH1      0.066200
     32 HO6        -1.0380    3.7190    0.7990 ho        1 TH1      0.410000
     33 H9          0.1660   -1.1640   -4.7870 ha        1 TH1      0.152000
     34 H11        -3.9310   -0.4750   -6.0070 ha        1 TH1      0.138000
     35 H12        -4.5590    0.1820   -3.6880 ha        1 TH1      0.142000
     36 H141       -0.4560   -1.5280   -7.0330 hc        1 TH1      0.048033
     37 H142       -2.1640   -2.0990   -7.2480 hc        1 TH1      0.048033
     38 H143       -1.7320   -0.3770   -7.6140 hc        1 TH1      0.048033
@<TRIPOS>BOND
     1    1    2 1   
     2    1    9 1   
     3    1   12 1   
     4    1   22 1   
     5    2    3 1   
     6    2    4 1   
     7    2   23 1   
     8    3   24 1   
     9    4    5 1   
    10    4    6 1   
    11    4   25 1   
    12    5   26 1   
    13    6    7 1   
    14    6    8 1   
    15    6   27 1   
    16    7   28 1   
    17    8    9 1   
    18    8   10 1   
    19    8   29 1   
    20   10   11 1   
    21   10   30 1   
    22   10   31 1   
    23   11   32 1   
    24   12   13 2   
    25   12   20 1   
    26   13   14 1   
    27   14   15 ar  
    28   14   19 ar  
    29   15   16 ar  
    30   15   33 1   
    31   16   17 ar  
    32   16   21 1   
    33   17   18 ar  
    34   17   34 1   
    35   18   19 ar  
    36   18   35 1   
    37   19   20 1   
    38   21   36 1   
    39   21   37 1   
    40   21   38 1   
@<TRIPOS>SUBSTRUCTURE
     1 TH1         1 TEMP              0 ****  ****    0 ROOT
