@<TRIPOS>MOLECULE
TH2
   59    62     1     0     0
SMALL
bcc


@<TRIPOS>ATOM
      1 C1          4.1380    1.8230    0.6280 c3        1 TH2     -0.070400
      2 C2          5.5940    2.1790    0.4360 c3        1 TH2     -0.181400
      3 C3          6.4810    0.9760    0.5840 c         1 TH2      0.573300
      4 O3          7.6170    1.0540    1.0700 o         1 TH2     -0.550100
      5 C4          5.9270   -0.2840    0.0780 ce        1 TH2     -0.278200
      6 C5          4.6560   -0.4220   -0.3400 c2        1 TH2     -0.015400
      7 C6          4.2020   -1.7140   -0.9310 c3        1 TH2     -0.055200
      8 C7          2.8820   -2.1760   -0.3550 c3        1 TH2     -0.073400
      9 C8          1.8330   -1.0850   -0.4850 c3        1 TH2     -0.048700
     10 C9          2.3040    0.1820    0.2460 c3        1 TH2     -0.046700
     11 C10         3.6510    0.7040   -0.3040 c3        1 TH2     -0.017800
     12 C11         1.2320    1.2690    0.2570 c3        1 TH2     -0.074400
     13 C12        -0.1280    0.7850    0.7340 c3        1 TH2     -0.065400
     14 C13        -0.5680   -0.4360   -0.0540 c3        1 TH2     -0.068000
     15 C14         0.5200   -1.5170    0.1340 c3        1 TH2     -0.066700
     16 C15        -0.1460   -2.8060   -0.3300 c3        1 TH2     -0.071400
     17 C16        -1.6110   -2.6520    0.0860 c3        1 TH2     -0.084400
     18 C17        -1.8110   -1.1780    0.5040 c3        1 TH2      0.153100
     19 O17        -3.0310   -0.7370   -0.0830 os        1 TH2     -0.449900
     20 C18        -0.8250   -0.0750   -1.5070 c3        1 TH2     -0.077100
     21 C20        -3.7560    0.2490    0.5560 c         1 TH2      0.639100
     22 O20        -3.2710    0.7260    1.5850 o         1 TH2     -0.572000
     23 C21        -6.2330    0.4470    0.7300 c3        1 TH2     -0.201400
     24 C22        -5.0240    0.5740   -0.1640 c3        1 TH2     -0.109400
     25 C23        -7.4780    1.0450    0.0380 c         1 TH2      0.913600
     26 O23        -7.3050    1.9520   -0.8260 o         1 TH2     -0.842800
     27 O24        -8.6040    0.5950    0.3880 o         1 TH2     -0.842800
     28 C19         3.5110    1.2580   -1.7200 c3        1 TH2     -0.085100
     29 H1C1        3.9780    1.5070    1.6930 hc        1 TH2      0.053200
     30 H1C2        3.5170    2.7410    0.4520 hc        1 TH2      0.053200
     31 H2C1        5.8940    2.9670    1.1760 hc        1 TH2      0.068700
     32 H2C2        5.7580    2.6020   -0.5920 hc        1 TH2      0.068700
     33 H4          6.6340   -1.1300    0.0520 ha        1 TH2      0.143000
     34 H6C1        4.9770   -2.5120   -0.7740 hc        1 TH2      0.052200
     35 H6C2        4.0950   -1.5650   -2.0410 hc        1 TH2      0.052200
     36 H7C1        3.0120   -2.4520    0.7240 hc        1 TH2      0.046700
     37 H7C2        2.5350   -3.0940   -0.8980 hc        1 TH2      0.046700
     38 H8          1.6810   -0.8620   -1.5760 hc        1 TH2      0.057700
     39 H9          2.4880   -0.1150    1.3210 hc        1 TH2      0.048700
     40 H111        1.1240    1.7010   -0.7720 hc        1 TH2      0.039700
     41 H112        1.5640    2.0990    0.9350 hc        1 TH2      0.039700
     42 H121       -0.8860    1.6040    0.6180 hc        1 TH2      0.056700
     43 H122       -0.0820    0.5310    1.8250 hc        1 TH2      0.056700
     44 H14         0.6990   -1.6270    1.2450 hc        1 TH2      0.045700
     45 H151       -0.0570   -2.9250   -1.4380 hc        1 TH2      0.037200
     46 H152        0.3230   -3.6990    0.1490 hc        1 TH2      0.037200
     47 H161       -2.2960   -2.9030   -0.7610 hc        1 TH2      0.055200
     48 H162       -1.8580   -3.3230    0.9430 hc        1 TH2      0.055200
     49 H17        -1.8570   -1.0680    1.6210 h1        1 TH2      0.071700
     50 H181        0.0750    0.3740   -1.9890 hc        1 TH2      0.038033
     51 H182       -1.1250   -0.9860   -2.0800 hc        1 TH2      0.038033
     52 H183       -1.6640    0.6620   -1.5610 hc        1 TH2      0.038033
     53 H211       -6.4310   -0.6240    0.9790 hc        1 TH2      0.037200
     54 H212       -6.0690    1.0040    1.6870 hc        1 TH2      0.037200
     55 H221       -4.9580    1.6370   -0.5320 hc        1 TH2      0.087700
     56 H222       -5.1360   -0.0910   -1.0590 hc        1 TH2      0.087700
     57 H191        4.5190    1.4850   -2.1440 hc        1 TH2      0.040367
     58 H192        3.0040    0.5200   -2.3850 hc        1 TH2      0.040367
     59 H193        2.9140    2.2010   -1.7130 hc        1 TH2      0.040367
@<TRIPOS>BOND
     1    1    2 1   
     2    1   11 1   
     3    1   29 1   
     4    1   30 1   
     5    2    3 1   
     6    2   31 1   
     7    2   32 1   
     8    3    4 2   
     9    3    5 1   
    10    5    6 2   
    11    5   33 1   
    12    6    7 1   
    13    6   11 1   
    14    7    8 1   
    15    7   34 1   
    16    7   35 1   
    17    8    9 1   
    18    8   36 1   
    19    8   37 1   
    20    9   10 1   
    21    9   15 1   
    22    9   38 1   
    23   10   11 1   
    24   10   12 1   
    25   10   39 1   
    26   11   28 1   
    27   12   13 1   
    28   12   40 1   
    29   12   41 1   
    30   13   14 1   
    31   13   42 1   
    32   13   43 1   
    33   14   15 1   
    34   14   18 1   
    35   14   20 1   
    36   15   16 1   
    37   15   44 1   
    38   16   17 1   
    39   16   45 1   
    40   16   46 1   
    41   17   18 1   
    42   17   47 1   
    43   17   48 1   
    44   18   19 1   
    45   18   49 1   
    46   19   21 1   
    47   20   50 1   
    48   20   51 1   
    49   20   52 1   
    50   21   22 2   
    51   21   24 1   
    52   23   24 1   
    53   23   25 1   
    54   23   53 1   
    55   23   54 1   
    56   24   55 1   
    57   24   56 1   
    58   25   26 1   
    59   25   27 1   
    60   28   57 1   
    61   28   58 1   
    62   28   59 1   
@<TRIPOS>SUBSTRUCTURE
     1 TH2         1 TEMP              0 ****  ****    0 ROOT
