@<TRIPOS>MOLECULE
TH2
   59    62     1     0     0
SMALL
bcc


@<TRIPOS>ATOM
      1 C1         -0.1630    0.1000    0.0460 c3        1 TH2     -0.070400
      2 C2          1.3350    0.2970    0.0180 c3        1 TH2     -0.181400
      3 C3          1.9280    0.2200    1.3960 c         1 TH2      0.573300
      4 O3          2.9050    0.9040    1.7290 o         1 TH2     -0.550100
      5 C4          1.2990   -0.7470    2.3010 ce        1 TH2     -0.278200
      6 C5          0.1660   -1.4110    2.0100 c2        1 TH2     -0.015400
      7 C6         -0.3520   -2.4480    2.9470 c3        1 TH2     -0.055200
      8 C7         -1.8350   -2.2960    3.2080 c3        1 TH2     -0.073400
      9 C8         -2.6060   -2.2670    1.9000 c3        1 TH2     -0.048700
     10 C9         -2.1110   -1.1030    1.0270 c3        1 TH2     -0.046700
     11 C10        -0.5980   -1.2080    0.7230 c3        1 TH2     -0.017800
     12 C11        -2.9390   -0.9480   -0.2450 c3        1 TH2     -0.074400
     13 C12        -4.4390   -0.9020    0.0010 c3        1 TH2     -0.065400
     14 C13        -4.8830   -2.0990    0.8230 c3        1 TH2     -0.068000
     15 C14        -4.0860   -2.0640    2.1460 c3        1 TH2     -0.066700
     16 C15        -4.8380   -3.0200    3.0630 c3        1 TH2     -0.071400
     17 C16        -6.3080   -2.8510    2.6720 c3        1 TH2     -0.084400
     18 C17        -6.3370   -2.0360    1.3600 c3        1 TH2      0.153100
     19 O17        -7.2760   -2.6670    0.4950 os        1 TH2     -0.449900
     20 C18        -4.7060   -3.3870    0.0380 c3        1 TH2     -0.077100
     21 C20        -7.9460   -1.8950   -0.4320 c         1 TH2      0.639100
     22 O20        -7.6520   -0.6990   -0.4860 o         1 TH2     -0.572000
     23 C21       -10.3130   -2.1200   -1.1770 c3        1 TH2     -0.201400
     24 C22        -8.9190   -2.6950   -1.2360 c3        1 TH2     -0.109400
     25 C23       -11.2200   -2.8050   -2.2230 c         1 TH2      0.913600
     26 O23       -10.6800   -3.2960   -3.2560 o         1 TH2     -0.842800
     27 O24       -12.4600   -2.8240   -1.9870 o         1 TH2     -0.842800
     28 C19        -0.2840   -2.3800   -0.2040 c3        1 TH2     -0.085100
     29 H1C1       -0.6340    0.9650    0.5840 hc        1 TH2      0.053200
     30 H1C2       -0.5460    0.1100   -1.0080 hc        1 TH2      0.053200
     31 H2C1        1.8210   -0.5000   -0.6090 hc        1 TH2      0.068700
     32 H2C2        1.5800    1.2880   -0.4470 hc        1 TH2      0.068700
     33 H4          1.8270   -0.9070    3.2560 ha        1 TH2      0.143000
     34 H6C1       -0.1550   -3.4570    2.4870 hc        1 TH2      0.052200
     35 H6C2        0.2040   -2.4110    3.9210 hc        1 TH2      0.052200
     36 H7C1       -2.0260   -1.3530    3.7840 hc        1 TH2      0.046700
     37 H7C2       -2.1960   -3.1530    3.8350 hc        1 TH2      0.046700
     38 H8         -2.4430   -3.2420    1.3650 hc        1 TH2      0.057700
     39 H9         -2.2520   -0.1610    1.6340 hc        1 TH2      0.048700
     40 H111       -2.6410    0.0050   -0.7580 hc        1 TH2      0.039700
     41 H112       -2.7110   -1.7920   -0.9480 hc        1 TH2      0.039700
     42 H121       -4.7080    0.0440    0.5390 hc        1 TH2      0.056700
     43 H122       -4.9850   -0.8920   -0.9790 hc        1 TH2      0.056700
     44 H14        -4.2090   -1.0300    2.5870 hc        1 TH2      0.045700
     45 H151       -4.5020   -4.0740    2.9020 hc        1 TH2      0.037200
     46 H152       -4.6700   -2.7680    4.1380 hc        1 TH2      0.037200
     47 H161       -6.7970   -3.8440    2.5140 hc        1 TH2      0.055200
     48 H162       -6.8740   -2.3070    3.4660 hc        1 TH2      0.055200
     49 H17        -6.6360   -0.9700    1.5430 h1        1 TH2      0.071700
     50 H181       -5.3590   -3.3590   -0.8690 hc        1 TH2      0.038033
     51 H182       -3.6500   -3.5320   -0.2890 hc        1 TH2      0.038033
     52 H183       -5.0130   -4.2610    0.6620 hc        1 TH2      0.038033
     53 H211      -10.2910   -1.0250   -1.4040 hc        1 TH2      0.037200
     54 H212      -10.7560   -2.2590   -0.1610 hc        1 TH2      0.037200
     55 H221       -8.5740   -2.6960   -2.3090 hc        1 TH2      0.087700
     56 H222       -8.9260   -3.7580   -0.8800 hc        1 TH2      0.087700
     57 H191       -0.7360   -3.3230    0.1850 hc        1 TH2      0.040367
     58 H192        0.8220   -2.5210   -0.2820 hc        1 TH2      0.040367
     59 H193       -0.6850   -2.1860   -1.2270 hc        1 TH2      0.040367
@<TRIPOS>BOND
     1    1    2 1   
     2    1   11 1   
     3    1   29 1   
     4    1   30 1   
     5    2    3 1   
     6    2   31 1   
     7    2   32 1   
     8    3    4 2   
     9    3    5 1   
    10    5    6 2   
    11    5   33 1   
    12    6    7 1   
    13    6   11 1   
    14    7    8 1   
    15    7   34 1   
    16    7   35 1   
    17    8    9 1   
    18    8   36 1   
    19    8   37 1   
    20    9   10 1   
    21    9   15 1   
    22    9   38 1   
    23   10   11 1   
    24   10   12 1   
    25   10   39 1   
    26   11   28 1   
    27   12   13 1   
    28   12   40 1   
    29   12   41 1   
    30   13   14 1   
    31   13   42 1   
    32   13   43 1   
    33   14   15 1   
    34   14   18 1   
    35   14   20 1   
    36   15   16 1   
    37   15   44 1   
    38   16   17 1   
    39   16   45 1   
    40   16   46 1   
    41   17   18 1   
    42   17   47 1   
    43   17   48 1   
    44   18   19 1   
    45   18   49 1   
    46   19   21 1   
    47   20   50 1   
    48   20   51 1   
    49   20   52 1   
    50   21   22 2   
    51   21   24 1   
    52   23   24 1   
    53   23   25 1   
    54   23   53 1   
    55   23   54 1   
    56   24   55 1   
    57   24   56 1   
    58   25   26 1   
    59   25   27 1   
    60   28   57 1   
    61   28   58 1   
    62   28   59 1   
@<TRIPOS>SUBSTRUCTURE
     1 TH2         1 TEMP              0 ****  ****    0 ROOT
