@<TRIPOS>MOLECULE
TH2
   59    62     1     0     0
SMALL
bcc


@<TRIPOS>ATOM
      1 C1         -0.1650    0.1070    0.0590 c3        1 TH2     -0.070400
      2 C2          1.3330    0.3050    0.0330 c3        1 TH2     -0.181400
      3 C3          1.9250    0.2210    1.4110 c         1 TH2      0.573300
      4 O3          2.9010    0.9040    1.7480 o         1 TH2     -0.550100
      5 C4          1.2950   -0.7500    2.3110 ce        1 TH2     -0.278200
      6 C5          0.1630   -1.4130    2.0150 c2        1 TH2     -0.015400
      7 C6         -0.3550   -2.4550    2.9470 c3        1 TH2     -0.055200
      8 C7         -1.8380   -2.3050    3.2070 c3        1 TH2     -0.073400
      9 C8         -2.6080   -2.2700    1.8990 c3        1 TH2     -0.048700
     10 C9         -2.1130   -1.1010    1.0320 c3        1 TH2     -0.046700
     11 C10        -0.6000   -1.2050    0.7290 c3        1 TH2     -0.017800
     12 C11        -2.9410   -0.9410   -0.2400 c3        1 TH2     -0.074400
     13 C12        -4.4400   -0.8970    0.0050 c3        1 TH2     -0.065400
     14 C13        -4.8850   -2.0980    0.8210 c3        1 TH2     -0.068000
     15 C14        -4.0890   -2.0690    2.1450 c3        1 TH2     -0.066700
     16 C15        -4.8410   -3.0300    3.0570 c3        1 TH2     -0.071400
     17 C16        -6.3110   -2.8600    2.6650 c3        1 TH2     -0.084400
     18 C17        -6.3390   -2.0390    1.3570 c3        1 TH2      0.153100
     19 O17        -7.2770   -2.6660    0.4880 os        1 TH2     -0.449900
     20 C18        -4.7060   -3.3820    0.0300 c3        1 TH2     -0.077100
     21 C20        -7.9480   -1.8900   -0.4350 c         1 TH2      0.639100
     22 O20        -7.6550   -0.6920   -0.4820 o         1 TH2     -0.572000
     23 C21       -10.3150   -2.1160   -1.1770 c3        1 TH2     -0.201400
     24 C22        -8.9190   -2.6860   -1.2440 c3        1 TH2     -0.109400
     25 C23       -11.2230   -2.7960   -2.2260 c         1 TH2      0.913600
     26 O23       -10.6840   -3.2780   -3.2620 o         1 TH2     -0.842800
     27 O24       -12.4620   -2.8190   -1.9870 o         1 TH2     -0.842800
     28 C19        -0.2840   -2.3710   -0.2030 c3        1 TH2     -0.085100
     29 H1C1       -0.5480    0.1220   -0.9960 hc        1 TH2      0.053200
     30 H1C2       -0.6370    0.9700    0.6000 hc        1 TH2      0.053200
     31 H2C1        1.5770    1.2980   -0.4270 hc        1 TH2      0.068700
     32 H2C2        1.8190   -0.4880   -0.5980 hc        1 TH2      0.068700
     33 H4          1.8220   -0.9140    3.2650 ha        1 TH2      0.143000
     34 H6C1        0.2000   -2.4220    3.9220 hc        1 TH2      0.052200
     35 H6C2       -0.1570   -3.4610    2.4820 hc        1 TH2      0.052200
     36 H7C1       -2.2000   -3.1650    3.8300 hc        1 TH2      0.046700
     37 H7C2       -2.0300   -1.3650    3.7880 hc        1 TH2      0.046700
     38 H8         -2.4450   -3.2420    1.3590 hc        1 TH2      0.057700
     39 H9         -2.2550   -0.1620    1.6440 hc        1 TH2      0.048700
     40 H111       -2.6420    0.0140   -0.7480 hc        1 TH2      0.039700
     41 H112       -2.7120   -1.7810   -0.9470 hc        1 TH2      0.039700
     42 H121       -4.9860   -0.8820   -0.9750 hc        1 TH2      0.056700
     43 H122       -4.7110    0.0460    0.5470 hc        1 TH2      0.056700
     44 H14        -4.2130   -1.0370    2.5910 hc        1 TH2      0.045700
     45 H151       -4.5040   -4.0830    2.8910 hc        1 TH2      0.037200
     46 H152       -4.6730   -2.7830    4.1330 hc        1 TH2      0.037200
     47 H161       -6.8780   -2.3200    3.4610 hc        1 TH2      0.055200
     48 H162       -6.7990   -3.8520    2.5020 hc        1 TH2      0.055200
     49 H17        -6.6380   -0.9730    1.5450 h1        1 TH2      0.071700
     50 H181       -5.0130   -4.2590    0.6490 hc        1 TH2      0.038033
     51 H182       -3.6500   -3.5250   -0.2970 hc        1 TH2      0.038033
     52 H183       -5.3590   -3.3500   -0.8770 hc        1 TH2      0.038033
     53 H211      -10.7550   -2.2630   -0.1610 hc        1 TH2      0.037200
     54 H212      -10.2970   -1.0190   -1.3960 hc        1 TH2      0.037200
     55 H221       -8.9230   -3.7520   -0.8960 hc        1 TH2      0.087700
     56 H222       -8.5770   -2.6770   -2.3170 hc        1 TH2      0.087700
     57 H191       -0.7360   -3.3170    0.1800 hc        1 TH2      0.040367
     58 H192        0.8210   -2.5120   -0.2810 hc        1 TH2      0.040367
     59 H193       -0.6850   -2.1730   -1.2260 hc        1 TH2      0.040367
@<TRIPOS>BOND
     1    1    2 1   
     2    1   11 1   
     3    1   29 1   
     4    1   30 1   
     5    2    3 1   
     6    2   31 1   
     7    2   32 1   
     8    3    4 2   
     9    3    5 1   
    10    5    6 2   
    11    5   33 1   
    12    6    7 1   
    13    6   11 1   
    14    7    8 1   
    15    7   34 1   
    16    7   35 1   
    17    8    9 1   
    18    8   36 1   
    19    8   37 1   
    20    9   10 1   
    21    9   15 1   
    22    9   38 1   
    23   10   11 1   
    24   10   12 1   
    25   10   39 1   
    26   11   28 1   
    27   12   13 1   
    28   12   40 1   
    29   12   41 1   
    30   13   14 1   
    31   13   42 1   
    32   13   43 1   
    33   14   15 1   
    34   14   18 1   
    35   14   20 1   
    36   15   16 1   
    37   15   44 1   
    38   16   17 1   
    39   16   45 1   
    40   16   46 1   
    41   17   18 1   
    42   17   47 1   
    43   17   48 1   
    44   18   19 1   
    45   18   49 1   
    46   19   21 1   
    47   20   50 1   
    48   20   51 1   
    49   20   52 1   
    50   21   22 2   
    51   21   24 1   
    52   23   24 1   
    53   23   25 1   
    54   23   53 1   
    55   23   54 1   
    56   24   55 1   
    57   24   56 1   
    58   25   26 1   
    59   25   27 1   
    60   28   57 1   
    61   28   58 1   
    62   28   59 1   
@<TRIPOS>SUBSTRUCTURE
     1 TH2         1 TEMP              0 ****  ****    0 ROOT
