@<TRIPOS>MOLECULE
TH4
   25    22     1     0     0
SMALL
bcc


@<TRIPOS>ATOM
      1 C5          1.4380    1.5500   -0.7980 c1        1 TH4     -0.062000
      2 C6          2.8020    1.5910   -0.8090 c1        1 TH4     -0.166000
      3 C1          3.5210    0.9870    0.2110 c1        1 TH4      0.002000
      4 CL7         5.2660    1.0770    0.2200 cl        1 TH4      0.026000
      5 N2          2.8650    0.3510    1.2250 n2        1 TH4     -0.129000
      6 C3          1.5030    0.3090    1.2380 c1        1 TH4     -0.049000
      7 C4          0.7810    0.9110    0.2210 c1        1 TH4     -0.180000
      8 C8         -0.7400    0.9960    0.3160 c3        1 TH4      0.006000
      9 N9         -1.3080   -0.3260    0.1640 n3        1 TH4     -0.288000
     10 C13        -1.1150   -1.6330    1.2470 c3        1 TH4     -0.046000
     11 C12        -1.7140   -2.6820    0.6530 c3        1 TH4     -0.328000
     12 S11        -1.6340   -2.3790   -1.0620 ss        1 TH4      0.296000
     13 C10        -1.8360   -0.9730   -1.2070 c2        1 TH4      0.036000
     14 N14        -2.3410   -0.3480   -2.2330 n1        1 TH4     -0.168000
     15 C15        -2.4710    1.0630   -2.2090 c1        1 TH4     -0.069000
     16 N16        -2.5760    2.1980   -2.1890 n1        1 TH4     -0.080000
     17 H5          0.9320    1.9740   -1.5140 ha        1 TH4      0.159000
     18 H6          3.2700    2.0450   -1.5340 ha        1 TH4      0.165000
     19 H3          1.0350   -0.1460    1.9650 ha        1 TH4      0.163000
     20 H8         -1.0810    1.5830   -0.3970 h1        1 TH4      0.119500
     21 H8A        -0.9920    1.3620    1.1880 h1        1 TH4      0.119500
     22 H13        -0.1650   -1.8200    1.3860 h1        1 TH4      0.106000
     23 H13A       -1.5530   -1.4320    2.1060 h1        1 TH4      0.106000
     24 H12        -2.6480   -2.7440    0.9400 h1        1 TH4      0.131000
     25 H12A       -1.2370   -3.5130    0.8720 h1        1 TH4      0.131000
@<TRIPOS>BOND
     1    1    7 1   
     2    1   17 1   
     3    2    3 1   
     4    2   18 1   
     5    3    5 1   
     6    5    6 1   
     7    6   19 1   
     8    7    8 1   
     9    8    9 1   
    10    8   20 1   
    11    8   21 1   
    12    9   10 1   
    13    9   13 1   
    14   10   11 1   
    15   10   22 1   
    16   10   23 1   
    17   11   12 1   
    18   11   24 1   
    19   11   25 1   
    20   12   13 1   
    21   13   14 1   
    22   15   16 1   
@<TRIPOS>SUBSTRUCTURE
     1 TH4         1 TEMP              0 ****  ****    0 ROOT
