@<TRIPOS>MOLECULE
TH4
   25    26     1     0     0
SMALL
bcc


@<TRIPOS>ATOM
      1 C5         -1.7130    1.5490   -0.6210 ca        1 TH4     -0.079000
      2 C6         -2.9300    1.2380   -0.0150 ca        1 TH4     -0.242300
      3 C1         -3.2490   -0.1220    0.1790 ca        1 TH4      0.498300
      4 CL7        -4.7410   -0.5020    0.9230 cl        1 TH4     -0.142000
      5 N2         -2.4370   -1.1410   -0.1960 nb        1 TH4     -0.651000
      6 C3         -1.2710   -0.8150   -0.7770 ca        1 TH4      0.438200
      7 C4         -0.8570    0.5140   -1.0130 ca        1 TH4     -0.253600
      8 C8          0.4450    0.7970   -1.6980 c3        1 TH4      0.261100
      9 N9          1.5930    0.9740   -0.8380 nh        1 TH4     -0.724600
     10 C13         1.6490    2.1950   -0.0470 c3        1 TH4      0.189800
     11 C12         2.7160    2.0990    1.0410 c3        1 TH4     -0.044300
     12 S11         3.2660    0.4130    1.0910 ss        1 TH4     -0.193300
     13 C10         2.2520   -0.1160   -0.2390 c2        1 TH4      0.700100
     14 N14         2.1240   -1.3460   -0.6900 ne        1 TH4     -0.511700
     15 C15         2.8710   -2.3540   -0.1660 cg        1 TH4      0.308800
     16 N16         3.4530   -3.3020    0.1990 n1        1 TH4     -0.379800
     17 H5         -1.4370    2.6000   -0.7950 ha        1 TH4      0.139000
     18 H6         -3.6240    2.0280    0.3020 ha        1 TH4      0.159000
     19 H3         -0.6300   -1.6700   -1.0710 h4        1 TH4      0.053100
     20 H8          0.6730   -0.0410   -2.4210 h1        1 TH4      0.081200
     21 H8A         0.3440    1.7510   -2.2940 h1        1 TH4      0.081200
     22 H13         1.8930    3.0370   -0.7550 h1        1 TH4      0.065200
     23 H13A        0.6420    2.4080    0.4150 h1        1 TH4      0.065200
     24 H12         3.5790    2.7680    0.8140 h1        1 TH4      0.091700
     25 H12A        2.3010    2.3880    2.0350 h1        1 TH4      0.091700
@<TRIPOS>BOND
     1    1    2 ar  
     2    1    7 ar  
     3    1   17 1   
     4    2    3 ar  
     5    2   18 1   
     6    3    4 1   
     7    3    5 ar  
     8    5    6 ar  
     9    6    7 ar  
    10    6   19 1   
    11    7    8 1   
    12    8    9 1   
    13    8   20 1   
    14    8   21 1   
    15    9   10 1   
    16    9   13 1   
    17   10   11 1   
    18   10   22 1   
    19   10   23 1   
    20   11   12 1   
    21   11   24 1   
    22   11   25 1   
    23   12   13 1   
    24   13   14 2   
    25   14   15 1   
    26   15   16 3   
@<TRIPOS>SUBSTRUCTURE
     1 TH4         1 TEMP              0 ****  ****    0 ROOT
