@<TRIPOS>MOLECULE
TH4
   25    26     1     0     0
SMALL
bcc


@<TRIPOS>ATOM
      1 C5         -0.0750   -0.0550   -0.0390 ca        1 TH4     -0.079000
      2 C6          1.3200   -0.0620   -0.0650 ca        1 TH4     -0.242300
      3 C1          2.0080   -0.0320    1.1660 ca        1 TH4      0.498300
      4 Cl7         3.7180   -0.0420    1.1330 cl        1 TH4     -0.142000
      5 N2          1.3870    0.0050    2.3700 nb        1 TH4     -0.651000
      6 C3          0.0430    0.0110    2.3670 ca        1 TH4      0.438200
      7 C4         -0.7380   -0.0190    1.1910 ca        1 TH4     -0.253600
      8 C8         -2.2340    0.0230    1.2700 c3        1 TH4      0.261100
      9 N9         -2.9080   -1.2550    1.3190 nh        1 TH4     -0.724600
     10 C13        -2.9100   -2.0520    0.1010 c3        1 TH4      0.189800
     11 C12        -3.3490   -3.4870    0.3810 c3        1 TH4     -0.044300
     12 S11        -3.4010   -3.6860    2.1430 ss        1 TH4     -0.193300
     13 C10        -2.9610   -2.0240    2.4960 c2        1 TH4      0.700100
     14 N14        -2.7480   -1.5020    3.6850 ne        1 TH4     -0.511700
     15 C15        -2.9310   -2.2470    4.8090 cg        1 TH4      0.308800
     16 N16        -3.0530   -2.7790    5.8440 n1        1 TH4     -0.379800
     17 H5         -0.6430   -0.0680   -0.9810 ha        1 TH4      0.139000
     18 H6          1.8700   -0.0870   -1.0150 ha        1 TH4      0.159000
     19 H3         -0.4350    0.0420    3.3660 h4        1 TH4      0.053100
     20 H8         -2.6320    0.5570    0.3570 h1        1 TH4      0.081200
     21 H8A        -2.5410    0.6170    2.1800 h1        1 TH4      0.081200
     22 H13        -3.6290   -1.5600   -0.6150 h1        1 TH4      0.065200
     23 H13A       -1.8860   -2.0450   -0.3740 h1        1 TH4      0.065200
     24 H12        -4.3590   -3.6880   -0.0480 h1        1 TH4      0.091700
     25 H12A       -2.6300   -4.2180   -0.0570 h1        1 TH4      0.091700
@<TRIPOS>BOND
     1    1    2 ar  
     2    1    7 ar  
     3    1   17 1   
     4    2    3 ar  
     5    2   18 1   
     6    3    4 1   
     7    3    5 ar  
     8    5    6 ar  
     9    6    7 ar  
    10    6   19 1   
    11    7    8 1   
    12    8    9 1   
    13    8   20 1   
    14    8   21 1   
    15    9   10 1   
    16    9   13 1   
    17   10   11 1   
    18   10   22 1   
    19   10   23 1   
    20   11   12 1   
    21   11   24 1   
    22   11   25 1   
    23   12   13 1   
    24   13   14 2   
    25   14   15 1   
    26   15   16 3   
@<TRIPOS>SUBSTRUCTURE
     1 TH4         1 TEMP              0 ****  ****    0 ROOT
