@<TRIPOS>MOLECULE
TH4
   25    26     1     0     0
SMALL
bcc


@<TRIPOS>ATOM
      1 C5         -0.0300   -0.0540    0.0110 ca        1 TH4     -0.079000
      2 C6          1.3640   -0.0490    0.0120 ca        1 TH4     -0.242300
      3 C1          2.0290   -0.0420    1.2570 ca        1 TH4      0.498300
      4 CL7         3.7390   -0.0370    1.2570 cl        1 TH4     -0.142000
      5 N2          1.3830   -0.0360    2.4490 nb        1 TH4     -0.651000
      6 C3          0.0400   -0.0410    2.4190 ca        1 TH4      0.438200
      7 C4         -0.7180   -0.0510    1.2280 ca        1 TH4     -0.253600
      8 C8         -2.2150   -0.0220    1.2780 c3        1 TH4      0.261100
      9 N9         -2.8790   -1.3060    1.2860 nh        1 TH4     -0.724600
     10 C13        -2.8520   -2.0760    0.0500 c3        1 TH4      0.189800
     11 C12        -3.2840   -3.5190    0.2900 c3        1 TH4     -0.044300
     12 S11        -3.3680   -3.7590    2.0460 ss        1 TH4     -0.193300
     13 C10        -2.9490   -2.1020    2.4440 c2        1 TH4      0.700100
     14 N14        -2.7630   -1.6060    3.6480 ne        1 TH4     -0.511700
     15 C15        -2.9610   -2.3770    4.7510 cg        1 TH4      0.308800
     16 N16        -3.0990   -2.9330    5.7720 n1        1 TH4     -0.379800
     17 H5         -0.5800   -0.0510   -0.9430 ha        1 TH4      0.139000
     18 H6          1.9330   -0.0490   -0.9280 ha        1 TH4      0.159000
     19 H3         -0.4570   -0.0350    3.4090 h4        1 TH4      0.053100
     20 H8         -2.5450    0.5490    2.1950 h1        1 TH4      0.081200
     21 H8A        -2.6000    0.5290    0.3700 h1        1 TH4      0.081200
     22 H13        -3.5610   -1.5730   -0.6680 h1        1 TH4      0.065200
     23 H13A       -1.8190   -2.0500   -0.4040 h1        1 TH4      0.065200
     24 H12        -4.2830   -3.7190   -0.1640 h1        1 TH4      0.091700
     25 H12A       -2.5510   -4.2360   -0.1510 h1        1 TH4      0.091700
@<TRIPOS>BOND
     1    1    2 ar  
     2    1    7 ar  
     3    1   17 1   
     4    2    3 ar  
     5    2   18 1   
     6    3    4 1   
     7    3    5 ar  
     8    5    6 ar  
     9    6    7 ar  
    10    6   19 1   
    11    7    8 1   
    12    8    9 1   
    13    8   20 1   
    14    8   21 1   
    15    9   10 1   
    16    9   13 1   
    17   10   11 1   
    18   10   22 1   
    19   10   23 1   
    20   11   12 1   
    21   11   24 1   
    22   11   25 1   
    23   12   13 1   
    24   13   14 2   
    25   14   15 1   
    26   15   16 3   
@<TRIPOS>SUBSTRUCTURE
     1 TH4         1 TEMP              0 ****  ****    0 ROOT
