@<TRIPOS>MOLECULE
TH5
   21    20     1     0     0
SMALL
bcc


@<TRIPOS>ATOM
      1 CAA         2.8510    1.0910   -1.0010 c3        1 TH5     -0.153100
      2 CAH         2.1690    0.2410    0.0200 c         1 TH5      0.642100
      3 OAD         2.5650   -0.0080    1.1640 o         1 TH5     -0.575000
      4 OG1         1.0110   -0.2940   -0.4390 os        1 TH5     -0.428900
      5 CB          0.1150   -0.9030    0.5240 c3        1 TH5      0.160100
      6 CG2         0.5370   -2.3410    0.7480 c3        1 TH5     -0.112100
      7 CA         -1.3100   -0.7780   -0.0460 c3        1 TH5      0.019500
      8 C          -1.7920    0.7060    0.0930 c         1 TH5      0.893600
      9 OXT        -2.4150    1.2200   -0.8780 o         1 TH5     -0.838800
     10 N          -1.4740   -1.3530   -1.3730 n3        1 TH5     -0.893800
     11 O          -1.5540    1.2900    1.1860 o         1 TH5     -0.838800
     12 HAA1        3.9270    1.2110   -0.7320 hc        1 TH5      0.064033
     13 HAA2        2.7600    0.6310   -2.0140 hc        1 TH5      0.064033
     14 HAA3        2.3530    2.0920   -1.0160 hc        1 TH5      0.064033
     15 HB          0.1590   -0.3120    1.4830 h1        1 TH5      0.100700
     16 HG21        0.5510   -2.9040   -0.2150 hc        1 TH5      0.034700
     17 HG22        1.5580   -2.3700    1.1990 hc        1 TH5      0.034700
     18 HG23       -0.1840   -2.8330    1.4420 hc        1 TH5      0.034700
     19 HA         -1.9700   -1.3810    0.6470 h1        1 TH5      0.048700
     20 HN1        -2.2980   -0.9340   -1.7770 hn        1 TH5      0.339300
     21 HN2        -0.6980   -1.0680   -1.9450 hn        1 TH5      0.339300
@<TRIPOS>BOND
     1    1    2 1   
     2    1   12 1   
     3    1   13 1   
     4    1   14 1   
     5    2    3 2   
     6    2    4 1   
     7    4    5 1   
     8    5    6 1   
     9    5    7 1   
    10    5   15 1   
    11    6   16 1   
    12    6   17 1   
    13    6   18 1   
    14    7    8 1   
    15    7   10 1   
    16    7   19 1   
    17    8    9 1   
    18    8   11 1   
    19   10   20 1   
    20   10   21 1   
@<TRIPOS>SUBSTRUCTURE
     1 TH5         1 TEMP              0 ****  ****    0 ROOT
