@<TRIPOS>MOLECULE
TH6
   17    16     1     0     0
SMALL
bcc


@<TRIPOS>ATOM
      1 N           0.2080    1.9330    0.4000 n3        1 TH6     -0.890800
      2 CA          0.2870    0.4950    0.6060 c3        1 TH6     -0.009500
      3 CB         -0.9590   -0.2510    0.0950 c3        1 TH6      0.129100
      4 OB1        -1.2180   -0.0100   -1.2820 oh        1 TH6     -0.662800
      5 CG         -2.2250    0.1690    0.8450 c3        1 TH6      0.133400
      6 OG1        -3.3540   -0.5800    0.4240 oh        1 TH6     -0.632800
      7 C           1.5330   -0.1520   -0.0850 c         1 TH6      0.882600
      8 O           1.6290   -0.0040   -1.3410 o         1 TH6     -0.835800
      9 OXT         2.3610   -0.7640    0.6360 o         1 TH6     -0.835800
     10 HN1         1.1300    2.3150    0.5190 hn        1 TH6      0.334800
     11 HN2        -0.0600    2.1020   -0.5540 hn        1 TH6      0.334800
     12 HA          0.3680    0.3190    1.7160 h1        1 TH6      0.056700
     13 HB         -0.7860   -1.3560    0.2370 h1        1 TH6      0.041700
     14 HB1        -0.3600   -0.0490   -1.7410 ho        1 TH6      0.457000
     15 HG1C       -2.1160   -0.0490    1.9390 h1        1 TH6      0.043200
     16 HG2C       -2.4290    1.2600    0.6890 h1        1 TH6      0.043200
     17 HG1        -3.3240   -0.6060   -0.5400 ho        1 TH6      0.411000
@<TRIPOS>BOND
     1    1    2 1   
     2    1   10 1   
     3    1   11 1   
     4    2    3 1   
     5    2    7 1   
     6    2   12 1   
     7    3    4 1   
     8    3    5 1   
     9    3   13 1   
    10    4   14 1   
    11    5    6 1   
    12    5   15 1   
    13    5   16 1   
    14    6   17 1   
    15    7    8 1   
    16    7    9 1   
@<TRIPOS>SUBSTRUCTURE
     1 TH6         1 TEMP              0 ****  ****    0 ROOT
