@<TRIPOS>MOLECULE
TH7
   16    16     1     0     0
SMALL
bcc


@<TRIPOS>ATOM
      1 C1          0.1750   -0.0760    0.1270 ca        1 TH7     -0.293000
      2 O1          2.4100    0.2080   -0.7650 oh        1 TH7     -0.513100
      3 S1          3.7950    0.2370    1.8940 ss        1 TH7      0.092900
      4 C2          1.5560    0.0830    0.3080 ca        1 TH7      0.178100
      5 C3          2.1350    0.1260    1.5900 ca        1 TH7     -0.121100
      6 O3         -1.9950   -0.3880    1.1770 oh        1 TH7     -0.490100
      7 C4          1.2830    0.0010    2.6980 ca        1 TH7     -0.041000
      8 O4          4.3610    1.3040    0.6950 oh        1 TH7     -0.518800
      9 C5         -0.0830   -0.1840    2.5530 ca        1 TH7     -0.183000
     10 C6         -0.6350   -0.2160    1.2590 ca        1 TH7      0.168100
     11 H1         -0.2580   -0.0950   -0.8810 ha        1 TH7      0.138000
     12 HO3        -2.2440   -0.3840    0.2410 ho        1 TH7      0.422000
     13 H4          1.7190    0.0510    3.7100 ha        1 TH7      0.150000
     14 H5         -0.7420   -0.2940    3.4260 ha        1 TH7      0.157000
     15 H51         1.8820    0.2120   -1.5770 ho        1 TH7      0.431000
     16 H6          4.4440    0.7980   -0.1200 ho        1 TH7      0.423000
@<TRIPOS>BOND
     1    1    4 ar  
     2    1   10 ar  
     3    1   11 1   
     4    2    4 1   
     5    2   15 1   
     6    3    5 1   
     7    3    8 1   
     8    4    5 ar  
     9    5    7 ar  
    10    6   10 1   
    11    6   12 1   
    12    7    9 ar  
    13    7   13 1   
    14    8   16 1   
    15    9   10 ar  
    16    9   14 1   
@<TRIPOS>SUBSTRUCTURE
     1 TH7         1 TEMP              0 ****  ****    0 ROOT
