@<TRIPOS>MOLECULE
TH7
   16    16     1     0     0
SMALL
bcc


@<TRIPOS>ATOM
      1 C1          0.1840   -0.1450    0.1340 ca        1 TH7     -0.293000
      2 O1          2.4200    0.1170   -0.7620 oh        1 TH7     -0.513100
      3 S1          3.7870    0.3310    1.8980 ss        1 TH7      0.092900
      4 C2          1.5600    0.0460    0.3120 ca        1 TH7      0.178100
      5 C3          2.1310    0.1760    1.5920 ca        1 TH7     -0.121100
      6 O3         -1.9880   -0.4250    1.1880 oh        1 TH7     -0.490100
      7 C4          1.2740    0.1070    2.7010 ca        1 TH7     -0.041000
      8 O4          4.3440    1.3310    0.6390 oh        1 TH7     -0.518800
      9 C5         -0.0890   -0.1070    2.5600 ca        1 TH7     -0.183000
     10 C6         -0.6320   -0.2280    1.2680 ca        1 TH7      0.168100
     11 H1         -0.2420   -0.2330   -0.8740 ha        1 TH7      0.138000
     12 HO3        -2.2320   -0.4820    0.2520 ho        1 TH7      0.422000
     13 H4          1.7020    0.2260    3.7110 ha        1 TH7      0.150000
     14 H5         -0.7520   -0.1730    3.4340 ha        1 TH7      0.157000
     15 H51         1.8970    0.0630   -1.5750 ho        1 TH7      0.431000
     16 H6          4.4410    0.7770   -0.1430 ho        1 TH7      0.423000
@<TRIPOS>BOND
     1    1    4 ar  
     2    1   10 ar  
     3    1   11 1   
     4    2    4 1   
     5    2   15 1   
     6    3    5 1   
     7    3    8 1   
     8    4    5 ar  
     9    5    7 ar  
    10    6   10 1   
    11    6   12 1   
    12    7    9 ar  
    13    7   13 1   
    14    8   16 1   
    15    9   10 ar  
    16    9   14 1   
@<TRIPOS>SUBSTRUCTURE
     1 TH7         1 TEMP              0 ****  ****    0 ROOT
