@<TRIPOS>MOLECULE
TH7
   16    16     1     0     0
SMALL
bcc


@<TRIPOS>ATOM
      1 C1          1.5830   -0.9340    0.0320 ca        1 TH7     -0.273000
      2 O1         -0.4150   -2.1630    0.0500 oh        1 TH7     -0.489100
      3 S1         -2.2240    0.2940   -0.4070 ss        1 TH7      0.055900
      4 C2          0.1790   -0.9360   -0.0430 ca        1 TH7      0.238100
      5 C3         -0.5500    0.2620   -0.1890 ca        1 TH7     -0.222100
      6 O3          3.6190    0.3840    0.0150 oh        1 TH7     -0.489100
      7 C4          0.1650    1.4700   -0.2450 ca        1 TH7     -0.008000
      8 O4         -2.8000   -0.3090    1.0830 oh        1 TH7     -0.543800
      9 C5          1.5470    1.5030   -0.1870 ca        1 TH7     -0.211000
     10 C6          2.2520    0.2890   -0.0450 ca        1 TH7      0.195100
     11 H1          2.1230   -1.8830    0.1470 ha        1 TH7      0.157000
     12 HO3         3.9820   -0.5100    0.1100 ho        1 TH7      0.427000
     13 H4         -0.3970    2.4140   -0.3470 ha        1 TH7      0.145000
     14 H5          2.1050    2.4480   -0.2430 ha        1 TH7      0.157000
     15 H51        -1.3800   -2.0430   -0.0450 ho        1 TH7      0.448000
     16 H6         -2.9630    0.4450    1.6560 ho        1 TH7      0.415000
@<TRIPOS>BOND
     1    1    4 ar  
     2    1   10 ar  
     3    1   11 1   
     4    2    4 1   
     5    2   15 1   
     6    3    5 1   
     7    3    8 1   
     8    4    5 ar  
     9    5    7 ar  
    10    6   10 1   
    11    6   12 1   
    12    7    9 ar  
    13    7   13 1   
    14    8   16 1   
    15    9   10 ar  
    16    9   14 1   
@<TRIPOS>SUBSTRUCTURE
     1 TH7         1 TEMP              0 ****  ****    0 ROOT
