@<TRIPOS>MOLECULE
TH8
   36    36     1     0     0
SMALL
bcc


@<TRIPOS>ATOM
      1 C1         -4.7890   37.3090   -1.0140 c3        1 TH8      0.057100
      2 CL1        -3.7700   38.5240   -0.2760 cl        1 TH8     -0.122400
      3 CL2        -6.3830   37.2790   -0.2930 cl        1 TH8     -0.122400
      4 C2         -4.8940   37.5370   -2.5220 c         1 TH8      0.659100
      5 O2         -4.5420   36.6340   -3.3030 o         1 TH8     -0.583100
      6 N2         -5.4440   38.7280   -2.9510 n         1 TH8     -0.528900
      7 C3         -5.4580   39.0540   -4.3600 c3        1 TH8      0.020700
      8 C4         -4.1600   39.7310   -4.8580 c3        1 TH8      0.108400
      9 O4         -3.0020   39.0430   -4.4430 oh        1 TH8     -0.593800
     10 C5         -6.6500   39.9730   -4.7470 c3        1 TH8      0.174400
     11 O5         -6.5550   41.2270   -4.1000 oh        1 TH8     -0.582800
     12 C6         -7.9730   39.2910   -4.5560 ca        1 TH8     -0.047300
     13 C7         -8.2190   38.0770   -5.2130 ca        1 TH8     -0.147500
     14 C8         -9.4430   37.4340   -5.0610 ca        1 TH8     -0.012500
     15 C9        -10.4510   37.9800   -4.2580 ca        1 TH8     -0.382500
     16 O9A       -12.9140   38.1330   -3.7120 o         1 TH8     -0.655800
     17 O9B       -12.1860   36.4120   -5.2170 o         1 TH8     -0.655800
     18 C10       -10.2060   39.2070   -3.6290 ca        1 TH8     -0.012500
     19 C11        -8.9850   39.8580   -3.7750 ca        1 TH8     -0.147500
     20 C12       -11.5850   36.2020   -2.7750 c3        1 TH8     -0.359300
     21 S12       -11.9310   37.2080   -4.0920 sy        1 TH8      1.397300
     22 H1         -4.3160   36.3120   -0.8240 h2        1 TH8      0.134700
     23 H2         -5.4450   39.4960   -2.3180 hn        1 TH8      0.316500
     24 H3         -5.5750   38.0770   -4.9230 h1        1 TH8      0.091700
     25 H41C       -4.1990   39.7890   -5.9790 h1        1 TH8      0.061200
     26 H42C       -4.0580   40.7640   -4.4300 h1        1 TH8      0.061200
     27 H5         -6.5330   40.2340   -5.8430 h1        1 TH8      0.101700
     28 H4         -3.1060   38.1140   -4.6920 ho        1 TH8      0.415000
     29 HA         -6.7650   41.1060   -3.1650 ho        1 TH8      0.404000
     30 H7         -7.4480   37.6290   -5.8590 ha        1 TH8      0.144500
     31 H11        -8.8350   40.8340   -3.2880 ha        1 TH8      0.144500
     32 H8         -9.6330   36.4850   -5.5950 ha        1 TH8      0.158500
     33 H10       -11.0050   39.6700   -3.0220 ha        1 TH8      0.158500
     34 H121      -10.7140   35.5260   -2.9530 h1        1 TH8      0.115033
     35 H122      -11.3640   36.7680   -1.8380 h1        1 TH8      0.115033
     36 H123      -12.4540   35.5350   -2.5390 h1        1 TH8      0.115033
@<TRIPOS>BOND
     1    1    2 1   
     2    1    3 1   
     3    1    4 1   
     4    1   22 1   
     5    4    5 2   
     6    4    6 1   
     7    6    7 1   
     8    6   23 1   
     9    7    8 1   
    10    7   10 1   
    11    7   24 1   
    12    8    9 1   
    13    8   25 1   
    14    8   26 1   
    15    9   28 1   
    16   10   11 1   
    17   10   12 1   
    18   10   27 1   
    19   11   29 1   
    20   12   13 ar  
    21   12   19 ar  
    22   13   14 ar  
    23   13   30 1   
    24   14   15 ar  
    25   14   32 1   
    26   15   18 ar  
    27   15   21 1   
    28   16   21 2   
    29   17   21 2   
    30   18   19 ar  
    31   18   33 1   
    32   19   31 1   
    33   20   21 1   
    34   20   34 1   
    35   20   35 1   
    36   20   36 1   
@<TRIPOS>SUBSTRUCTURE
     1 TH8         1 TEMP              0 ****  ****    0 ROOT
