@<TRIPOS>MOLECULE
TH8
   37    37     1     0     0
SMALL
bcc


@<TRIPOS>ATOM
      1 C1         -1.5120   -0.8470   -0.0790 c3        1 TH8      0.024100
      2 CL1        -2.4120   -1.8480   -1.1780 cl        1 TH8     -0.052400
      3 CL2         0.0930   -1.4570    0.2300 cl        1 TH8     -0.052400
      4 C2         -1.4070    0.5700   -0.6170 c         1 TH8      0.547100
      5 O2         -1.8270    1.5720   -0.0660 o         1 TH8     -0.380100
      6 N2         -0.6880    0.7080   -1.9290 n4        1 TH8     -0.658800
      7 C3         -0.9930    1.9920   -2.6520 c3        1 TH8      0.088500
      8 C4         -2.4260    1.9790   -3.2320 c3        1 TH8      0.115400
      9 O4         -3.3380    1.5690   -2.2420 oh        1 TH8     -0.603800
     10 C5          0.0280    2.2160   -3.7990 c3        1 TH8      0.175400
     11 O5         -0.0350    1.0500   -4.6060 oh        1 TH8     -0.622800
     12 C6          1.4010    2.4580   -3.2470 ca        1 TH8     -0.139300
     13 C7          1.7760    3.7530   -2.8770 ca        1 TH8     -0.153500
     14 C8          3.0640    3.9920   -2.3980 ca        1 TH8     -0.010500
     15 C9          3.9880    2.9510   -2.2740 ca        1 TH8     -0.328500
     16 O9A         6.3890    2.1920   -2.1780 o         1 TH8     -0.634300
     17 O9B         5.9270    4.5610   -2.1550 o         1 TH8     -0.634300
     18 C10         3.6040    1.6590   -2.6500 ca        1 TH8     -0.010500
     19 C11         2.3200    1.4090   -3.1300 ca        1 TH8     -0.153500
     20 C12         5.3680    3.2030   -0.1010 c3        1 TH8     -0.374300
     21 S12         5.5910    3.2630   -1.7700 sy        1 TH8      1.391300
     22 H1         -2.0680   -0.8200    0.9010 h2        1 TH8      0.176700
     23 H2          0.3300    0.6570   -1.7700 hn        1 TH8      0.480300
     24 H3         -0.8880    2.8320   -1.9020 hx        1 TH8      0.122700
     25 H41C       -2.5040    1.2220   -4.0610 h1        1 TH8      0.098200
     26 H42C       -2.6520    3.0020   -3.6310 h1        1 TH8      0.098200
     27 H5         -0.3200    3.1140   -4.3900 h1        1 TH8      0.097700
     28 H4         -3.6690    2.3530   -1.7800 ho        1 TH8      0.437000
     29 HA          0.5490    1.1880   -5.3660 ho        1 TH8      0.456000
     30 H7          1.0700    4.5910   -2.9850 ha        1 TH8      0.148000
     31 H11         2.0480    0.3960   -3.4670 ha        1 TH8      0.148000
     32 H8          3.3700    5.0240   -2.1400 ha        1 TH8      0.177500
     33 H10         4.3410    0.8360   -2.5930 ha        1 TH8      0.177500
     34 H121        4.5780    3.8980    0.2740 h1        1 TH8      0.123367
     35 H122        6.3070    3.4960    0.4400 h1        1 TH8      0.123367
     36 H123        5.1090    2.1840    0.2780 h1        1 TH8      0.123367
     37 H22        -0.9580   -0.0720   -2.5500 hn        1 TH8      0.480300
@<TRIPOS>BOND
     1    1    2 1   
     2    1    3 1   
     3    1    4 1   
     4    1   22 1   
     5    4    5 2   
     6    4    6 1   
     7    6    7 1   
     8    6   23 1   
     9    6   37 1   
    10    7    8 1   
    11    7   10 1   
    12    7   24 1   
    13    8    9 1   
    14    8   25 1   
    15    8   26 1   
    16    9   28 1   
    17   10   11 1   
    18   10   12 1   
    19   10   27 1   
    20   11   29 1   
    21   12   13 ar  
    22   12   19 ar  
    23   13   14 ar  
    24   13   30 1   
    25   14   15 ar  
    26   14   32 1   
    27   15   18 ar  
    28   15   21 1   
    29   16   21 2   
    30   17   21 2   
    31   18   19 ar  
    32   18   33 1   
    33   19   31 1   
    34   20   21 1   
    35   20   34 1   
    36   20   35 1   
    37   20   36 1   
@<TRIPOS>SUBSTRUCTURE
     1 TH8         1 TEMP              0 ****  ****    0 ROOT
