@<TRIPOS>MOLECULE
TH8
   37    37     1     0     0
SMALL
bcc


@<TRIPOS>ATOM
      1 C1         -1.4840   -0.9220   -0.1490 c3        1 TH8      0.024100
      2 CL1        -2.3740   -1.9040   -1.2730 cl        1 TH8     -0.052400
      3 CL2         0.1270   -1.5230    0.1430 cl        1 TH8     -0.052400
      4 C2         -1.3930    0.5090   -0.6510 c         1 TH8      0.547100
      5 O2         -1.8230    1.4930   -0.0760 o         1 TH8     -0.380100
      6 N2         -0.6770    0.6870   -1.9600 n4        1 TH8     -0.658800
      7 C3         -0.9940    1.9860   -2.6500 c3        1 TH8      0.088500
      8 C4         -2.4270    1.9750   -3.2300 c3        1 TH8      0.115400
      9 O4         -3.3350    1.5310   -2.2510 oh        1 TH8     -0.603800
     10 C5          0.0240    2.2490   -3.7910 c3        1 TH8      0.175400
     11 O5         -0.0280    1.1030   -4.6280 oh        1 TH8     -0.622800
     12 C6          1.3950    2.4910   -3.2330 ca        1 TH8     -0.139300
     13 C7          1.7580    3.7790   -2.8300 ca        1 TH8     -0.153500
     14 C8          3.0440    4.0180   -2.3450 ca        1 TH8     -0.010500
     15 C9          3.9780    2.9820   -2.2470 ca        1 TH8     -0.328500
     16 O9A         6.3860    2.2450   -2.1710 o         1 TH8     -0.634300
     17 O9B         5.9010    4.6070   -2.0860 o         1 TH8     -0.634300
     18 C10         3.6060    1.6980   -2.6570 ca        1 TH8     -0.010500
     19 C11         2.3240    1.4470   -3.1430 ca        1 TH8     -0.153500
     20 C12         5.3550    3.1920   -0.0690 c3        1 TH8     -0.374300
     21 S12         5.5780    3.2970   -1.7350 sy        1 TH8      1.391300
     22 H1         -2.0400   -0.9250    0.8310 h2        1 TH8      0.176700
     23 H2         -0.9400   -0.0790   -2.6010 hn        1 TH8      0.480300
     24 H3         -0.8960    2.8080   -1.8790 hx        1 TH8      0.122700
     25 H41C       -2.6620    3.0060   -3.6030 h1        1 TH8      0.098200
     26 H42C       -2.4980    1.2380   -4.0790 h1        1 TH8      0.098200
     27 H5         -0.3320    3.1580   -4.3590 h1        1 TH8      0.097700
     28 H4         -3.6730    2.3000   -1.7690 ho        1 TH8      0.437000
     29 HA          0.5550    1.2660   -5.3830 ho        1 TH8      0.456000
     30 H7          1.0440    4.6130   -2.9170 ha        1 TH8      0.148000
     31 H11         2.0620    0.4410   -3.5060 ha        1 TH8      0.148000
     32 H8          3.3390    5.0460   -2.0610 ha        1 TH8      0.177500
     33 H10         4.3510    0.8800   -2.6210 ha        1 TH8      0.177500
     34 H121        5.1060    2.1610    0.2840 h1        1 TH8      0.123367
     35 H122        4.5580    3.8700    0.3240 h1        1 TH8      0.123367
     36 H123        6.2910    3.4800    0.4800 h1        1 TH8      0.123367
     37 H22         0.3420    0.6420   -1.8030 hn        1 TH8      0.480300
@<TRIPOS>BOND
     1    1    2 1   
     2    1    3 1   
     3    1    4 1   
     4    1   22 1   
     5    4    5 2   
     6    4    6 1   
     7    6    7 1   
     8    6   23 1   
     9    6   37 1   
    10    7    8 1   
    11    7   10 1   
    12    7   24 1   
    13    8    9 1   
    14    8   25 1   
    15    8   26 1   
    16    9   28 1   
    17   10   11 1   
    18   10   12 1   
    19   10   27 1   
    20   11   29 1   
    21   12   13 ar  
    22   12   19 ar  
    23   13   14 ar  
    24   13   30 1   
    25   14   15 ar  
    26   14   32 1   
    27   15   18 ar  
    28   15   21 1   
    29   16   21 2   
    30   17   21 2   
    31   18   19 ar  
    32   18   33 1   
    33   19   31 1   
    34   20   21 1   
    35   20   34 1   
    36   20   35 1   
    37   20   36 1   
@<TRIPOS>SUBSTRUCTURE
     1 TH8         1 TEMP              0 ****  ****    0 ROOT
