@<TRIPOS>MOLECULE
TH8
   37    37     1     0     0
SMALL
bcc


@<TRIPOS>ATOM
      1 C1         -1.4590   -0.9340   -0.1340 c3        1 TH8      0.024100
      2 Cl1        -2.3150   -1.9510   -1.2520 cl        1 TH8     -0.052400
      3 Cl2         0.1590   -1.5000    0.1920 cl        1 TH8     -0.052400
      4 C2         -1.3870    0.4890   -0.6600 c         1 TH8      0.547100
      5 O2         -1.8430    1.4760   -0.1080 o         1 TH8     -0.380100
      6 N2         -0.6560    0.6580   -1.9620 ny        1 TH8     -0.658800
      7 C3         -0.9870    1.9390   -2.6790 c3        1 TH8      0.088500
      8 C4         -2.4120    1.8900   -3.2780 c3        1 TH8      0.115400
      9 O4         -3.3250    1.4470   -2.3030 oh        1 TH8     -0.603800
     10 C5          0.0420    2.2000   -3.8110 c3        1 TH8      0.175400
     11 O5          0.0220    1.0390   -4.6280 oh        1 TH8     -0.622800
     12 C6          1.4010    2.4770   -3.2390 ca        1 TH8     -0.139300
     13 C7          1.7340    3.7780   -2.8540 ca        1 TH8     -0.153500
     14 C8          3.0090    4.0500   -2.3560 ca        1 TH8     -0.010500
     15 C9          3.9600    3.0330   -2.2270 ca        1 TH8     -0.328500
     16 O9A         6.3800    2.3420   -2.1050 o         1 TH8     -0.634300
     17 O9B         5.8510    4.6960   -2.0700 o         1 TH8     -0.634300
     18 C10         3.6170    1.7350   -2.6190 ca        1 TH8     -0.010500
     19 C11         2.3470    1.4520   -3.1170 ca        1 TH8     -0.153500
     20 C12         5.3030    3.3070   -0.0350 c3        1 TH8     -0.374300
     21 S12         5.5470    3.3860   -1.7000 sy        1 TH8      1.391300
     22 H1         -2.0280   -0.9290    0.8390 h2        1 TH8      0.176700
     23 H2         -0.8960   -0.1240   -2.5920 hn        1 TH8      0.480300
     24 H3         -0.9160    2.7750   -1.9220 hx        1 TH8      0.122700
     25 H41C       -2.6600    2.9090   -3.6730 h1        1 TH8      0.098200
     26 H42C       -2.4570    1.1370   -4.1140 h1        1 TH8      0.098200
     27 H5         -0.3230    3.0920   -4.3990 h1        1 TH8      0.097700
     28 H4         -3.6830    2.2170   -1.8410 ho        1 TH8      0.437000
     29 HA          0.6130    1.1990   -5.3780 ho        1 TH8      0.456000
     30 H7          1.0060    4.5970   -2.9660 ha        1 TH8      0.148000
     31 H11         2.1080    0.4350   -3.4650 ha        1 TH8      0.148000
     32 H8          3.2810    5.0880   -2.0860 ha        1 TH8      0.177500
     33 H10         4.3770    0.9310   -2.5570 ha        1 TH8      0.177500
     34 H121        4.4880    3.9770    0.3350 h1        1 TH8      0.123367
     35 H122        6.2260    3.6230    0.5220 h1        1 TH8      0.123367
     36 H123        5.0680    2.2780    0.3340 h1        1 TH8      0.123367
     37 H22         0.3620    0.6350   -1.7900 hn        1 TH8      0.480300
@<TRIPOS>BOND
     1    1    2 1   
     2    1    3 1   
     3    1    4 1   
     4    1   22 1   
     5    4    5 2   
     6    4    6 1   
     7    6    7 1   
     8    6   23 1   
     9    6   37 1   
    10    7    8 1   
    11    7   10 1   
    12    7   24 1   
    13    8    9 1   
    14    8   25 1   
    15    8   26 1   
    16    9   28 1   
    17   10   11 1   
    18   10   12 1   
    19   10   27 1   
    20   11   29 1   
    21   12   13 ar  
    22   12   19 ar  
    23   13   14 ar  
    24   13   30 1   
    25   14   15 ar  
    26   14   32 1   
    27   15   18 ar  
    28   15   21 1   
    29   16   21 2   
    30   17   21 2   
    31   18   19 ar  
    32   18   33 1   
    33   19   31 1   
    34   20   21 1   
    35   20   34 1   
    36   20   35 1   
    37   20   36 1   
@<TRIPOS>SUBSTRUCTURE
     1 TH8         1 TEMP              0 ****  ****    0 ROOT
