@<TRIPOS>MOLECULE
TH8
   36    34     1     0     0
SMALL
bcc


@<TRIPOS>ATOM
      1 C1         -4.0710   -3.4090    0.2210 c3        1 TH8     -0.080000
      2 CL1        -4.2450   -4.4660    1.6090 cl        1 TH8     -0.048000
      3 CL2        -5.5470   -2.5630   -0.0490 cl        1 TH8     -0.048000
      4 C2         -2.9720   -2.4210    0.4830 c2        1 TH8      0.304000
      5 O2         -2.5090   -2.3100    1.6030 o         1 TH8     -0.348000
      6 N2         -2.4200   -1.6270   -0.6220 n         1 TH8     -0.342000
      7 C3         -1.8140   -0.3510   -0.3590 c3        1 TH8     -0.061000
      8 C4         -2.9100    0.7490   -0.2900 c3        1 TH8     -0.023000
      9 O4         -3.4480    0.7980    1.0200 oh        1 TH8     -0.314000
     10 C5         -0.8580   -0.0270   -1.4480 c3        1 TH8      0.042000
     11 O5         -0.6600   -1.1660   -2.2510 oh        1 TH8     -0.311000
     12 C6          0.4630    0.3990   -0.8500 c2        1 TH8     -0.049000
     13 C7          1.6010   -0.4130   -1.0230 c2        1 TH8     -0.146000
     14 C8          2.8520    0.0410   -0.6090 c1        1 TH8     -0.013000
     15 C9          2.9790    1.3010   -0.0210 c1        1 TH8     -0.823000
     16 O9A         5.6270    1.4460   -0.1780 o         1 TH8     -0.935000
     17 O9B         4.6600    3.2620    0.6030 o         1 TH8     -0.935000
     18 C10         1.8500    2.1080    0.1520 c1        1 TH8     -0.017000
     19 C11         0.5880    1.6500   -0.2660 c1        1 TH8     -0.145000
     20 C12         4.7470    1.2170    2.3610 c3        1 TH8     -0.938000
     21 S12         4.5410    1.8430    0.6530 s6        1 TH8      2.861000
     22 H1         -3.8510   -3.9390   -0.5680 h2        1 TH8      0.174000
     23 H2         -2.4170   -1.9710   -1.4830 hn        1 TH8      0.233000
     24 H3         -1.3210   -0.3890    0.5170 h1        1 TH8      0.140000
     25 H41C       -3.6170    0.5440   -0.9220 h1        1 TH8      0.096000
     26 H42C       -2.5090    1.6280   -0.5160 h1        1 TH8      0.096000
     27 H5         -1.2380    0.7350   -2.0220 h1        1 TH8      0.124000
     28 H4         -3.9570    1.5590    1.1150 ho        1 TH8      0.208000
     29 HA         -0.7780   -0.9480   -3.1170 ho        1 TH8      0.221000
     30 H7          1.5140   -1.2880   -1.4300 ha        1 TH8      0.151000
     31 H11        -0.2160    2.2260   -0.1430 ha        1 TH8      0.143000
     32 H8          3.6390   -0.5220   -0.7300 ha        1 TH8      0.159000
     33 H10         1.9370    2.9650    0.5520 ha        1 TH8      0.159000
     34 H121        5.6530    1.4540    2.6940 h1        1 TH8      0.154667
     35 H122        4.0620    1.6250    2.9480 h1        1 TH8      0.154667
     36 H123        4.6440    0.2600    2.3660 h1        1 TH8      0.154667
@<TRIPOS>BOND
     1    1    2 1   
     2    1    3 1   
     3    1    4 1   
     4    1   22 1   
     5    4    5 1   
     6    4    6 1   
     7    6    7 1   
     8    6   23 1   
     9    7    8 1   
    10    7   10 1   
    11    7   24 1   
    12    8    9 1   
    13    8   25 1   
    14    8   26 1   
    15    9   28 1   
    16   10   11 1   
    17   10   12 1   
    18   10   27 1   
    19   11   29 1   
    20   12   13 1   
    21   12   19 1   
    22   13   14 1   
    23   13   30 1   
    24   14   32 1   
    25   15   18 1   
    26   15   21 1   
    27   16   21 1   
    28   17   21 1   
    29   18   33 1   
    30   19   31 1   
    31   20   21 1   
    32   20   34 1   
    33   20   35 1   
    34   20   36 1   
@<TRIPOS>SUBSTRUCTURE
     1 TH8         1 TEMP              0 ****  ****    0 ROOT
