@<TRIPOS>MOLECULE
TH9
   52    49     1     0     0
SMALL
bcc


@<TRIPOS>ATOM
      1 CAA         0.0170    0.0600    0.0870 c2        1 TH9     -0.221500
      2 OAB        10.3060    6.2570   13.2640 o         1 TH9     -0.455500
      3 OAC        13.5670    3.0040   10.7130 o         1 TH9     -0.337000
      4 OAD         9.3670    4.1910   13.4980 o         1 TH9     -0.455500
      5 OAE        12.5460    4.1340   13.2460 oh        1 TH9     -0.164000
      6 CAF        11.4070    4.0180   11.1170 c2        1 TH9     -0.486000
      7 CAG         8.7300   -0.9770    2.3470 c1        1 TH9      0.143000
      8 CAH        10.2040   -0.5430    5.2430 c3        1 TH9     -0.215000
      9 CAI         8.1140   -0.4090    3.2860 c1        1 TH9     -0.704000
     10 CAJ         7.9670    0.5120    5.6080 c2        1 TH9     -0.216000
     11 CAK         0.9970    0.9530    0.1070 c2        1 TH9     -0.221500
     12 CAL         1.4430   -0.8060    3.4320 c3        1 TH9     -0.278000
     13 CAM         4.6560    0.4570    0.0060 cx        1 TH9     -0.161000
     14 CAN         4.3470   -0.1840    1.3150 cu        1 TH9     -0.214000
     15 CAO        10.6540    1.6640    7.4160 c3        1 TH9     -0.183000
     16 CAP        11.0890    1.9680    8.8430 c3        1 TH9     -0.134000
     17 CAQ         5.5880   -0.3070    0.8820 cu        1 TH9     -0.214000
     18 NAS        12.0900    3.0610    8.9290 ny        1 TH9     -0.106000
     19 OAT         6.1640    0.6100    4.1430 oh        1 TH9     -0.238000
     20 CAU        10.2380    5.0210   13.1850 c2        1 TH9      0.396000
     21 CAV        12.4270    3.3780   10.4040 c2        1 TH9      0.305000
     22 CAW        11.4990    4.3490   12.4700 c2        1 TH9      0.206000
     23 CAX         9.2030    0.1890    6.0460 c2        1 TH9      0.019000
     24 CAY         7.4490    0.2010    4.2870 c2        1 TH9      0.407000
     25 H1          0.5190   -0.9970    4.0210 hc        1 TH9      0.069500
     26 H2         -1.0390    0.3390   -0.0350 ha        1 TH9      0.110750
     27 H3          0.1950   -1.0190    0.1910 ha        1 TH9      0.110750
     28 H5         13.2900    3.7120   12.7700 ho        1 TH9      0.230000
     29 H6         10.4560    4.2820   10.6320 ha        1 TH9      0.174000
     30 H7         10.4520    0.0290    4.3110 hc        1 TH9      0.110667
     31 H8         11.1430   -0.7270    5.8180 hc        1 TH9      0.110667
     32 H9          9.7860   -1.5310    4.9110 hc        1 TH9      0.110667
     33 H10         7.2590    1.0490    6.2670 ha        1 TH9      0.158000
     34 H11         1.1660   -0.4320    2.4190 hc        1 TH9      0.069500
     35 H12         2.0550    0.6740    0.2280 ha        1 TH9      0.110750
     36 H13         0.8180    2.0320    0.0020 ha        1 TH9      0.110750
     37 H14         2.0620   -0.0440    3.9530 hc        1 TH9      0.069500
     38 H15         2.0200   -1.7520    3.3350 hc        1 TH9      0.069500
     39 H16         4.2830    0.0130   -0.9360 hc        1 TH9      0.095000
     40 H17         4.7370    1.5580   -0.0710 hc        1 TH9      0.095000
     41 H18         3.5660   -0.3720    2.0250 ha        1 TH9      0.201000
     42 H19        10.2160    2.5800    6.9370 hc        1 TH9      0.104000
     43 H20        11.5330    1.3420    6.7960 hc        1 TH9      0.104000
     44 H21        10.1960    2.2710    9.4660 hx        1 TH9      0.150500
     45 H22        11.5470    1.0500    9.3130 hx        1 TH9      0.150500
     46 H23         5.8440    0.3870    3.2450 ho        1 TH9      0.268000
     47 H24         6.5950   -0.6660    0.9840 ha        1 TH9      0.201000
     48 H25         8.7240    0.8930    8.0360 hc        1 TH9      0.111500
     49 H26        10.0340   -0.3520    7.9420 hc        1 TH9      0.111500
     50 H27        11.7190    3.9040    8.4880 hn        1 TH9      0.234500
     51 HAS2       12.9500    2.7840    8.4460 hn        1 TH9      0.234500
     52 CAR         9.6130    0.5590    7.4350 c3        1 TH9     -0.146000
@<TRIPOS>BOND
     1    1   11 1   
     2    1   26 1   
     3    1   27 1   
     4    2   20 1   
     5    3   21 1   
     6    4   20 1   
     7    5   22 1   
     8    5   28 1   
     9    6   21 1   
    10    6   22 1   
    11    6   29 1   
    12    7    9 1   
    13    8   23 1   
    14    8   30 1   
    15    8   31 1   
    16    8   32 1   
    17    9   24 1   
    18   10   23 1   
    19   10   24 1   
    20   10   33 1   
    21   11   35 1   
    22   11   36 1   
    23   12   25 1   
    24   12   34 1   
    25   12   37 1   
    26   12   38 1   
    27   13   14 1   
    28   13   17 1   
    29   13   39 1   
    30   13   40 1   
    31   14   17 1   
    32   14   41 1   
    33   15   16 1   
    34   15   42 1   
    35   15   43 1   
    36   15   52 1   
    37   16   18 1   
    38   16   44 1   
    39   16   45 1   
    40   17   47 1   
    41   18   21 1   
    42   18   50 1   
    43   18   51 1   
    44   19   24 1   
    45   19   46 1   
    46   20   22 1   
    47   23   52 1   
    48   48   52 1   
    49   49   52 1   
@<TRIPOS>SUBSTRUCTURE
     1 TH9         1 TEMP              0 ****  ****    0 ROOT
