@<TRIPOS>MOLECULE
TH9
   52    47     1     0     0
SMALL
bcc


@<TRIPOS>ATOM
      1 CAA         2.3780   -1.4960    2.7330 c2        1 TH9     -0.220500
      2 OAB        11.3860    3.9490   15.7950 o         1 TH9     -0.216500
      3 OAC         8.1360    0.8980    9.6530 oh        1 TH9     -0.266000
      4 OAD        12.3240    2.1790   14.5100 o         1 TH9     -0.216500
      5 OAE        10.4730    2.8220   12.9600 oh        1 TH9     -0.304000
      6 CAF         9.2680    2.5400   10.9380 c1        1 TH9     -0.587000
      7 CAG         7.6370   -2.8540    2.4770 c1        1 TH9     -0.116000
      8 CAH         9.7340    1.8490    2.3500 cx        1 TH9     -0.158000
      9 CAI         7.4310   -2.0270    3.3250 c1        1 TH9     -0.285000
     10 CAJ        10.0650    3.0450    3.1700 cu        1 TH9     -0.205000
     11 CAK         2.9580   -1.4630    1.5410 c2        1 TH9     -0.220500
     12 CAL         3.4290    0.5540    5.6670 c3        1 TH9     -0.278000
     13 CAM         5.3510    1.2460    1.5770 cx        1 TH9     -0.189000
     14 CAN         4.7880    2.0300    2.7140 cu        1 TH9     -0.190500
     15 CAO        10.1100    1.9190    6.2640 c2        1 TH9     -0.254000
     16 CAP         9.3880    1.6740    7.3770 c2        1 TH9     -0.017000
     17 CAQ         4.7070    2.5880    1.5230 cu        1 TH9     -0.190500
     18 NAS         9.4890    2.4280    8.5450 n3        1 TH9     -0.270000
     19 OAT         6.5330   -0.1470    4.4590 oh        1 TH9     -0.156000
     20 CAU        11.8470    3.0670   15.1450 c1        1 TH9      0.433000
     21 CAV         8.9900    1.9870    9.7690 c2        1 TH9      0.321000
     22 CAW         9.4830    3.1500   12.0660 c2        1 TH9      0.161000
     23 CAX         9.9320    1.9080    3.8280 cu        1 TH9     -0.129000
     24 CAY         7.3360   -1.1590    4.4390 c1        1 TH9      0.143000
     25 H1          3.0600    0.1000    6.6120 hc        1 TH9      0.069750
     26 H2          1.5410   -0.8390    3.0040 ha        1 TH9      0.110750
     27 H3          2.6950   -2.1830    3.5300 ha        1 TH9      0.110750
     28 H5         11.0010    2.0880   12.6110 ho        1 TH9      0.234000
     29 H6          8.8970    3.9970   12.4690 h4        1 TH9      0.160000
     30 H7         10.4990    1.3830    1.7020 hc        1 TH9      0.084000
     31 H8          7.8240   -3.5870    1.7310 ha        1 TH9      0.225000
     32 H9          8.7180    1.7240    1.9280 hc        1 TH9      0.084000
     33 H10        10.2590    4.0950    3.1380 ha        1 TH9      0.186000
     34 H11         2.9990    0.0050    4.7990 hc        1 TH9      0.069750
     35 H12         3.7940   -2.1210    1.2680 ha        1 TH9      0.110750
     36 H13         2.6390   -0.7770    0.7450 ha        1 TH9      0.110750
     37 H14         3.1190    1.6200    5.6230 hc        1 TH9      0.069750
     38 H15         4.5400    0.4870    5.6350 hc        1 TH9      0.069750
     39 H16         6.4460    1.1480    1.4500 hc        1 TH9      0.092000
     40 H17         4.8140    0.3540    1.1970 hc        1 TH9      0.092000
     41 H18         4.6170    2.0210    3.7730 ha        1 TH9      0.194000
     42 H19        11.6290    4.5280    4.9440 ha        1 TH9      0.000500
     43 H20        10.8580    2.7240    6.2040 ha        1 TH9      0.127000
     44 H21        11.9820    4.8010    5.4530 ha        1 TH9      0.000500
     45 H22         8.6320    0.8630    7.4170 h4        1 TH9      0.172000
     46 H23         5.9830    0.0200    3.6600 ho        1 TH9      0.188000
     47 H24         4.4250    3.3880    0.8730 ha        1 TH9      0.194000
     48 H25         8.9820    0.5020    5.0790 hc        1 TH9      0.113500
     49 H26        10.7850    0.3640    4.9680 hc        1 TH9      0.113500
     50 H27         7.7540    0.7440   10.5300 ho        1 TH9      0.242000
     51 HAS2       10.2000    3.1230    8.6010 hn        1 TH9      0.235000
     52 CAR         9.9360    1.1080    5.0330 c3        1 TH9     -0.044000
@<TRIPOS>BOND
     1    1   11 1   
     2    1   26 1   
     3    1   27 1   
     4    2   20 1   
     5    3   21 1   
     6    3   50 1   
     7    4   20 1   
     8    5   22 1   
     9    5   28 1   
    10    6   21 1   
    11    6   22 1   
    12    7    9 1   
    13    7   31 1   
    14    8   10 1   
    15    8   23 1   
    16    8   30 1   
    17    8   32 1   
    18    9   24 1   
    19   10   23 1   
    20   10   33 1   
    21   11   35 1   
    22   11   36 1   
    23   12   25 1   
    24   12   34 1   
    25   12   37 1   
    26   12   38 1   
    27   13   14 1   
    28   13   17 1   
    29   13   39 1   
    30   13   40 1   
    31   14   17 1   
    32   14   41 1   
    33   15   16 1   
    34   15   43 1   
    35   15   52 1   
    36   16   18 1   
    37   16   45 1   
    38   17   47 1   
    39   18   21 1   
    40   18   51 1   
    41   19   24 1   
    42   19   46 1   
    43   22   29 1   
    44   23   52 1   
    45   42   44 1   
    46   48   52 1   
    47   49   52 1   
@<TRIPOS>SUBSTRUCTURE
     1 TH9         1 TEMP              0 ****  ****    0 ROOT
