@<TRIPOS>MOLECULE
TH9
   51    51     1     0     0
SMALL
bcc


@<TRIPOS>ATOM
      1 CAA        10.7220    2.8420   -0.5040 c3        1 TH9     -0.092100
      2 OAB        -8.3480    1.0160    1.4290 o         1 TH9     -0.804800
      3 OAC        -5.0140   -2.4770   -0.1570 o         1 TH9     -0.668100
      4 OAD        -7.1550    2.9120    1.2490 o         1 TH9     -0.804800
      5 OAE        -5.0620    1.7390    0.1890 oh        1 TH9     -0.558100
      6 CAF        -6.0860   -0.4020    0.2790 ce        1 TH9     -0.338200
      7 CAG         1.9090   -2.1710    1.9100 ca        1 TH9     -0.098000
      8 CAH         0.7790   -2.2890    1.1100 ca        1 TH9     -0.156000
      9 CAI         3.0670   -1.5600    1.4250 ca        1 TH9     -0.213000
     10 CAJ         1.9330   -1.1760   -0.7020 ca        1 TH9     -0.157000
     11 CAK         9.7240    2.0660    0.3150 c3        1 TH9     -0.080400
     12 CAL         8.4890    1.7240   -0.4920 c3        1 TH9     -0.078400
     13 CAM         7.4890    0.9440    0.3350 c3        1 TH9     -0.078400
     14 CAN         6.2590    0.6060   -0.4760 c3        1 TH9     -0.086400
     15 CAO        -1.5890   -1.1110   -0.5360 c3        1 TH9     -0.108400
     16 CAP        -2.8230   -1.3370   -1.4170 c3        1 TH9      0.091000
     17 CAQ         5.2680   -0.1750    0.3700 c3        1 TH9      0.130400
     18 NAS        -3.9950   -0.6210   -1.0160 n         1 TH9     -0.568900
     19 OAT         4.1570   -0.4560   -0.4880 os        1 TH9     -0.335900
     20 CAU        -7.3240    1.6630    1.1130 c         1 TH9      0.889800
     21 CAV        -5.0110   -1.2270   -0.2770 c         1 TH9      0.681300
     22 CAW        -6.1220    0.9290    0.4960 cf        1 TH9      0.075900
     23 CAX         0.7850   -1.7910   -0.2030 ca        1 TH9     -0.036300
     24 CAY         3.0710   -1.0650    0.1170 ca        1 TH9      0.121100
     25 H1         11.6240    3.0830    0.1090 hc        1 TH9      0.031700
     26 H2         11.0480    2.2490   -1.3930 hc        1 TH9      0.031700
     27 H3         10.2750    3.7990   -0.8670 hc        1 TH9      0.031700
     28 H5         -5.3120    2.6510    0.4470 ho        1 TH9      0.458000
     29 H6         -6.9800   -0.9780    0.5790 ha        1 TH9      0.175000
     30 H7          1.8950   -2.5600    2.9390 ha        1 TH9      0.128000
     31 H8         -0.1310   -2.7690    1.5010 ha        1 TH9      0.143000
     32 H9          3.9500   -1.4750    2.0710 ha        1 TH9      0.129000
     33 H10         1.9640   -0.7750   -1.7250 ha        1 TH9      0.146000
     34 H11        10.1980    1.1210    0.6910 hc        1 TH9      0.038200
     35 H12         9.4270    2.6660    1.2160 hc        1 TH9      0.038200
     36 H13         8.0120    2.6670   -0.8670 hc        1 TH9      0.041700
     37 H14         8.7830    1.1220   -1.3920 hc        1 TH9      0.041700
     38 H15         7.9660    0.0000    0.7110 hc        1 TH9      0.039700
     39 H16         7.1950    1.5470    1.2350 hc        1 TH9      0.039700
     40 H17         5.7700    1.5430   -0.8510 hc        1 TH9      0.056700
     41 H18         6.5410   -0.0030   -1.3750 hc        1 TH9      0.056700
     42 H19        -1.3140   -0.0250   -0.5270 hc        1 TH9      0.050200
     43 H20        -1.8170   -1.4080    0.5210 hc        1 TH9      0.050200
     44 H21        -2.5640   -1.0200   -2.4700 h1        1 TH9      0.047200
     45 H22        -3.0600   -2.4400   -1.4320 h1        1 TH9      0.047200
     46 H23         5.7150   -1.1390    0.7270 h1        1 TH9      0.036700
     47 H24         4.9260    0.4290    1.2510 h1        1 TH9      0.036700
     48 H25        -0.7230   -3.0160   -1.0900 hc        1 TH9      0.048200
     49 H26        -0.1930   -1.6190   -2.1110 hc        1 TH9      0.048200
     50 H27        -3.9090    0.3690   -0.9600 hn        1 TH9      0.318500
     51 CAR        -0.4260   -1.9310   -1.0580 c3        1 TH9     -0.039100
@<TRIPOS>BOND
     1    1   11 1   
     2    1   25 1   
     3    1   26 1   
     4    1   27 1   
     5    2   20 1   
     6    3   21 2   
     7    4   20 1   
     8    5   22 1   
     9    5   28 1   
    10    6   21 1   
    11    6   22 2   
    12    6   29 1   
    13    7    8 ar  
    14    7    9 ar  
    15    7   30 1   
    16    8   23 ar  
    17    8   31 1   
    18    9   24 ar  
    19    9   32 1   
    20   10   23 ar  
    21   10   24 ar  
    22   10   33 1   
    23   11   12 1   
    24   11   34 1   
    25   11   35 1   
    26   12   13 1   
    27   12   36 1   
    28   12   37 1   
    29   13   14 1   
    30   13   38 1   
    31   13   39 1   
    32   14   17 1   
    33   14   40 1   
    34   14   41 1   
    35   15   16 1   
    36   15   42 1   
    37   15   43 1   
    38   15   51 1   
    39   16   18 1   
    40   16   44 1   
    41   16   45 1   
    42   17   19 1   
    43   17   46 1   
    44   17   47 1   
    45   18   21 1   
    46   18   50 1   
    47   19   24 1   
    48   20   22 1   
    49   23   51 1   
    50   48   51 1   
    51   49   51 1   
@<TRIPOS>SUBSTRUCTURE
     1 TH9         1 TEMP              0 ****  ****    0 ROOT
