@<TRIPOS>MOLECULE
TH9
   51    47     1     0     0
SMALL
bcc


@<TRIPOS>ATOM
      1 CAA        -5.6970    5.3100   -5.9930 c3        1 TH9     -0.210000
      2 OAB         6.1590   -5.0640    8.1780 o         1 TH9     -0.542000
      3 OAC         5.5200   -3.4370    3.4400 o         1 TH9     -0.393000
      4 OAD         5.6040   -6.9520    7.2340 o         1 TH9     -0.542000
      5 OAE         6.8780   -5.0520    4.9020 oh        1 TH9     -0.260000
      6 CAF         4.6200   -4.3560    5.4470 c1        1 TH9     -0.353000
      7 CAG         0.3360    2.0660    1.0910 c1        1 TH9     -0.155000
      8 CAH         1.0980    0.8840    1.2680 c1        1 TH9     -0.156000
      9 CAI        -0.7620    2.0630    0.2410 c1        1 TH9     -0.155000
     10 CAJ        -0.3640   -0.2760   -0.2670 c1        1 TH9     -0.158000
     11 CAK        -4.5310    4.2940   -5.7520 c3        1 TH9     -0.159000
     12 CAL        -4.8220    3.4730   -4.5110 c3        1 TH9     -0.157000
     13 CAM        -3.6050    2.5720   -4.1890 c3        1 TH9     -0.157000
     14 CAN        -3.7830    1.9550   -2.7940 c3        1 TH9     -0.165000
     15 CAO         1.8230   -1.9680    2.0930 c3        1 TH9     -0.190000
     16 CAP         3.0850   -2.7690    2.2400 c3        1 TH9     -0.031000
     17 CAQ        -2.4920    1.2460   -2.3770 c3        1 TH9     -0.020000
     18 CAR         1.6760   -1.5100    0.6500 c3        1 TH9     -0.124000
     19 NAS         3.2380   -3.1750    3.6140 n3        1 TH9     -0.383000
     20 OAT        -2.4160    1.1990   -0.9450 os        1 TH9     -0.219000
     21 CAU         5.8870   -5.7270    7.1410 c2        1 TH9      0.335000
     22 CAV         4.5190   -3.6480    4.0890 c1        1 TH9      0.353000
     23 CAW         5.7860   -5.0240    5.7960 c2        1 TH9      0.081000
     24 CAX         0.7470   -0.2760    0.5920 c1        1 TH9     -0.030000
     25 CAY        -1.1160    0.8920   -0.4410 c1        1 TH9      0.076000
     26 H1         -5.5870    5.7280   -6.8640 hc        1 TH9      0.071000
     27 H2         -5.6790    5.9960   -5.2970 hc        1 TH9      0.071000
     28 H3         -6.5640    4.8320   -5.9640 hc        1 TH9      0.071000
     29 H5          7.6210   -4.7750    5.3270 ho        1 TH9      0.244000
     30 H6          3.8680   -4.3370    6.0620 ha        1 TH9      0.156000
     31 H7          0.5760    2.8930    1.5920 ha        1 TH9      0.129000
     32 H8          1.8960    0.8850    1.8850 ha        1 TH9      0.145000
     33 H9         -1.2950    2.8890    0.1170 ha        1 TH9      0.129000
     34 H10        -0.6190   -1.1140   -0.7560 ha        1 TH9      0.145000
     35 H11        -4.4500    3.6950   -6.5300 hc        1 TH9      0.077500
     36 H12        -3.6890    4.7870   -5.6280 hc        1 TH9      0.077500
     37 H13        -5.6020    2.9180   -4.6660 hc        1 TH9      0.081000
     38 H14        -4.9900    4.0610   -3.7700 hc        1 TH9      0.081000
     39 H15        -3.5410    1.8590   -4.8560 hc        1 TH9      0.079000
     40 H16        -2.7850    3.1100   -4.2050 hc        1 TH9      0.079000
     41 H17        -4.5200    1.3090   -2.8140 hc        1 TH9      0.096000
     42 H18        -3.9890    2.6640   -2.1470 hc        1 TH9      0.096000
     43 H19         1.0560   -2.5210    2.3390 hc        1 TH9      0.088500
     44 H20         1.8620   -1.1850    2.6810 hc        1 TH9      0.088500
     45 H21         3.8510   -2.2240    1.9740 h1        1 TH9      0.088000
     46 H22         3.0370   -3.5570    1.6730 h1        1 TH9      0.088000
     47 H23        -1.7250    1.7340   -2.7270 h1        1 TH9      0.076000
     48 H24        -2.4890    0.3200   -2.7400 h1        1 TH9      0.076000
     49 H25         1.2850   -2.2430    0.1090 hc        1 TH9      0.088000
     50 H26         2.5630   -1.2710    0.2890 hc        1 TH9      0.088000
     51 H27         2.5220   -3.1760    4.1670 hn        1 TH9      0.200000
@<TRIPOS>BOND
     1    1   11 1   
     2    1   26 1   
     3    1   27 1   
     4    1   28 1   
     5    2   21 1   
     6    3   22 1   
     7    4   21 1   
     8    5   23 1   
     9    5   29 1   
    10    6   23 1   
    11    6   30 1   
    12    7    9 1   
    13    7   31 1   
    14    8   24 1   
    15    8   32 1   
    16    9   33 1   
    17   10   25 1   
    18   10   34 1   
    19   11   12 1   
    20   11   35 1   
    21   11   36 1   
    22   12   13 1   
    23   12   37 1   
    24   12   38 1   
    25   13   14 1   
    26   13   39 1   
    27   13   40 1   
    28   14   17 1   
    29   14   41 1   
    30   14   42 1   
    31   15   16 1   
    32   15   18 1   
    33   15   43 1   
    34   15   44 1   
    35   16   19 1   
    36   16   45 1   
    37   16   46 1   
    38   17   20 1   
    39   17   47 1   
    40   17   48 1   
    41   18   24 1   
    42   18   49 1   
    43   18   50 1   
    44   19   22 1   
    45   19   51 1   
    46   20   25 1   
    47   21   23 1   
@<TRIPOS>SUBSTRUCTURE
     1 TH9         1 TEMP              0 ****  ****    0 ROOT
