@<TRIPOS>MOLECULE
THA
   29    31     1     0     0
SMALL
bcc


@<TRIPOS>ATOM
      1 C1         -0.9880    0.0110    3.6880 ca        1 THA     -0.119000
      2 C2         -1.6340   -0.0300    2.4810 ca        1 THA     -0.173300
      3 C3         -0.8900   -0.0180    1.2530 ca        1 THA      0.429600
      4 C4          0.5350    0.0300    1.3150 ca        1 THA     -0.182300
      5 C5          1.1640    0.0800    2.5870 ca        1 THA     -0.105000
      6 C6          0.4240    0.0690    3.7430 ca        1 THA     -0.142000
      7 N7         -1.5810   -0.0470    0.0660 nb        1 THA     -0.704000
      8 C8         -0.8950   -0.0480   -1.0760 ca        1 THA      0.477600
      9 C9          0.5370   -0.0300   -1.1390 ca        1 THA     -0.275600
     10 C10         1.2610    0.0330    0.0640 ca        1 THA      0.193600
     11 C11        -1.7010   -0.0960   -2.3490 c3        1 THA     -0.133700
     12 C12        -0.9280    0.4210   -3.5400 c3        1 THA     -0.078400
     13 C13         0.3930   -0.3020   -3.6490 c3        1 THA     -0.075400
     14 C14         1.2610   -0.0360   -2.4380 c3        1 THA     -0.017100
     15 N15         2.6450    0.1710    0.0680 nh        1 THA     -0.828200
     16 H1         -1.5600    0.0010    4.6280 ha        1 THA      0.134000
     17 H2         -2.7340   -0.0710    2.4310 ha        1 THA      0.150000
     18 H5          2.2590    0.1410    2.6680 ha        1 THA      0.123000
     19 H6          0.9200    0.1080    4.7240 ha        1 THA      0.132000
     20 H111       -2.6470    0.4990   -2.2330 hc        1 THA      0.064700
     21 H112       -1.9990   -1.1650   -2.5270 hc        1 THA      0.064700
     22 H121       -0.7510    1.5240   -3.4340 hc        1 THA      0.047200
     23 H122       -1.5310    0.2630   -4.4710 hc        1 THA      0.047200
     24 H131        0.9380    0.0290   -4.5720 hc        1 THA      0.042200
     25 H132        0.2070   -1.4040   -3.7480 hc        1 THA      0.042200
     26 H141        1.7670    0.9620   -2.5660 hc        1 THA      0.040200
     27 H142        2.0700   -0.8200   -2.4210 hc        1 THA      0.040200
     28 HN51        3.1140   -0.1330    0.8890 hn        1 THA      0.402300
     29 HN52        3.1110   -0.0750   -0.7760 hn        1 THA      0.402300
@<TRIPOS>BOND
     1    1    2 ar  
     2    1    6 ar  
     3    1   16 1   
     4    2    3 ar  
     5    2   17 1   
     6    3    4 ar  
     7    3    7 ar  
     8    4    5 ar  
     9    4   10 ar  
    10    5    6 ar  
    11    5   18 1   
    12    6   19 1   
    13    7    8 ar  
    14    8    9 ar  
    15    8   11 1   
    16    9   10 ar  
    17    9   14 1   
    18   10   15 1   
    19   11   12 1   
    20   11   20 1   
    21   11   21 1   
    22   12   13 1   
    23   12   22 1   
    24   12   23 1   
    25   13   14 1   
    26   13   24 1   
    27   13   25 1   
    28   14   26 1   
    29   14   27 1   
    30   15   28 1   
    31   15   29 1   
@<TRIPOS>SUBSTRUCTURE
     1 THA         1 TEMP              0 ****  ****    0 ROOT
