@<TRIPOS>MOLECULE
THA
   30    32     1     0     0
SMALL
bcc


@<TRIPOS>ATOM
      1 C1         -0.0330    0.0080   -0.0560 ca        1 THA     -0.110000
      2 C2          1.3390    0.0140   -0.0310 ca        1 THA     -0.132300
      3 C3          2.0400    0.0030    1.2200 ca        1 THA      0.414600
      4 C4          1.2800   -0.0090    2.4330 ca        1 THA     -0.136300
      5 C5         -0.1360   -0.0220    2.3650 ca        1 THA     -0.173000
      6 C6         -0.7760   -0.0130    1.1470 ca        1 THA     -0.061000
      7 N7          3.4140    0.0050    1.2150 nb        1 THA     -0.606000
      8 C8          4.0820   -0.0170    2.3620 ca        1 THA      0.449600
      9 C9          3.4250   -0.0330    3.6530 ca        1 THA     -0.109600
     10 C10         2.0340   -0.0080    3.6520 ca        1 THA     -0.046400
     11 C11         5.5870   -0.0470    2.2910 c3        1 THA     -0.141700
     12 C12         6.2400    0.4260    3.5690 c3        1 THA     -0.087400
     13 C13         5.6790   -0.3260    4.7520 c3        1 THA     -0.077400
     14 C14         4.2000   -0.0390    4.9230 c3        1 THA     -0.060100
     15 N15         1.2860    0.0250    4.9120 n4        1 THA     -0.705000
     16 H1         -0.5720    0.0170   -1.0180 ha        1 THA      0.168000
     17 H2          1.9240    0.0260   -0.9680 ha        1 THA      0.180000
     18 H5         -0.7490   -0.0500    3.2770 ha        1 THA      0.116000
     19 H6         -1.8770   -0.0240    1.0960 ha        1 THA      0.161000
     20 H111        5.9450    0.5860    1.4330 hc        1 THA      0.090200
     21 H112        5.8970   -1.1070    2.0730 hc        1 THA      0.090200
     22 H121        7.3470    0.2520    3.5000 hc        1 THA      0.067700
     23 H122        6.0820    1.5280    3.7020 hc        1 THA      0.067700
     24 H131        6.2170   -0.0270    5.6900 hc        1 THA      0.067700
     25 H132        5.8370   -1.4270    4.6100 hc        1 THA      0.067700
     26 H141        4.0870    0.9730    5.4080 hc        1 THA      0.054700
     27 H142        3.7840   -0.8120    5.6270 hc        1 THA      0.054700
     28 HN51        1.9050    0.2550    5.6970 hn        1 THA      0.464467
     29 HN52        0.8540   -0.8920    5.0730 hn        1 THA      0.464467
     30 H153        0.5470    0.7370    4.8440 hn        1 THA      0.464467
@<TRIPOS>BOND
     1    1    2 ar  
     2    1    6 ar  
     3    1   16 1   
     4    2    3 ar  
     5    2   17 1   
     6    3    4 ar  
     7    3    7 ar  
     8    4    5 ar  
     9    4   10 ar  
    10    5    6 ar  
    11    5   18 1   
    12    6   19 1   
    13    7    8 ar  
    14    8    9 ar  
    15    8   11 1   
    16    9   10 ar  
    17    9   14 1   
    18   10   15 1   
    19   11   12 1   
    20   11   20 1   
    21   11   21 1   
    22   12   13 1   
    23   12   22 1   
    24   12   23 1   
    25   13   14 1   
    26   13   24 1   
    27   13   25 1   
    28   14   26 1   
    29   14   27 1   
    30   15   28 1   
    31   15   29 1   
    32   15   30 1   
@<TRIPOS>SUBSTRUCTURE
     1 THA         1 TEMP              0 ****  ****    0 ROOT
