@<TRIPOS>MOLECULE
THA
   29    31     1     0     0
SMALL
bcc


@<TRIPOS>ATOM
      1 C1         -0.0330    0.0020   -0.0460 ca        1 THA     -0.119000
      2 C2          1.3370   -0.0140   -0.0170 ca        1 THA     -0.173300
      3 C3          2.0400   -0.0100    1.2350 ca        1 THA      0.429600
      4 C4          1.2850    0.0050    2.4460 ca        1 THA     -0.182300
      5 C5         -0.1320    0.0310    2.3700 ca        1 THA     -0.105000
      6 C6         -0.7760    0.0280    1.1570 ca        1 THA     -0.142000
      7 N7          3.4140   -0.0140    1.2160 nb        1 THA     -0.704000
      8 C8          4.0710   -0.0220    2.3750 ca        1 THA      0.477600
      9 C9          3.4230   -0.0360    3.6530 ca        1 THA     -0.275600
     10 C10         2.0180    0.0010    3.6930 ca        1 THA      0.193600
     11 C11         5.5770   -0.0420    2.2970 c3        1 THA     -0.133700
     12 C12         6.2250    0.4660    3.5640 c3        1 THA     -0.078400
     13 C13         5.6840   -0.2860    4.7570 c3        1 THA     -0.075400
     14 C14         4.1980   -0.0490    4.9220 c3        1 THA     -0.017100
     15 N15         1.3330    0.1080    4.8990 nh        1 THA     -0.828200
     16 H1         -0.5710   -0.0010   -1.0060 ha        1 THA      0.134000
     17 H2          1.9210   -0.0290   -0.9510 ha        1 THA      0.150000
     18 H5         -0.7420    0.0660    3.2850 ha        1 THA      0.123000
     19 H6         -1.8740    0.0490    1.1070 ha        1 THA      0.132000
     20 H111        5.9300    0.5730    1.4260 hc        1 THA      0.064700
     21 H112        5.8970   -1.1030    2.1080 hc        1 THA      0.064700
     22 H121        7.3350    0.3280    3.4940 hc        1 THA      0.047200
     23 H122        6.0270    1.5630    3.6840 hc        1 THA      0.047200
     24 H131        5.8810   -1.3830    4.6260 hc        1 THA      0.042200
     25 H132        6.2150    0.0400    5.6900 hc        1 THA      0.042200
     26 H141        3.8000   -0.8500    5.6050 hc        1 THA      0.040200
     27 H142        4.0440    0.9390    5.4410 hc        1 THA      0.040200
     28 HN51        1.8440   -0.1420    5.7150 hn        1 THA      0.402300
     29 HN52        0.3920   -0.2130    4.8980 hn        1 THA      0.402300
@<TRIPOS>BOND
     1    1    2 ar  
     2    1    6 ar  
     3    1   16 1   
     4    2    3 ar  
     5    2   17 1   
     6    3    4 ar  
     7    3    7 ar  
     8    4    5 ar  
     9    4   10 ar  
    10    5    6 ar  
    11    5   18 1   
    12    6   19 1   
    13    7    8 ar  
    14    8    9 ar  
    15    8   11 1   
    16    9   10 ar  
    17    9   14 1   
    18   10   15 1   
    19   11   12 1   
    20   11   20 1   
    21   11   21 1   
    22   12   13 1   
    23   12   22 1   
    24   12   23 1   
    25   13   14 1   
    26   13   24 1   
    27   13   25 1   
    28   14   26 1   
    29   14   27 1   
    30   15   28 1   
    31   15   29 1   
@<TRIPOS>SUBSTRUCTURE
     1 THA         1 TEMP              0 ****  ****    0 ROOT
