@<TRIPOS>MOLECULE
THB
   32    33     1     0     0
SMALL
bcc


@<TRIPOS>ATOM
      1 N1          0.0470   -0.2620   -0.0480 nc        1 THB     -0.709300
      2 N2          2.1030   -0.4250   -1.2330 nv        1 THB     -0.889800
      3 C2          1.3930   -0.2910   -0.0150 cd        1 THB      0.682800
      4 N3          2.1390   -0.2540    1.1720 ns        1 THB     -0.498400
      5 C4          1.4990   -0.1770    2.4300 c         1 THB      0.728700
      6 O4          2.2290   -0.1730    3.4380 o         1 THB     -0.634500
      7 C4A         0.0380   -0.1230    2.4080 cd        1 THB     -0.201200
      8 C8A        -0.6330   -0.2580    1.1760 cc        1 THB      0.389600
      9 N8         -2.0190   -0.4040    1.1410 nu        1 THB     -0.733000
     10 C7         -2.7530   -0.3170    2.3740 c3        1 THB      0.174800
     11 C6         -2.0280    0.4610    3.5070 c3        1 THB      0.161500
     12 N5         -0.6210    0.1220    3.6380 nu        1 THB     -0.666000
     13 C9         -2.2240    1.9860    3.2910 c3        1 THB      0.109100
     14 O9         -3.6350    2.1690    3.2760 oh        1 THB     -0.610800
     15 C10        -1.5500    2.8130    4.4070 c3        1 THB      0.131100
     16 O10        -0.2540    3.2110    3.9860 oh        1 THB     -0.607800
     17 C11        -2.3000    4.0960    4.7210 c3        1 THB     -0.102100
     18 HN21        2.9500    0.0970   -1.2860 hn        1 THB      0.417300
     19 HN22        1.5350   -0.3550   -2.0500 hn        1 THB      0.417300
     20 H3          3.1320   -0.3300    1.1580 hn        1 THB      0.336500
     21 H8         -2.4910   -0.1220    0.3110 hn        1 THB      0.434800
     22 H71        -3.7550    0.1620    2.1880 h1        1 THB      0.064700
     23 H72        -2.9290   -1.3720    2.7370 h1        1 THB      0.064700
     24 H6         -2.5520    0.1980    4.4730 h1        1 THB      0.077700
     25 H5         -0.4830   -0.6470    4.2690 hn        1 THB      0.386800
     26 H9         -1.7900    2.2950    2.2990 h1        1 THB      0.053700
     27 HO9        -3.7930    3.0900    3.0360 ho        1 THB      0.411000
     28 H10        -1.4760    2.1890    5.3420 h1        1 THB      0.044700
     29 HO1         0.2990    2.4190    3.9640 ho        1 THB      0.427000
     30 H111       -3.3060    3.8530    5.1390 hc        1 THB      0.046367
     31 H112       -2.4180    4.7170    3.8010 hc        1 THB      0.046367
     32 H113       -1.7240    4.6890    5.4700 hc        1 THB      0.046367
@<TRIPOS>BOND
     1    1    3 2   
     2    1    8 1   
     3    2    3 1   
     4    2   18 1   
     5    2   19 1   
     6    3    4 1   
     7    4    5 1   
     8    4   20 1   
     9    5    6 2   
    10    5    7 1   
    11    7    8 2   
    12    7   12 1   
    13    8    9 1   
    14    9   10 1   
    15    9   21 1   
    16   10   11 1   
    17   10   22 1   
    18   10   23 1   
    19   11   12 1   
    20   11   13 1   
    21   11   24 1   
    22   12   25 1   
    23   13   14 1   
    24   13   15 1   
    25   13   26 1   
    26   14   27 1   
    27   15   16 1   
    28   15   17 1   
    29   15   28 1   
    30   16   29 1   
    31   17   30 1   
    32   17   31 1   
    33   17   32 1   
@<TRIPOS>SUBSTRUCTURE
     1 THB         1 TEMP              0 ****  ****    0 ROOT
