@<TRIPOS>MOLECULE
THB
   32    33     1     0     0
SMALL
bcc


@<TRIPOS>ATOM
      1 N1         -1.3760    0.4540   -2.3870 nc        1 THB     -0.696300
      2 N2         -0.4980    1.3710   -4.4030 nh        1 THB     -0.882800
      3 C2         -0.3280    0.6190   -3.2100 cd        1 THB      0.662800
      4 N3          0.9640    0.1470   -2.9240 n         1 THB     -0.490400
      5 C4          1.2460   -0.4690   -1.6870 c         1 THB      0.710700
      6 O4          2.4320   -0.7690   -1.4470 o         1 THB     -0.646500
      7 C4A         0.1120   -0.6750   -0.7890 cd        1 THB     -0.178200
      8 C8A        -1.1610   -0.2080   -1.1730 cc        1 THB      0.376600
      9 N8         -2.2720   -0.4320   -0.3540 nh        1 THB     -0.725000
     10 C7         -2.0700   -1.0140    0.9480 c3        1 THB      0.202800
     11 C6         -0.6060   -1.0110    1.4670 c3        1 THB      0.135500
     12 N5          0.3010   -1.4160    0.4040 nh        1 THB     -0.651000
     13 C9         -0.2830    0.3490    2.1400 c3        1 THB      0.067100
     14 O9         -1.3600    0.7670    2.9630 oh        1 THB     -0.588800
     15 C10         1.0120    0.2860    2.9770 c3        1 THB      0.108100
     16 O10         2.1300   -0.0730    2.1870 oh        1 THB     -0.589800
     17 C11         1.2460    1.6030    3.6920 c3        1 THB     -0.128100
     18 HN21       -1.4500    1.6040   -4.5970 hn        1 THB      0.412300
     19 HN22       -0.0220    0.9930   -5.1940 hn        1 THB      0.412300
     20 H3          1.7260    0.3300   -3.5390 hn        1 THB      0.336500
     21 H8         -3.0220    0.2200   -0.4320 hn        1 THB      0.429800
     22 H71        -2.4040   -2.0910    0.8810 h1        1 THB      0.061200
     23 H72        -2.7230   -0.4870    1.6990 h1        1 THB      0.061200
     24 H6         -0.5300   -1.8080    2.2650 h1        1 THB      0.069700
     25 H5          1.2650   -1.4040    0.6970 hn        1 THB      0.418800
     26 H9         -0.2010    1.1580    1.3610 h1        1 THB      0.083700
     27 HO9        -1.4290    0.1330    3.6880 ho        1 THB      0.399000
     28 H10         0.9310   -0.5560    3.7240 h1        1 THB      0.072700
     29 HO1         2.3160    0.6620    1.5880 ho        1 THB      0.409000
     30 H111        2.1640    1.5340    4.3230 hc        1 THB      0.049367
     31 H112        1.3820    2.4290    2.9540 hc        1 THB      0.049367
     32 H113        0.3700    1.8470    4.3390 hc        1 THB      0.049367
@<TRIPOS>BOND
     1    1    3 2   
     2    1    8 1   
     3    2    3 1   
     4    2   18 1   
     5    2   19 1   
     6    3    4 1   
     7    4    5 1   
     8    4   20 1   
     9    5    6 2   
    10    5    7 1   
    11    7    8 2   
    12    7   12 1   
    13    8    9 1   
    14    9   10 1   
    15    9   21 1   
    16   10   11 1   
    17   10   22 1   
    18   10   23 1   
    19   11   12 1   
    20   11   13 1   
    21   11   24 1   
    22   12   25 1   
    23   13   14 1   
    24   13   15 1   
    25   13   26 1   
    26   14   27 1   
    27   15   16 1   
    28   15   17 1   
    29   15   28 1   
    30   16   29 1   
    31   17   30 1   
    32   17   31 1   
    33   17   32 1   
@<TRIPOS>SUBSTRUCTURE
     1 THB         1 TEMP              0 ****  ****    0 ROOT
