@<TRIPOS>MOLECULE
THB
   33    34     1     0     0
SMALL
bcc


@<TRIPOS>ATOM
      1 N1          0.1170   -0.3610   -0.2570 nc        1 THB     -0.532300
      2 N2          2.1520   -0.7730   -1.4560 n4        1 THB     -0.776600
      3 C2          1.4420   -0.4540   -0.1830 cd        1 THB      0.408800
      4 N3          2.2180   -0.2880    0.9720 n         1 THB     -0.471400
      5 C4          1.5730   -0.0040    2.1910 c         1 THB      0.692700
      6 O4          2.2770    0.1530    3.1980 o         1 THB     -0.563500
      7 C4A         0.0890    0.0900    2.1500 cd        1 THB      0.079800
      8 C8A        -0.5770   -0.0510    0.9020 cc        1 THB      0.204600
      9 N8         -1.9650    0.2280    0.8280 nh        1 THB     -0.680000
     10 C7         -2.6930   -0.0580    2.0490 c3        1 THB      0.159800
     11 C6         -2.0030    0.5150    3.3140 c3        1 THB      0.202500
     12 N5         -0.5830    0.2230    3.3360 nh        1 THB     -0.671000
     13 C9         -2.3280    2.0290    3.4580 c3        1 THB      0.123100
     14 O9         -3.7450    2.0960    3.4510 oh        1 THB     -0.595800
     15 C10        -1.7810    2.6050    4.7820 c3        1 THB      0.104100
     16 O10        -0.3730    2.7310    4.6050 oh        1 THB     -0.627800
     17 C11        -2.4140    3.9430    5.1130 c3        1 THB     -0.140100
     18 HN21        2.8030   -0.0140   -1.6850 hn        1 THB      0.475467
     19 HN22        2.6650   -1.6560   -1.3530 hn        1 THB      0.475467
     20 H3          3.2130   -0.3430    0.9630 hn        1 THB      0.350500
     21 H8         -2.4180   -0.1420    0.0130 hn        1 THB      0.419800
     22 H71        -2.8390   -1.1670    2.2030 h1        1 THB      0.081200
     23 H72        -3.7090    0.4250    1.9510 h1        1 THB      0.081200
     24 H6         -2.4540   -0.0130    4.2100 h1        1 THB      0.102700
     25 H5         -0.0650    0.6080    4.1090 hn        1 THB      0.477800
     26 H9         -1.8980    2.6040    2.5920 h1        1 THB      0.069700
     27 HO9        -3.9830    3.0260    3.3360 ho        1 THB      0.424000
     28 H10        -1.9780    1.8760    5.6190 h1        1 THB      0.052700
     29 HO1        -0.0360    3.2580    5.3400 ho        1 THB      0.426000
     30 H111       -3.4970    3.8080    5.3510 hc        1 THB      0.057033
     31 H112       -2.3120    4.6490    4.2540 hc        1 THB      0.057033
     32 H113       -1.9130    4.3950    6.0030 hc        1 THB      0.057033
     33 H23         1.4630   -0.8690   -2.2170 hn        1 THB      0.475467
@<TRIPOS>BOND
     1    1    3 2   
     2    1    8 1   
     3    2    3 1   
     4    2   18 1   
     5    2   19 1   
     6    2   33 1   
     7    3    4 1   
     8    4    5 1   
     9    4   20 1   
    10    5    6 2   
    11    5    7 1   
    12    7    8 2   
    13    7   12 1   
    14    8    9 1   
    15    9   10 1   
    16    9   21 1   
    17   10   11 1   
    18   10   22 1   
    19   10   23 1   
    20   11   12 1   
    21   11   13 1   
    22   11   24 1   
    23   12   25 1   
    24   13   14 1   
    25   13   15 1   
    26   13   26 1   
    27   14   27 1   
    28   15   16 1   
    29   15   17 1   
    30   15   28 1   
    31   16   29 1   
    32   17   30 1   
    33   17   31 1   
    34   17   32 1   
@<TRIPOS>SUBSTRUCTURE
     1 THB         1 TEMP              0 ****  ****    0 ROOT
