@<TRIPOS>MOLECULE
THC
   21    20     1     0     0
SMALL
bcc


@<TRIPOS>ATOM
      1 N           0.0410    0.3760   -0.8330 n         1 THC     -0.519900
      2 CN          0.5070   -0.1410   -2.0070 c         1 THC      0.648100
      3 ON          0.8740   -1.3340   -2.1380 o         1 THC     -0.662100
      4 CM          0.5510    0.7950   -3.1990 c3        1 THC     -0.175100
      5 CA         -0.0810   -0.3500    0.4060 c3        1 THC     -0.069300
      6 CB          1.1720   -0.2650    1.3120 c3        1 THC      0.142100
      7 OG1         1.5850    1.0760    1.5400 oh        1 THC     -0.645800
      8 CG2         2.3590   -1.0100    0.7350 c3        1 THC     -0.088100
      9 C          -1.2810    0.2220    1.2490 c         1 THC      0.909600
     10 O          -2.1100   -0.6000    1.7090 o         1 THC     -0.828300
     11 OXT        -1.3060    1.4760    1.4240 o         1 THC     -0.828300
     12 H          -0.2050    1.3390   -0.7770 hn        1 THC      0.322500
     13 HM1         0.9420    0.2360   -4.0810 hc        1 THC      0.049367
     14 HM2        -0.4710    1.1770   -3.4330 hc        1 THC      0.049367
     15 HM3         1.2230    1.6620   -2.9900 hc        1 THC      0.049367
     16 HA         -0.2720   -1.4360    0.1750 h1        1 THC      0.076700
     17 HB          0.8840   -0.7210    2.3040 h1        1 THC      0.034700
     18 HG1         0.7750    1.5930    1.6900 ho        1 THC      0.440000
     19 HG21        3.2520   -0.8780    1.3910 hc        1 THC      0.031367
     20 HG22        2.1120   -2.0950    0.6560 hc        1 THC      0.031367
     21 HG23        2.6050   -0.6290   -0.2850 hc        1 THC      0.031367
@<TRIPOS>BOND
     1    1    2 1   
     2    1    5 1   
     3    1   12 1   
     4    2    3 2   
     5    2    4 1   
     6    4   13 1   
     7    4   14 1   
     8    4   15 1   
     9    5    6 1   
    10    5    9 1   
    11    5   16 1   
    12    6    7 1   
    13    6    8 1   
    14    6   17 1   
    15    7   18 1   
    16    8   19 1   
    17    8   20 1   
    18    8   21 1   
    19    9   10 1   
    20    9   11 1   
@<TRIPOS>SUBSTRUCTURE
     1 THC         1 TEMP              0 ****  ****    0 ROOT
