@<TRIPOS>MOLECULE
THE
   16    15     1     0     0
SMALL
bcc


@<TRIPOS>ATOM
      1 C1          2.1430    0.3810   -0.7580 c3        1 THE      0.130400
      2 C2          0.9000   -0.2630   -0.1410 c3        1 THE      0.096100
      3 C3         -0.3770    0.4500   -0.6080 c3        1 THE     -0.019900
      4 C4         -1.6090   -0.2900   -0.0170 c         1 THE      0.892600
      5 O1          3.3430   -0.2010   -0.2810 oh        1 THE     -0.630800
      6 O2          1.0710   -0.1930    1.2700 oh        1 THE     -0.655800
      7 O3         -0.3580    1.8020   -0.1830 oh        1 THE     -0.627800
      8 O4         -1.8670   -0.0190    1.1950 o         1 THE     -0.830300
      9 O5         -2.2450   -1.0940   -0.7410 o         1 THE     -0.830300
     10 H11         2.1450    1.4810   -0.5330 h1        1 THE      0.041700
     11 H12         2.1540    0.2170   -1.8670 h1        1 THE      0.041700
     12 H2          0.8430   -1.3500   -0.4310 h1        1 THE      0.045700
     13 H3         -0.4160    0.4780   -1.7270 h1        1 THE      0.061700
     14 HO1         3.2460   -0.2960    0.6750 ho        1 THE      0.414000
     15 HO2         0.1830   -0.1760    1.6660 ho        1 THE      0.451000
     16 HO3        -0.7450    1.8110    0.7070 ho        1 THE      0.418000
@<TRIPOS>BOND
     1    1    2 1   
     2    1    5 1   
     3    1   10 1   
     4    1   11 1   
     5    2    3 1   
     6    2    6 1   
     7    2   12 1   
     8    3    4 1   
     9    3    7 1   
    10    3   13 1   
    11    4    8 1   
    12    4    9 1   
    13    5   14 1   
    14    6   15 1   
    15    7   16 1   
@<TRIPOS>SUBSTRUCTURE
     1 THE         1 TEMP              0 ****  ****    0 ROOT
