@<TRIPOS>MOLECULE
THE
   16    15     1     0     0
SMALL
bcc


@<TRIPOS>ATOM
      1 C1         -0.1590   -0.3050    0.1120 c3        1 THE      0.130400
      2 C2          1.3510   -0.0730    0.0240 c3        1 THE      0.096100
      3 C3          2.0000   -0.1510    1.4130 c3        1 THE     -0.019900
      4 C4          3.5370    0.0130    1.2590 c         1 THE      0.892600
      5 O1         -0.7990   -0.1570   -1.1430 oh        1 THE     -0.630800
      6 O2          1.5260    1.2030   -0.5810 oh        1 THE     -0.655800
      7 O3          1.4730    0.8640    2.2500 oh        1 THE     -0.627800
      8 O4          3.9370    1.2080    1.1080 o         1 THE     -0.830300
      9 O5          4.2660   -1.0090    1.2760 o         1 THE     -0.830300
     10 H11        -0.6060    0.4150    0.8480 h1        1 THE      0.041700
     11 H12        -0.3700   -1.3590    0.4290 h1        1 THE      0.041700
     12 H2          1.8220   -0.8440   -0.6480 h1        1 THE      0.045700
     13 H3          1.7400   -1.1230    1.9060 h1        1 THE      0.061700
     14 HO1        -0.4330    0.6390   -1.5500 ho        1 THE      0.414000
     15 HO2         2.3750    1.5560   -0.2670 ho        1 THE      0.451000
     16 HO3         2.0220    1.6500    2.1000 ho        1 THE      0.418000
@<TRIPOS>BOND
     1    1    2 1   
     2    1    5 1   
     3    1   10 1   
     4    1   11 1   
     5    2    3 1   
     6    2    6 1   
     7    2   12 1   
     8    3    4 1   
     9    3    7 1   
    10    3   13 1   
    11    4    8 1   
    12    4    9 1   
    13    5   14 1   
    14    6   15 1   
    15    7   16 1   
@<TRIPOS>SUBSTRUCTURE
     1 THE         1 TEMP              0 ****  ****    0 ROOT
