@<TRIPOS>MOLECULE
THF
   56    52     1     0     0
SMALL
bcc


@<TRIPOS>ATOM
      1 N1          0.5660    3.4060    2.0190 na        1 THF     -0.726000
      2 C2          1.8870    3.0900    2.4410 cc        1 THF      0.892100
      3 NA2         2.8680    4.0050    2.1310 nv        1 THF     -0.906800
      4 N3          2.2090    1.9240    3.0520 nd        1 THF     -0.797100
      5 C4          1.2230    0.9870    3.3130 c         1 THF      0.729700
      6 O4          1.5130   -0.0850    3.8970 o         1 THF     -0.648100
      7 C4A        -0.1880    1.2820    2.9190 cc        1 THF     -0.194200
      8 N5         -1.2200    0.3420    3.2370 nh        1 THF     -0.302200
      9 C6         -1.4620    0.1920    4.6740 c3        1 THF      0.151500
     10 C7         -2.8570    3.1220    1.6010 c1        1 THF      0.522800
     11 N8         -1.7430    2.8480    1.9000 n1        1 THF     -1.131500
     12 C8A        -0.4600    2.5000    2.2950 cd        1 THF      0.837700
     13 C9         -1.5290    1.5080    5.4210 c2        1 THF      0.437200
     14 N10        -2.1640    2.5230    4.9520 ne        1 THF     -0.595300
     15 C11        -1.4350    6.8500    5.6700 ce        1 THF     -0.041900
     16 C12        -0.5890    5.8050    5.8070 cf        1 THF     -0.040000
     17 C13        -0.8720    4.3980    5.8230 cf        1 THF     -0.188000
     18 C14        -2.0340    3.8260    5.4180 ce        1 THF      0.082600
     19 C15        -4.0320    6.7980    5.7580 c1        1 THF     -0.146500
     20 C16        -2.8340    6.8110    5.7150 cg        1 THF     -0.138300
     21 O          -0.8520    9.1430    6.2020 o         1 THF     -0.647100
     22 N          -0.2370    8.2950    4.1410 ns        1 THF     -0.467100
     23 CA          0.5460    9.3810    3.7450 c2        1 THF     -0.046400
     24 CB          1.1290    9.4910    2.5340 c2        1 THF     -0.206200
     25 CG          0.9870    8.5380    1.4130 c3        1 THF     -0.142200
     26 CD          1.5310    7.1430    1.6990 c         1 THF      0.914600
     27 OE1         0.7730    6.2720    2.2490 o         1 THF     -0.867300
     28 OE2         2.7070    6.8330    1.3540 o         1 THF     -0.867300
     29 CT         -1.4410   10.0900    8.4850 c1        1 THF      0.909000
     30 O1         -2.3740   10.6910    8.0550 o         1 THF     -0.456500
     31 O2         -0.5240    9.5190    8.9850 o         1 THF     -0.456500
     32 CP1        -1.8930   -0.3880    2.3900 c1        1 THF     -0.114500
     33 O3          3.8880   -0.9660    4.7260 oh        1 THF     -0.828000
     34 HN1         0.3560    4.3610    1.7500 hn        1 THF      0.518800
     35 HN21        2.6220    4.9550    1.8800 hn        1 THF      0.478300
     36 HN22        3.7760    3.8420    2.4960 hn        1 THF      0.478300
     37 H6         -2.4210   -0.3840    4.8130 h1        1 THF      0.092700
     38 H7         -0.6000   -0.4000    5.1000 h1        1 THF      0.092700
     39 H91        -3.9810    0.9080    1.4400 ha        1 THF      0.001000
     40 H92        -4.1460    0.3360    1.7660 ha        1 THF      0.001000
     41 HN0        -0.9520    1.5080    6.3710 h4        1 THF     -0.016200
     42 H12         0.0070    3.7620    6.0410 ha        1 THF      0.131000
     43 H13         0.4990    6.0300    5.8200 ha        1 THF      0.146000
     44 H15        -2.9540    4.4230    5.2500 h4        1 THF      0.165000
     45 H16        -5.0900    6.7900    5.7920 ha        1 THF      0.163500
     46 HN         -2.0560    6.8320    1.6020 ha        1 THF      0.001000
     47 HA         -0.2380    7.4840    3.5370 hn        1 THF      0.373500
     48 HB1         0.6580   10.1650    4.5190 h4        1 THF      0.145000
     49 HB2         1.7580   10.3730    2.3400 ha        1 THF      0.119000
     50 HG1         1.5250    8.9370    0.5130 hc        1 THF      0.046700
     51 HG2        -0.1010    8.4310    1.1480 hc        1 THF      0.046700
     52 HCP1        3.6790   -0.1000    4.3590 ho        1 THF      0.411000
     53 HCP2       -1.6370   -0.2610    1.3170 ha        1 THF     -0.012500
     54 HO3         3.0550   -1.4400    4.6430 ho        1 THF      0.411000
     55 H2         -1.4090    6.6540    1.7040 ha        1 THF      0.001000
     56 C          -0.8250    8.2000    5.3830 c         1 THF      0.682300
@<TRIPOS>BOND
     1    1    2 1   
     2    1   12 1   
     3    1   34 1   
     4    2    3 1   
     5    2    4 2   
     6    3   35 1   
     7    3   36 1   
     8    4    5 1   
     9    5    6 2   
    10    5    7 1   
    11    7    8 1   
    12    7   12 2   
    13    8    9 1   
    14    8   32 3   
    15    9   13 1   
    16    9   37 1   
    17    9   38 1   
    18   10   11 3   
    19   11   12 1   
    20   13   14 2   
    21   13   41 1   
    22   14   18 1   
    23   15   16 2   
    24   15   20 1   
    25   15   56 1   
    26   16   17 1   
    27   16   43 1   
    28   17   18 2   
    29   17   42 1   
    30   18   44 1   
    31   19   20 3   
    32   19   45 1   
    33   21   56 2   
    34   22   23 1   
    35   22   47 1   
    36   22   56 1   
    37   23   24 2   
    38   23   48 1   
    39   24   25 1   
    40   24   49 1   
    41   25   26 1   
    42   25   50 1   
    43   25   51 1   
    44   26   27 1   
    45   26   28 1   
    46   29   30 2   
    47   29   31 2   
    48   32   53 1   
    49   33   52 1   
    50   33   54 1   
    51   39   40 1   
    52   46   55 1   
@<TRIPOS>SUBSTRUCTURE
     1 THF         1 TEMP              0 ****  ****    0 ROOT
