@<TRIPOS>MOLECULE
THF
   58    57     1     0     0
SMALL
bcc


@<TRIPOS>ATOM
      1 N1         -1.6080    2.8980    1.9440 na        1 THF     -0.705000
      2 C2         -0.2540    2.6110    1.7820 cc        1 THF      0.757100
      3 NA2         0.5020    3.4410    0.7970 n4        1 THF     -0.827600
      4 N3          0.4270    1.6850    2.4280 nd        1 THF     -0.676100
      5 C4         -0.2460    0.8870    3.3930 c         1 THF      0.724700
      6 O4          0.4370    0.1550    4.1240 o         1 THF     -0.534100
      7 C4A        -1.7260    1.0060    3.4720 cc        1 THF     -0.032200
      8 N5         -2.4720    0.0420    4.2040 nh        1 THF     -0.347200
      9 C6         -2.0240   -0.2490    5.5710 c3        1 THF      0.146800
     10 C7         -4.9020    2.3820    2.8940 c1        1 THF      0.626800
     11 N8         -3.7160    2.2760    2.8350 n1        1 THF     -1.160500
     12 C8A        -2.3650    2.0370    2.7740 cd        1 THF      0.837700
     13 C9         -1.5270   -1.6700    5.7700 c3        1 THF     -0.115100
     14 N10         2.5330    4.0160    7.1060 n2        1 THF     -0.656800
     15 C11         0.4790    6.8640    5.4100 ce        1 THF     -0.306200
     16 C12        -0.0280    6.4530    6.6240 cf        1 THF      0.124000
     17 C13         0.5000    5.4900    7.4990 cf        1 THF     -0.391100
     18 C14         1.5300    4.6610    7.2310 c1        1 THF      0.503500
     19 C15         2.9400    6.9150    5.3170 c2        1 THF     -0.165000
     20 C16         1.7710    6.4420    4.8830 ce        1 THF     -0.183000
     21 O          -1.4510    8.2260    4.9070 o         1 THF     -0.507100
     22 N           0.1840    8.1750    3.2660 n4        1 THF     -0.665800
     23 CA         -0.7090    7.7150    2.1510 c3        1 THF      0.036500
     24 CB         -0.6970    8.6660    0.9530 c3        1 THF     -0.096400
     25 CG         -1.2490   10.0130    1.2980 cx        1 THF     -0.000900
     26 CD         -0.6430   11.2320    0.7800 c         1 THF      0.729600
     27 OE1        -0.3180   12.1460    0.0740 o         1 THF     -0.440500
     28 OE2        -0.3290   10.8800    2.0790 os        1 THF     -0.470900
     29 CT         -0.2840    6.3180    1.6470 c         1 THF      0.917600
     30 O1         -1.1330    5.6050    1.0380 o         1 THF     -0.836800
     31 O2          0.9030    5.9170    1.8470 o         1 THF     -0.836800
     32 CP1        -3.5020   -0.5210    3.6070 c1        1 THF     -0.089500
     33 O3          1.9460    1.5380    5.6810 oh        1 THF     -0.849000
     34 HN1        -2.0180    3.7330    1.5540 hn        1 THF      0.517800
     35 HN21       -0.1420    4.0650    0.2620 hn        1 THF      0.498800
     36 HN22        1.0380    2.8350    0.1720 hn        1 THF      0.498800
     37 H6         -1.2050    0.4680    5.8610 h1        1 THF      0.060700
     38 H7         -2.9060   -0.0630    6.2490 h1        1 THF      0.060700
     39 H91        -1.2990   -1.8190    6.8530 hc        1 THF      0.057700
     40 H92        -2.2980   -2.4180    5.4630 hc        1 THF      0.057700
     41 HN0        -0.5960   -1.8500    5.1790 hc        1 THF      0.057700
     42 H12         0.0290    5.3820    8.4940 ha        1 THF      0.187000
     43 H13        -0.9830    6.9130    6.9630 ha        1 THF      0.159000
     44 H15         3.0280    7.6590    6.1220 ha        1 THF      0.130500
     45 H16         3.8960    6.5730    4.8950 ha        1 THF      0.130500
     46 HN          1.1200    7.7660    3.1120 hn        1 THF      0.472800
     47 HA          0.2550    9.2000    3.2510 hn        1 THF      0.472800
     48 HB1        -1.7630    7.6470    2.5610 hx        1 THF      0.128700
     49 HB2        -1.3460    8.2010    0.1570 hc        1 THF      0.103700
     50 HG1         0.3420    8.7530    0.5370 hc        1 THF      0.103700
     51 HG2        -2.2930   10.0260    1.6740 h1        1 THF      0.135700
     52 HCP1        1.4750    0.7770    6.0370 ho        1 THF      0.425500
     53 HCP2       -4.0380   -1.2910    4.1990 ha        1 THF      0.017500
     54 HO3         2.2680    1.2250    4.8290 ho        1 THF      0.425500
     55 HA23        1.1400    4.0860    1.3280 hn        1 THF      0.498800
     56 H102        2.7800    3.1150    6.7640 hn        1 THF      0.568400
     57 H2          1.7240    5.6970    4.0650 ha        1 THF      0.142000
     58 C          -0.3470    7.7540    4.6260 c         1 THF      0.574300
@<TRIPOS>BOND
     1    1    2 1   
     2    1   12 1   
     3    1   34 1   
     4    2    3 1   
     5    2    4 2   
     6    3   35 1   
     7    3   36 1   
     8    3   55 1   
     9    4    5 1   
    10    5    6 2   
    11    5    7 1   
    12    7    8 1   
    13    7   12 2   
    14    8    9 1   
    15    8   32 3   
    16    9   13 1   
    17    9   37 1   
    18    9   38 1   
    19   10   11 3   
    20   11   12 1   
    21   13   39 1   
    22   13   40 1   
    23   13   41 1   
    24   14   18 2   
    25   14   56 1   
    26   15   16 2   
    27   15   20 1   
    28   15   58 1   
    29   16   17 1   
    30   16   43 1   
    31   17   18 2   
    32   17   42 1   
    33   19   20 2   
    34   19   44 1   
    35   19   45 1   
    36   20   57 1   
    37   21   58 2   
    38   22   23 1   
    39   22   46 1   
    40   22   47 1   
    41   22   58 1   
    42   23   24 1   
    43   23   29 1   
    44   23   48 1   
    45   24   25 1   
    46   24   49 1   
    47   24   50 1   
    48   25   26 1   
    49   25   28 1   
    50   25   51 1   
    51   26   27 2   
    52   26   28 1   
    53   29   30 1   
    54   29   31 1   
    55   32   53 1   
    56   33   52 1   
    57   33   54 1   
@<TRIPOS>SUBSTRUCTURE
     1 THF         1 TEMP              0 ****  ****    0 ROOT
