@<TRIPOS>MOLECULE
THF
   55    57     1     0     0
SMALL
bcc


@<TRIPOS>ATOM
      1 N1          2.5000    1.0240   -6.0490 na        1 THF     -0.679000
      2 C2          2.0590    0.8200   -7.3600 cc        1 THF      0.818100
      3 NA2         2.9510    1.1970   -8.4060 nh        1 THF     -0.882800
      4 N3          0.8570    0.3150   -7.6690 nd        1 THF     -0.750100
      5 C4         -0.0710    0.0520   -6.6570 c         1 THF      0.710700
      6 O4         -1.1520   -0.4960   -6.9590 o         1 THF     -0.606100
      7 C4A         0.2800    0.4060   -5.2440 cc        1 THF     -0.013200
      8 N5         -0.6580    0.3930   -4.2110 nh        1 THF     -0.653400
      9 C6         -0.1530    0.3610   -2.8350 c3        1 THF      0.100200
     10 C7          1.2500    0.9210   -2.7130 c2        1 THF      0.454200
     11 N8          2.0570    1.1700   -3.6900 nf        1 THF     -0.576300
     12 C8A         1.5810    0.8670   -4.9950 cd        1 THF      0.210600
     13 C9         -0.1550   -1.0570   -2.1750 c3        1 THF      0.170800
     14 N10        -1.3830   -1.3140   -1.4690 nh        1 THF     -0.741600
     15 C11        -1.3280   -1.1450    2.7520 ca        1 THF     -0.161600
     16 C12        -2.1410   -2.0690    2.0990 ca        1 THF     -0.069500
     17 C13        -2.1520   -2.1450    0.7080 ca        1 THF     -0.198500
     18 C14        -1.3390   -1.2790   -0.0550 ca        1 THF      0.104600
     19 C15        -0.5290   -0.3400    0.6200 ca        1 THF     -0.198500
     20 C16        -0.5200   -0.2760    2.0090 ca        1 THF     -0.069500
     21 O          -0.9490   -2.1330    4.8880 o         1 THF     -0.653100
     22 N          -1.5670    0.1020    4.8370 n         1 THF     -0.487900
     23 CA         -0.9710    0.5610    6.0790 c3        1 THF     -0.038300
     24 CB          0.2980    1.4020    5.8400 c3        1 THF     -0.077400
     25 CG          1.4610    0.6150    5.2790 c3        1 THF     -0.190400
     26 CD          2.2610    1.3950    4.2300 c         1 THF      0.908600
     27 OE1         3.4230    1.8050    4.5210 o         1 THF     -0.874800
     28 OE2         1.7560    1.5750    3.0760 o         1 THF     -0.874800
     29 CT         -1.9830    1.4400    6.8920 c         1 THF      0.918600
     30 O1         -2.0130    1.2580    8.1420 o         1 THF     -0.850800
     31 O2         -2.7000    2.2820    6.2810 o         1 THF     -0.850800
     32 CP1        -1.9750   -0.1940   -4.4010 c3        1 THF      0.403600
     33 O3         -1.9920   -1.6050   -4.5250 oh        1 THF     -0.626800
     34 HN1         3.3720    1.4650   -5.8530 hn        1 THF      0.464800
     35 HN21        2.6160    0.9400   -9.3120 hn        1 THF      0.404800
     36 HN22        3.8950    0.9110   -8.2530 hn        1 THF      0.404800
     37 H6         -0.8390    1.0450   -2.2440 h1        1 THF      0.108700
     38 H7          1.6000    1.1300   -1.6800 h4        1 THF      0.072800
     39 H91        -0.0130   -1.8290   -2.9840 h1        1 THF      0.054700
     40 H92         0.7370   -1.1150   -1.4850 h1        1 THF      0.054700
     41 HN0        -1.8810   -2.1000   -1.8330 hn        1 THF      0.395800
     42 H12        -2.7660   -2.7540    2.6920 ha        1 THF      0.186500
     43 H13        -2.8000   -2.8810    0.2130 ha        1 THF      0.116500
     44 H15         0.1070    0.3610    0.0580 ha        1 THF      0.116500
     45 H16         0.1580    0.4520    2.5260 ha        1 THF      0.186500
     46 HN         -1.8260    0.8520    4.2310 hn        1 THF      0.307500
     47 HA         -0.7110   -0.3430    6.6980 h1        1 THF      0.066700
     48 HB1         0.0480    2.2530    5.1520 hc        1 THF      0.047700
     49 HB2         0.5820    1.8490    6.8280 hc        1 THF      0.047700
     50 HG1         2.1510    0.3190    6.1100 hc        1 THF      0.022700
     51 HG2         1.1020   -0.3300    4.7930 hc        1 THF      0.022700
     52 HCP1       -2.5850    0.0130   -3.4730 h2        1 THF      0.082200
     53 HCP2       -2.4420    0.2890   -5.3060 h2        1 THF      0.082200
     54 HO3        -1.7330   -1.8340   -5.4280 ho        1 THF      0.419000
     55 C          -1.2440   -1.0950    4.2510 c         1 THF      0.661700
@<TRIPOS>BOND
     1    1    2 1   
     2    1   12 1   
     3    1   34 1   
     4    2    3 1   
     5    2    4 2   
     6    3   35 1   
     7    3   36 1   
     8    4    5 1   
     9    5    6 2   
    10    5    7 1   
    11    7    8 1   
    12    7   12 2   
    13    8    9 1   
    14    8   32 1   
    15    9   10 1   
    16    9   13 1   
    17    9   37 1   
    18   10   11 2   
    19   10   38 1   
    20   11   12 1   
    21   13   14 1   
    22   13   39 1   
    23   13   40 1   
    24   14   18 1   
    25   14   41 1   
    26   15   16 ar  
    27   15   20 ar  
    28   15   55 1   
    29   16   17 ar  
    30   16   42 1   
    31   17   18 ar  
    32   17   43 1   
    33   18   19 ar  
    34   19   20 ar  
    35   19   44 1   
    36   20   45 1   
    37   21   55 2   
    38   22   23 1   
    39   22   46 1   
    40   22   55 1   
    41   23   24 1   
    42   23   29 1   
    43   23   47 1   
    44   24   25 1   
    45   24   48 1   
    46   24   49 1   
    47   25   26 1   
    48   25   50 1   
    49   25   51 1   
    50   26   27 1   
    51   26   28 1   
    52   29   30 1   
    53   29   31 1   
    54   32   33 1   
    55   32   52 1   
    56   32   53 1   
    57   33   54 1   
@<TRIPOS>SUBSTRUCTURE
     1 THF         1 TEMP              0 ****  ****    0 ROOT
