@<TRIPOS>MOLECULE
THG
   53    55     1     0     0
SMALL
bcc


@<TRIPOS>ATOM
      1 N3          2.0390    0.6000    1.9300 n         1 THG     -0.464400
      2 C2          2.5470   -0.7050    2.0150 cc        1 THG      0.720800
      3 N1          2.0710   -1.6380    2.8900 nd        1 THG     -0.760300
      4 C8A         0.9780   -1.2870    3.6680 cd        1 THG      0.361600
      5 C4A         0.3420   -0.0390    3.5640 cc        1 THG     -0.215200
      6 C4          0.9330    0.9890    2.6990 c         1 THG      0.716700
      7 N8          0.5150   -2.2480    4.6060 nh        1 THG     -0.713000
      8 C7         -0.7710   -2.0040    5.2180 c3        1 THG      0.196800
      9 C6         -1.6530   -0.9170    4.5490 c3        1 THG      0.118500
     10 N5         -0.8560    0.2660    4.2690 nh        1 THG     -0.643000
     11 C9         -2.4100   -1.5940    3.3720 c3        1 THG      0.150800
     12 N10        -3.1910   -0.7530    2.5100 nh        1 THG     -0.726600
     13 C4'        -2.6630   -0.2710    1.2880 ca        1 THG      0.121600
     14 C3'        -3.3710    0.7510    0.6070 ca        1 THG     -0.195500
     15 C2'        -2.9300    1.2170   -0.6250 ca        1 THG     -0.063000
     16 C1'        -1.7780    0.6920   -1.2160 ca        1 THG     -0.158600
     17 C6'        -1.0670   -0.3130   -0.5550 ca        1 THG     -0.063000
     18 C5'        -1.5110   -0.7990    0.6720 ca        1 THG     -0.195500
     19 C11        -1.2510    1.2770   -2.4930 c         1 THG      0.660700
     20 N          -0.7530    0.4000   -3.4250 n         1 THG     -0.493900
     21 CA          0.2880    0.7620   -4.3670 c3        1 THG     -0.034300
     22 C           0.1720   -0.0680   -5.6920 c         1 THG      0.918600
     23 OX2        -0.1520   -1.2870   -5.6310 o         1 THG     -0.849300
     24 OX1         0.4360    0.5440   -6.7650 o         1 THG     -0.849300
     25 CB          1.7020    0.5260   -3.8040 c3        1 THG     -0.087400
     26 CG          2.0660    1.4310   -2.6470 c3        1 THG     -0.172400
     27 CD          2.5210    0.7030   -1.3960 c         1 THG      0.899600
     28 OE1         3.3450    1.2770   -0.6030 o         1 THG     -0.889800
     29 OE2         2.0880   -0.4510   -1.0840 o         1 THG     -0.889800
     30 O11        -1.3380    2.5130   -2.6890 o         1 THG     -0.654100
     31 O4          0.5140    2.1640    2.6200 o         1 THG     -0.666500
     32 N2          3.6680   -1.0230    1.2300 nh        1 THG     -0.867800
     33 HN3         2.3520    1.2010    1.1710 hn        1 THG      0.400500
     34 HN8         0.6350   -3.1910    4.2950 hn        1 THG      0.393800
     35 HC71       -0.5640   -1.6740    6.2770 h1        1 THG      0.035200
     36 HC72       -1.3620   -2.9620    5.2640 h1        1 THG      0.035200
     37 HC6        -2.4270   -0.5900    5.3050 h1        1 THG      0.043700
     38 HN5        -1.3800    0.9540    3.7530 hn        1 THG      0.384800
     39 HC91       -1.6810   -2.2040    2.7720 h1        1 THG      0.048700
     40 HC92       -3.1410   -2.3190    3.8420 h1        1 THG      0.048700
     41 H10        -3.6550   -0.0260    3.0180 hn        1 THG      0.375800
     42 HC3        -4.2710    1.1940    1.0560 ha        1 THG      0.120500
     43 HC2        -3.4710    2.0270   -1.1380 ha        1 THG      0.170500
     44 HC61       -0.1070   -0.6910   -0.9700 ha        1 THG      0.170500
     45 HC5        -0.9090   -1.5840    1.1530 ha        1 THG      0.120500
     46 HN         -0.7570   -0.5720   -3.1990 hn        1 THG      0.309500
     47 HCA         0.1650    1.8530   -4.6230 h1        1 THG      0.066700
     48 HCB1        1.7960   -0.5480   -3.4900 hc        1 THG      0.051200
     49 HCB2        2.4150    0.6910   -4.6540 hc        1 THG      0.051200
     50 HCG1        2.8840    2.1330   -2.9540 hc        1 THG      0.042700
     51 HCG2        1.1890    2.0670   -2.3500 hc        1 THG      0.042700
     52 HN21        3.7400   -1.9970    1.0270 hn        1 THG      0.440300
     53 HN22        3.7600   -0.4430    0.3980 hn        1 THG      0.440300
@<TRIPOS>BOND
     1    1    2 1   
     2    1    6 1   
     3    1   33 1   
     4    2    3 2   
     5    2   32 1   
     6    3    4 1   
     7    4    5 2   
     8    4    7 1   
     9    5    6 1   
    10    5   10 1   
    11    6   31 2   
    12    7    8 1   
    13    7   34 1   
    14    8    9 1   
    15    8   35 1   
    16    8   36 1   
    17    9   10 1   
    18    9   11 1   
    19    9   37 1   
    20   10   38 1   
    21   11   12 1   
    22   11   39 1   
    23   11   40 1   
    24   12   13 1   
    25   12   41 1   
    26   13   14 ar  
    27   13   18 ar  
    28   14   15 ar  
    29   14   42 1   
    30   15   16 ar  
    31   15   43 1   
    32   16   17 ar  
    33   16   19 1   
    34   17   18 ar  
    35   17   44 1   
    36   18   45 1   
    37   19   20 1   
    38   19   30 2   
    39   20   21 1   
    40   20   46 1   
    41   21   22 1   
    42   21   25 1   
    43   21   47 1   
    44   22   23 1   
    45   22   24 1   
    46   25   26 1   
    47   25   48 1   
    48   25   49 1   
    49   26   27 1   
    50   26   50 1   
    51   26   51 1   
    52   27   28 1   
    53   27   29 1   
    54   32   52 1   
    55   32   53 1   
@<TRIPOS>SUBSTRUCTURE
     1 THG         1 TEMP              0 ****  ****    0 ROOT
