@<TRIPOS>MOLECULE
THG
   53    55     1     0     0
SMALL
bcc


@<TRIPOS>ATOM
      1 N3          0.8850   -3.6370    1.1550 n         1 THG     -0.472400
      2 C2          2.2430   -3.5740    1.4930 cc        1 THG      0.723800
      3 N1          2.7890   -2.5460    2.2090 nd        1 THG     -0.762300
      4 C8A         1.9230   -1.5860    2.7040 cd        1 THG      0.358600
      5 C4A         0.5290   -1.6560    2.5370 cc        1 THG     -0.229200
      6 C4         -0.0170   -2.6590    1.6130 c         1 THG      0.735700
      7 N8          2.5050   -0.4880    3.3900 nh        1 THG     -0.716000
      8 C7          1.6130    0.3780    4.1200 c3        1 THG      0.159800
      9 C6          0.2130   -0.2170    4.4310 c3        1 THG      0.122500
     10 N5         -0.3940   -0.8940    3.3010 nh        1 THG     -0.633000
     11 C9          0.3560   -1.1270    5.6850 c3        1 THG      0.191800
     12 N10        -0.7850   -1.9090    6.0740 nh        1 THG     -0.708600
     13 C4'        -0.8880   -3.2730    5.6980 ca        1 THG      0.132600
     14 C3'        -2.0910   -3.9550    6.0080 ca        1 THG     -0.190000
     15 C2'        -2.2370   -5.3040    5.7090 ca        1 THG     -0.069500
     16 C1'        -1.2030   -6.0160    5.0960 ca        1 THG     -0.159600
     17 C6'        -0.0090   -5.3580    4.7880 ca        1 THG     -0.069500
     18 C5'         0.1490   -4.0080    5.0910 ca        1 THG     -0.190000
     19 C11        -1.4200   -7.4360    4.6710 c         1 THG      0.660700
     20 N          -0.3860   -8.3180    4.8610 n         1 THG     -0.492900
     21 CA         -0.2050   -9.5040    4.0480 c3        1 THG     -0.033300
     22 C           0.4490  -10.6700    4.8660 c         1 THG      0.917600
     23 OX2         1.3520  -10.4080    5.7090 o         1 THG     -0.850300
     24 OX1         0.0370  -11.8370    4.6090 o         1 THG     -0.850300
     25 CB          0.6930   -9.2480    2.8230 c3        1 THG     -0.087400
     26 CG          0.1140   -8.2710    1.8220 c3        1 THG     -0.171400
     27 CD          0.9880   -7.0610    1.5500 c         1 THG      0.900600
     28 OE1         1.7920   -6.5960    2.4170 o         1 THG     -0.890800
     29 OE2         0.9040   -6.4680    0.4180 o         1 THG     -0.890800
     30 O11        -2.5390   -7.7800    4.2160 o         1 THG     -0.660100
     31 O4         -1.1870   -2.6670    1.1790 o         1 THG     -0.658500
     32 N2          3.0990   -4.5570    0.9670 nh        1 THG     -0.864800
     33 HN3         0.5210   -4.4900    0.7390 hn        1 THG      0.399500
     34 HN8         3.3360   -0.7260    3.8930 hn        1 THG      0.397800
     35 HC71        1.4640    1.3000    3.4860 h1        1 THG      0.031700
     36 HC72        2.0950    0.7030    5.0840 h1        1 THG      0.031700
     37 HC6        -0.4620    0.6430    4.7160 h1        1 THG      0.037700
     38 HN5        -0.8660   -0.2380    2.7020 hn        1 THG      0.359800
     39 HC91        0.5580   -0.4240    6.5480 h1        1 THG      0.043200
     40 HC92        1.2620   -1.7790    5.5660 h1        1 THG      0.043200
     41 H10        -1.6410   -1.4280    5.8640 hn        1 THG      0.377800
     42 HC3        -2.9270   -3.4150    6.4740 ha        1 THG      0.120000
     43 HC2        -3.1850   -5.8210    5.9270 ha        1 THG      0.168500
     44 HC61        0.8020   -5.8890    4.2450 ha        1 THG      0.168500
     45 HC5         1.0930   -3.5270    4.7950 ha        1 THG      0.120000
     46 HN          0.4640   -7.9670    5.2480 hn        1 THG      0.311500
     47 HCA        -1.2210   -9.8480    3.7010 h1        1 THG      0.066700
     48 HCB1        1.6930   -8.8810    3.1770 hc        1 THG      0.050700
     49 HCB2        0.8530  -10.2440    2.3340 hc        1 THG      0.050700
     50 HCG1       -0.0700   -8.7900    0.8460 hc        1 THG      0.041700
     51 HCG2       -0.8790   -7.8830    2.1750 hc        1 THG      0.041700
     52 HN21        2.6260   -5.4320    0.7460 hn        1 THG      0.441800
     53 HN22        3.9160   -4.7020    1.5220 hn        1 THG      0.441800
@<TRIPOS>BOND
     1    1    2 1   
     2    1    6 1   
     3    1   33 1   
     4    2    3 2   
     5    2   32 1   
     6    3    4 1   
     7    4    5 2   
     8    4    7 1   
     9    5    6 1   
    10    5   10 1   
    11    6   31 2   
    12    7    8 1   
    13    7   34 1   
    14    8    9 1   
    15    8   35 1   
    16    8   36 1   
    17    9   10 1   
    18    9   11 1   
    19    9   37 1   
    20   10   38 1   
    21   11   12 1   
    22   11   39 1   
    23   11   40 1   
    24   12   13 1   
    25   12   41 1   
    26   13   14 ar  
    27   13   18 ar  
    28   14   15 ar  
    29   14   42 1   
    30   15   16 ar  
    31   15   43 1   
    32   16   17 ar  
    33   16   19 1   
    34   17   18 ar  
    35   17   44 1   
    36   18   45 1   
    37   19   20 1   
    38   19   30 2   
    39   20   21 1   
    40   20   46 1   
    41   21   22 1   
    42   21   25 1   
    43   21   47 1   
    44   22   23 1   
    45   22   24 1   
    46   25   26 1   
    47   25   48 1   
    48   25   49 1   
    49   26   27 1   
    50   26   50 1   
    51   26   51 1   
    52   27   28 1   
    53   27   29 1   
    54   32   52 1   
    55   32   53 1   
@<TRIPOS>SUBSTRUCTURE
     1 THG         1 TEMP              0 ****  ****    0 ROOT
