@<TRIPOS>MOLECULE
THG
   54    56     1     0     0
SMALL
bcc


@<TRIPOS>ATOM
      1 N3          0.1200   -0.1360    0.0200 ns        1 THG     -0.495400
      2 C2          1.5120   -0.2750    0.1320 cc        1 THG      0.671800
      3 N1          2.1770   -0.1690    1.2960 nd        1 THG     -0.697300
      4 C8A         1.4320    0.1040    2.4480 cd        1 THG      0.362600
      5 C4A         0.0250    0.1220    2.4450 cc        1 THG     -0.171200
      6 C4         -0.6810    0.0910    1.1610 c         1 THG      0.728700
      7 N8          2.1440    0.3820    3.6250 nu        1 THG     -0.717000
      8 C7          1.3910    0.5210    4.8450 c3        1 THG      0.163800
      9 C6         -0.0020   -0.1700    4.8340 c3        1 THG      0.148500
     10 N5         -0.7590    0.0860    3.6210 nu        1 THG     -0.661000
     11 C9          0.2260   -1.6850    5.0770 c3        1 THG      0.189800
     12 N10        -0.9940   -2.4500    5.1930 nu        1 THG     -0.716600
     13 C4'        -0.8860   -3.8440    5.0160 ca        1 THG      0.144600
     14 C3'        -2.0190   -4.5920    4.6140 ca        1 THG     -0.199500
     15 C2'        -1.9490   -5.9730    4.5080 ca        1 THG     -0.057000
     16 C1'        -0.7590   -6.6590    4.7890 ca        1 THG     -0.166600
     17 C6'         0.3630   -5.9290    5.1880 ca        1 THG     -0.057000
     18 C5'         0.3070   -4.5430    5.2990 ca        1 THG     -0.199500
     19 C11        -0.7570   -8.1450    4.6160 c         1 THG      0.648700
     20 N           0.2660   -8.8710    5.1840 ns        1 THG     -0.521900
     21 CA          0.1840  -10.3110    5.3520 c3        1 THG     -0.068300
     22 C           0.6990  -10.7620    6.7760 c         1 THG      0.914600
     23 OX2         1.2450   -9.8970    7.5150 o         1 THG     -0.821800
     24 OX1         0.5190  -11.9720    7.0660 o         1 THG     -0.821800
     25 CB          0.9970  -11.0910    4.3120 c3        1 THG     -0.077400
     26 CG          0.4060  -11.0310    2.9170 c3        1 THG     -0.188400
     27 CD          1.3560  -10.4840    1.8990 c         1 THG      0.637100
     28 OE1         1.6370  -10.9720    0.7990 o         1 THG     -0.544000
     29 OE2         2.0000   -9.3010    2.1360 oh        1 THG     -0.605100
     30 O11        -1.6360   -8.6820    3.8980 o         1 THG     -0.652100
     31 O4         -1.8990    0.2670    0.9790 o         1 THG     -0.633500
     32 N2          2.2480   -0.4720   -1.0680 nv        1 THG     -0.882800
     33 HN3        -0.3300   -0.1710   -0.8680 hn        1 THG      0.336500
     34 HN8         3.0330   -0.0650    3.7110 hn        1 THG      0.424800
     35 HC71        1.2290    1.6260    5.0110 h1        1 THG      0.055200
     36 HC72        1.9940    0.1270    5.7090 h1        1 THG      0.055200
     37 HC6        -0.5910    0.2400    5.7060 h1        1 THG      0.074700
     38 HN5        -1.3310    0.9070    3.6950 hn        1 THG      0.386800
     39 HC91        0.7780   -1.7850    6.0560 h1        1 THG      0.041200
     40 HC92        0.8960   -2.0860    4.2620 h1        1 THG      0.041200
     41 H10        -1.7580   -2.0600    4.6750 hn        1 THG      0.405800
     42 HC3        -2.9660   -4.0810    4.3830 ha        1 THG      0.128000
     43 HC2        -2.8310   -6.5520    4.1850 ha        1 THG      0.150000
     44 HC61        1.3170   -6.4310    5.4150 ha        1 THG      0.150000
     45 HC5         1.2090   -4.0030    5.6230 ha        1 THG      0.128000
     46 HN          1.7430   -8.9630    3.0070 ho        1 THG      0.444000
     47 HCA        -0.8940  -10.6340    5.2700 h1        1 THG      0.065700
     48 HCB1        2.0600  -10.7350    4.3120 hc        1 THG      0.063700
     49 HCB2        1.0090  -12.1580    4.6680 hc        1 THG      0.063700
     50 HCG1        0.0960  -12.0570    2.5860 hc        1 THG      0.088700
     51 HCG2       -0.5160  -10.3820    2.9080 hc        1 THG      0.088700
     52 HN21        3.2200   -0.6480   -0.9160 hn        1 THG      0.412300
     53 HN22        1.8290   -1.1220   -1.6980 hn        1 THG      0.412300
     54 HN31        0.7780   -8.4360    5.9320 hn        1 THG      0.327500
@<TRIPOS>BOND
     1    1    2 1   
     2    1    6 1   
     3    1   33 1   
     4    2    3 2   
     5    2   32 1   
     6    3    4 1   
     7    4    5 2   
     8    4    7 1   
     9    5    6 1   
    10    5   10 1   
    11    6   31 2   
    12    7    8 1   
    13    7   34 1   
    14    8    9 1   
    15    8   35 1   
    16    8   36 1   
    17    9   10 1   
    18    9   11 1   
    19    9   37 1   
    20   10   38 1   
    21   11   12 1   
    22   11   39 1   
    23   11   40 1   
    24   12   13 1   
    25   12   41 1   
    26   13   14 ar  
    27   13   18 ar  
    28   14   15 ar  
    29   14   42 1   
    30   15   16 ar  
    31   15   43 1   
    32   16   17 ar  
    33   16   19 1   
    34   17   18 ar  
    35   17   44 1   
    36   18   45 1   
    37   19   20 1   
    38   19   30 2   
    39   20   21 1   
    40   20   54 1   
    41   21   22 1   
    42   21   25 1   
    43   21   47 1   
    44   22   23 1   
    45   22   24 1   
    46   25   26 1   
    47   25   48 1   
    48   25   49 1   
    49   26   27 1   
    50   26   50 1   
    51   26   51 1   
    52   27   28 2   
    53   27   29 1   
    54   29   46 1   
    55   32   52 1   
    56   32   53 1   
@<TRIPOS>SUBSTRUCTURE
     1 THG         1 TEMP              0 ****  ****    0 ROOT
