@<TRIPOS>MOLECULE
THH
   59    61     1     0     0
SMALL
bcc


@<TRIPOS>ATOM
      1 OE1         0.3210   -5.0310   -3.2640 oh        1 THH     -0.599100
      2 CD          1.1430   -5.4460   -2.2750 c         1 THH      0.666100
      3 OE2         1.6370   -6.5810   -2.3740 o         1 THH     -0.645000
      4 CG          1.3610   -4.4380   -1.1880 c3        1 THH     -0.134400
      5 CB          2.8240   -4.3090   -0.8280 c3        1 THH     -0.089400
      6 CA          3.6020   -3.3610   -1.7520 c3        1 THH      0.014700
      7 CT          5.0880   -3.4500   -1.3750 c         1 THH      0.605100
      8 O1          5.6370   -4.4170   -0.8500 o         1 THH     -0.484000
      9 O2          5.9000   -2.3940   -1.6290 oh        1 THH     -0.564100
     10 N           3.3990   -3.6410   -3.1530 n         1 THH     -0.567900
     11 C           3.6800   -2.7070   -4.1310 c         1 THH      0.675700
     12 O           4.1490   -1.5890   -3.8450 o         1 THH     -0.586100
     13 C12         3.3980   -3.1230   -5.5370 ca        1 THH     -0.100600
     14 C13         4.4070   -2.9900   -6.5000 ca        1 THH     -0.077500
     15 C14         4.1940   -3.4400   -7.7990 ca        1 THH     -0.102500
     16 C15         2.9510   -4.0110   -8.1310 ca        1 THH     -0.033400
     17 C16         1.9150   -4.0860   -7.1870 ca        1 THH     -0.102500
     18 C17         2.1510   -3.6440   -5.8840 ca        1 THH     -0.077500
     19 N10         2.7370   -4.5590   -9.4760 n4        1 THH     -0.622400
     20 C9          3.4020   -5.8920   -9.6670 c3        1 THH      0.110800
     21 C6          2.4040   -7.0690   -9.8510 c3        1 THH     -0.018000
     22 C7          3.2050   -8.3900   -9.7180 c3        1 THH      0.170800
     23 N8          3.5910   -8.6530   -8.3560 nh        1 THH     -0.806200
     24 C8A         2.6350   -8.3670   -7.3600 cc        1 THH      0.588900
     25 N1          2.8660   -8.8850   -6.0930 nd        1 THH     -0.813000
     26 C4A         1.5590   -7.4870   -7.6300 cc        1 THH     -0.163000
     27 N5          1.2820   -6.9590   -8.9270 nh        1 THH     -0.222100
     28 C11         0.0240   -7.4290   -9.4830 c3        1 THH     -0.030400
     29 C4          0.7010   -7.0520   -6.5140 c         1 THH      0.629200
     30 O4         -0.2290   -6.2180   -6.6310 o         1 THH     -0.640100
     31 N3          0.9690   -7.5730   -5.2390 nc        1 THH     -0.770100
     32 C2          2.0000   -8.4250   -5.1450 cd        1 THH      0.736200
     33 NA2         2.2560   -8.9380   -3.7530 n4        1 THH     -0.783600
     34 HG1         0.7840   -4.7970   -0.2910 hc        1 THH      0.099200
     35 HG2         0.9310   -3.4480   -1.4980 hc        1 THH      0.099200
     36 HB1         3.3140   -5.3210   -0.8260 hc        1 THH      0.091200
     37 HB2         2.9120   -3.8950    0.2130 hc        1 THH      0.091200
     38 HA          3.2630   -2.2950   -1.5610 h1        1 THH      0.095700
     39 HN          5.4120   -1.6860   -2.0840 ho        1 THH      0.456000
     40 H13         5.3710   -2.5280   -6.2230 ha        1 THH      0.183000
     41 H14         5.0010   -3.3470   -8.5430 ha        1 THH      0.183500
     42 H16         0.9260   -4.5300   -7.4310 ha        1 THH      0.183500
     43 H17         1.3380   -3.7270   -5.1380 ha        1 THH      0.183000
     44 H10         3.1080   -3.8920  -10.1610 hn        1 THH      0.460300
     45 H91         4.0610   -6.0840   -8.7720 hx        1 THH      0.107700
     46 H92         4.0450   -5.8290  -10.5890 hx        1 THH      0.107700
     47 H6          2.0110   -7.0220  -10.9100 h1        1 THH      0.078700
     48 H71         2.5610   -9.2150  -10.1460 h1        1 THH      0.062700
     49 H72         4.1470   -8.3290  -10.3330 h1        1 THH      0.062700
     50 HN8         4.1280   -9.4860   -8.2290 hn        1 THH      0.439800
     51 H111        0.0400   -8.5180   -9.7550 h1        1 THH      0.055033
     52 H112       -0.2090   -6.8280  -10.4000 h1        1 THH      0.055033
     53 H113       -0.7790   -7.2520   -8.7150 h1        1 THH      0.055033
     54 HO4         0.1290   -5.7470   -3.9010 ho        1 THH      0.485000
     55 HA21        1.4940   -8.6260   -3.1300 hn        1 THH      0.470800
     56 HA22        2.3170   -9.9580   -3.7650 hn        1 THH      0.470800
     57 H2          3.1390   -4.5650   -3.4080 hn        1 THH      0.326500
     58 H102        1.7200   -4.6560   -9.6260 hn        1 THH      0.460300
     59 HA23        3.1330   -8.5360   -3.4120 hn        1 THH      0.470800
@<TRIPOS>BOND
     1    1    2 1   
     2    1   54 1   
     3    2    3 2   
     4    2    4 1   
     5    4    5 1   
     6    4   34 1   
     7    4   35 1   
     8    5    6 1   
     9    5   36 1   
    10    5   37 1   
    11    6    7 1   
    12    6   10 1   
    13    6   38 1   
    14    7    8 2   
    15    7    9 1   
    16    9   39 1   
    17   10   11 1   
    18   10   57 1   
    19   11   12 2   
    20   11   13 1   
    21   13   14 ar  
    22   13   18 ar  
    23   14   15 ar  
    24   14   40 1   
    25   15   16 ar  
    26   15   41 1   
    27   16   17 ar  
    28   16   19 1   
    29   17   18 ar  
    30   17   42 1   
    31   18   43 1   
    32   19   20 1   
    33   19   44 1   
    34   19   58 1   
    35   20   21 1   
    36   20   45 1   
    37   20   46 1   
    38   21   22 1   
    39   21   27 1   
    40   21   47 1   
    41   22   23 1   
    42   22   48 1   
    43   22   49 1   
    44   23   24 1   
    45   23   50 1   
    46   24   25 2   
    47   24   26 1   
    48   25   32 1   
    49   26   27 2   
    50   26   29 1   
    51   27   28 1   
    52   28   51 1   
    53   28   52 1   
    54   28   53 1   
    55   29   30 2   
    56   29   31 1   
    57   31   32 2   
    58   32   33 1   
    59   33   55 1   
    60   33   56 1   
    61   33   59 1   
@<TRIPOS>SUBSTRUCTURE
     1 THH         1 TEMP              0 ****  ****    0 ROOT
