@<TRIPOS>MOLECULE
THH
   57    59     1     0     0
SMALL
bcc


@<TRIPOS>ATOM
      1 OE1         0.6010    0.8090   -0.1200 o         1 THH     -0.542000
      2 CD          1.5120    0.2570   -0.7470 c         1 THH      0.637100
      3 OE2         1.3290   -1.0920   -0.8740 oh        1 THH     -0.603100
      4 CG          2.7090    0.9060   -1.3660 c3        1 THH     -0.188400
      5 CB          4.0130    0.2220   -1.0020 c3        1 THH     -0.077400
      6 CA          4.8180   -0.2350   -2.2220 c3        1 THH     -0.069300
      7 CT          6.2790   -0.5700   -1.7190 c         1 THH      0.914600
      8 O1          6.6920   -1.7570   -1.8310 o         1 THH     -0.820800
      9 O2          6.9270    0.3950   -1.2400 o         1 THH     -0.820800
     10 N           4.2210   -1.3620   -2.9180 ns        1 THH     -0.518900
     11 C           3.5420   -1.2020   -4.1050 c         1 THH      0.647700
     12 O           3.0680   -0.0970   -4.4640 o         1 THH     -0.649100
     13 C12         3.2970   -2.4140   -4.9480 ca        1 THH     -0.160600
     14 C13         3.0660   -2.2200   -6.3160 ca        1 THH     -0.057500
     15 C14         2.8210   -3.2960   -7.1570 ca        1 THH     -0.195500
     16 C15         2.8030   -4.6170   -6.6440 ca        1 THH      0.136600
     17 C16         3.0230   -4.8010   -5.2630 ca        1 THH     -0.195500
     18 C17         3.2710   -3.7110   -4.4330 ca        1 THH     -0.057500
     19 N10         2.6460   -5.7000   -7.5330 nu        1 THH     -0.728600
     20 C9          2.1680   -6.9500   -6.9840 c3        1 THH      0.175800
     21 C6          1.8130   -7.9790   -8.1000 c3        1 THH      0.187500
     22 C7          3.1270   -8.3350   -8.8320 c3        1 THH      0.182800
     23 N8          2.9620   -9.4390   -9.7470 nu        1 THH     -0.829900
     24 C8A         2.3170  -10.5680   -9.2150 ca        1 THH      0.669200
     25 N1          2.5970  -11.7900   -9.7550 nb        1 THH     -0.805000
     26 C4A         1.3540  -10.3820   -8.1540 ca        1 THH     -0.186000
     27 N5          1.1340   -9.1380   -7.5120 nh        1 THH     -0.596000
     28 C11        -0.2550   -8.8720   -7.1870 c3        1 THH      0.167100
     29 C4          0.7170  -11.5860   -7.7270 ca        1 THH      0.674600
     30 O4         -0.2080  -11.5100   -6.7110 oh        1 THH     -0.610300
     31 N3          0.9510  -12.8110   -8.2590 nb        1 THH     -0.835000
     32 C2          1.8730  -12.8660   -9.2860 ca        1 THH      0.887900
     33 NA2         2.0490  -14.1040   -9.9380 nv        1 THH     -0.911500
     34 HG1         2.5600    0.9010   -2.4830 hc        1 THH      0.088700
     35 HG2         2.7320    1.9790   -1.0370 hc        1 THH      0.088700
     36 HB1         4.6730    0.9460   -0.4490 hc        1 THH      0.063700
     37 HB2         3.8310   -0.6450   -0.3150 hc        1 THH      0.063700
     38 HA          4.9050    0.6370   -2.9330 h1        1 THH      0.064700
     39 HN          2.0690   -1.4720   -1.3720 ho        1 THH      0.442000
     40 H13         3.0710   -1.1920   -6.7150 ha        1 THH      0.151500
     41 H14         2.6470   -3.1140   -8.2270 ha        1 THH      0.129500
     42 H16         3.0110   -5.8090   -4.8230 ha        1 THH      0.129500
     43 H17         3.4390   -3.8970   -3.3600 ha        1 THH      0.151500
     44 H10         2.1630   -5.4340   -8.3690 hn        1 THH      0.382800
     45 H91         1.2690   -6.7920   -6.3200 h1        1 THH      0.055200
     46 H92         2.9880   -7.3820   -6.3420 h1        1 THH      0.055200
     47 H6          1.1270   -7.4790   -8.8520 h1        1 THH      0.038700
     48 H71         3.9290   -8.5490   -8.0660 h1        1 THH      0.062200
     49 H72         3.4520   -7.4420   -9.4370 h1        1 THH      0.062200
     50 HN8         3.7620   -9.6240  -10.3170 hn        1 THH      0.423800
     51 H111       -0.4720   -9.3570   -6.1970 h1        1 THH      0.044033
     52 H112       -0.9650   -9.2870   -7.9520 h1        1 THH      0.044033
     53 H113       -0.4400   -7.7700   -7.0930 h1        1 THH      0.044033
     54 HO4        -0.5470  -12.4010   -6.5190 ho        1 THH      0.438000
     55 HA21        2.9020  -14.1940  -10.4440 hn        1 THH      0.412300
     56 HA22        1.8040  -14.9020   -9.3960 hn        1 THH      0.412300
     57 H2          4.7660   -2.2000   -2.8120 hn        1 THH      0.328500
@<TRIPOS>BOND
     1    1    2 2   
     2    2    3 1   
     3    2    4 1   
     4    3   39 1   
     5    4    5 1   
     6    4   34 1   
     7    4   35 1   
     8    5    6 1   
     9    5   36 1   
    10    5   37 1   
    11    6    7 1   
    12    6   10 1   
    13    6   38 1   
    14    7    8 1   
    15    7    9 1   
    16   10   11 1   
    17   10   57 1   
    18   11   12 2   
    19   11   13 1   
    20   13   14 ar  
    21   13   18 ar  
    22   14   15 ar  
    23   14   40 1   
    24   15   16 ar  
    25   15   41 1   
    26   16   17 ar  
    27   16   19 1   
    28   17   18 ar  
    29   17   42 1   
    30   18   43 1   
    31   19   20 1   
    32   19   44 1   
    33   20   21 1   
    34   20   45 1   
    35   20   46 1   
    36   21   22 1   
    37   21   27 1   
    38   21   47 1   
    39   22   23 1   
    40   22   48 1   
    41   22   49 1   
    42   23   24 1   
    43   23   50 1   
    44   24   25 ar  
    45   24   26 ar  
    46   25   32 ar  
    47   26   27 1   
    48   26   29 ar  
    49   27   28 1   
    50   28   51 1   
    51   28   52 1   
    52   28   53 1   
    53   29   30 1   
    54   29   31 ar  
    55   30   54 1   
    56   31   32 ar  
    57   32   33 1   
    58   33   55 1   
    59   33   56 1   
@<TRIPOS>SUBSTRUCTURE
     1 THH         1 TEMP              0 ****  ****    0 ROOT
