@<TRIPOS>MOLECULE
THH
   56    58     1     0     0
SMALL
bcc


@<TRIPOS>ATOM
      1 OE1        -3.9310    0.9770   -4.8380 o         1 THH     -0.875300
      2 CD         -2.7130    0.7740   -4.5530 c         1 THH      0.908600
      3 OE2        -2.2330    1.0640   -3.4110 o         1 THH     -0.875300
      4 CG         -1.8070    0.1170   -5.5990 c3        1 THH     -0.190400
      5 CB         -0.7630    1.0620   -6.1550 c3        1 THH     -0.074400
      6 CA          0.6420    0.4410   -6.2710 c3        1 THH     -0.036300
      7 CT          1.5430    1.4330   -7.0830 c         1 THH      0.917600
      8 O1          1.6640    1.2040   -8.3200 o         1 THH     -0.851800
      9 O2          2.0900    2.4030   -6.4870 o         1 THH     -0.851800
     10 N           1.2230    0.1540   -4.9720 n         1 THH     -0.484900
     11 C           1.1070   -1.0570   -4.3460 c         1 THH      0.661700
     12 O           0.9900   -2.1530   -4.9440 o         1 THH     -0.659100
     13 C12         1.2130   -1.0410   -2.8470 ca        1 THH     -0.150600
     14 C13         2.1960   -1.7860   -2.1960 ca        1 THH     -0.073500
     15 C14         2.2590   -1.8080   -0.8060 ca        1 THH     -0.191000
     16 C15         1.3280   -1.0710   -0.0400 ca        1 THH      0.085600
     17 C16         0.3340   -0.3290   -0.7120 ca        1 THH     -0.191000
     18 C17         0.2790   -0.3130   -2.1030 ca        1 THH     -0.073500
     19 N10         1.4660   -1.0510    1.3750 nh        1 THH     -0.713600
     20 C9          0.2710   -0.7280    2.1270 c3        1 THH      0.167800
     21 C6          0.4600   -0.9860    3.6510 c3        1 THH      0.185500
     22 C7          1.6240   -0.0990    4.1500 c3        1 THH      0.172800
     23 N8          1.6610    0.0170    5.5950 nh        1 THH     -0.824900
     24 C8A         0.4420    0.4390    6.1590 ca        1 THH      0.670200
     25 N1          0.4470    1.1940    7.2960 nb        1 THH     -0.809000
     26 C4A        -0.7770    0.0320    5.5080 ca        1 THH     -0.249000
     27 N5         -0.8160   -0.7900    4.3520 nh        1 THH     -0.606000
     28 C11        -1.5150   -2.0470    4.5560 c3        1 THH      0.156100
     29 C4         -1.9710    0.5850    6.0620 ca        1 THH      0.687600
     30 O4         -3.2110    0.3750    5.5050 oh        1 THH     -0.606300
     31 N3         -2.0070    1.3230    7.1980 nb        1 THH     -0.772000
     32 C2         -0.7860    1.5490    7.8080 ca        1 THH      0.873900
     33 NA2        -0.8050    2.1720    9.0760 nh        1 THH     -0.908500
     34 HG1        -2.4460   -0.2700   -6.4340 hc        1 THH      0.023700
     35 HG2        -1.3210   -0.7700   -5.1150 hc        1 THH      0.023700
     36 HB1        -0.7030    1.9820   -5.5150 hc        1 THH      0.046200
     37 HB2        -1.0560    1.3930   -7.1850 hc        1 THH      0.046200
     38 HA          0.5760   -0.5260   -6.8460 h1        1 THH      0.066700
     39 HN          1.3230    0.9650   -4.3990 hn        1 THH      0.311500
     40 H13         2.9160   -2.3680   -2.7900 ha        1 THH      0.187500
     41 H14         3.0430   -2.3990   -0.3120 ha        1 THH      0.120000
     42 H16        -0.4160    0.2510   -0.1550 ha        1 THH      0.120000
     43 H17        -0.5310    0.2610   -2.6230 ha        1 THH      0.187500
     44 H10         1.8760   -1.9090    1.6980 hn        1 THH      0.356800
     45 H91        -0.6270   -1.3130    1.7720 h1        1 THH      0.057700
     46 H92         0.0480    0.3640    1.9650 h1        1 THH      0.057700
     47 H6          0.7890   -2.0640    3.7900 h1        1 THH      0.039700
     48 H71         2.5920   -0.5730    3.8260 h1        1 THH      0.065700
     49 H72         1.5500    0.9130    3.6570 h1        1 THH      0.065700
     50 HN8         2.4740    0.4870    5.9390 hn        1 THH      0.412800
     51 H111       -0.9350   -2.7810    5.1800 h1        1 THH      0.041367
     52 H112       -2.4970   -1.8530    5.0610 h1        1 THH      0.041367
     53 H113       -1.7040   -2.5010    3.5470 h1        1 THH      0.041367
     54 HO4        -3.0830    0.2440    4.5490 ho        1 THH      0.451000
     55 HA21       -1.6250    2.7090    9.2580 hn        1 THH      0.407300
     56 HA22        0.0430    2.6340    9.3210 hn        1 THH      0.407300
@<TRIPOS>BOND
     1    1    2 1   
     2    2    3 1   
     3    2    4 1   
     4    4    5 1   
     5    4   34 1   
     6    4   35 1   
     7    5    6 1   
     8    5   36 1   
     9    5   37 1   
    10    6    7 1   
    11    6   10 1   
    12    6   38 1   
    13    7    8 1   
    14    7    9 1   
    15   10   11 1   
    16   10   39 1   
    17   11   12 2   
    18   11   13 1   
    19   13   14 ar  
    20   13   18 ar  
    21   14   15 ar  
    22   14   40 1   
    23   15   16 ar  
    24   15   41 1   
    25   16   17 ar  
    26   16   19 1   
    27   17   18 ar  
    28   17   42 1   
    29   18   43 1   
    30   19   20 1   
    31   19   44 1   
    32   20   21 1   
    33   20   45 1   
    34   20   46 1   
    35   21   22 1   
    36   21   27 1   
    37   21   47 1   
    38   22   23 1   
    39   22   48 1   
    40   22   49 1   
    41   23   24 1   
    42   23   50 1   
    43   24   25 ar  
    44   24   26 ar  
    45   25   32 ar  
    46   26   27 1   
    47   26   29 ar  
    48   27   28 1   
    49   28   51 1   
    50   28   52 1   
    51   28   53 1   
    52   29   30 1   
    53   29   31 ar  
    54   30   54 1   
    55   31   32 ar  
    56   32   33 1   
    57   33   55 1   
    58   33   56 1   
@<TRIPOS>SUBSTRUCTURE
     1 THH         1 TEMP              0 ****  ****    0 ROOT
