@<TRIPOS>MOLECULE
THH
   57    59     1     0     0
SMALL
bcc


@<TRIPOS>ATOM
      1 OE1         0.6160    0.8130   -0.1190 o         1 THH     -0.542000
      2 CD          1.5250    0.2580   -0.7450 c         1 THH      0.637100
      3 OE2         1.3380   -1.0900   -0.8730 oh        1 THH     -0.603100
      4 CG          2.7250    0.9040   -1.3620 c3        1 THH     -0.188400
      5 CB          4.0270    0.2160   -0.9970 c3        1 THH     -0.077400
      6 CA          4.8320   -0.2450   -2.2170 c3        1 THH     -0.069300
      7 CT          6.2910   -0.5850   -1.7120 c         1 THH      0.914600
      8 O1          6.6990   -1.7730   -1.8240 o         1 THH     -0.820800
      9 O2          6.9420    0.3770   -1.2320 o         1 THH     -0.820800
     10 N           4.2310   -1.3690   -2.9140 n         1 THH     -0.518900
     11 C           3.5550   -1.2060   -4.1020 c         1 THH      0.647700
     12 O           3.0850   -0.0980   -4.4610 o         1 THH     -0.649100
     13 C12         3.3070   -2.4160   -4.9460 ca        1 THH     -0.160600
     14 C13         3.0780   -2.2210   -6.3140 ca        1 THH     -0.057500
     15 C14         2.8300   -3.2960   -7.1550 ca        1 THH     -0.195500
     16 C15         2.8070   -4.6170   -6.6440 ca        1 THH      0.136600
     17 C16         3.0230   -4.8030   -5.2620 ca        1 THH     -0.195500
     18 C17         3.2740   -3.7140   -4.4310 ca        1 THH     -0.057500
     19 N10         2.6470   -5.6990   -7.5330 nh        1 THH     -0.728600
     20 C9          2.1630   -6.9470   -6.9860 c3        1 THH      0.175800
     21 C6          1.8050   -7.9740   -8.1020 c3        1 THH      0.187500
     22 C7          3.1190   -8.3360   -8.8320 c3        1 THH      0.182800
     23 N8          2.9500   -9.4380   -9.7480 nh        1 THH     -0.829900
     24 C8A         2.3000  -10.5650   -9.2180 ca        1 THH      0.669200
     25 N1          2.5760  -11.7880   -9.7580 nb        1 THH     -0.805000
     26 C4A         1.3360  -10.3760   -8.1570 ca        1 THH     -0.186000
     27 N5          1.1210   -9.1310   -7.5160 nh        1 THH     -0.596000
     28 C11        -0.2680   -8.8590   -7.1920 c3        1 THH      0.167100
     29 C4          0.6940  -11.5770   -7.7320 ca        1 THH      0.674600
     30 O4         -0.2320  -11.4970   -6.7180 oh        1 THH     -0.610300
     31 N3          0.9240  -12.8030   -8.2640 nb        1 THH     -0.835000
     32 C2          1.8470  -12.8610   -9.2900 ca        1 THH      0.887900
     33 NA2         2.0180  -14.1000   -9.9430 nh        1 THH     -0.911500
     34 HG1         2.7510    1.9760   -1.0330 hc        1 THH      0.088700
     35 HG2         2.5780    0.8990   -2.4800 hc        1 THH      0.088700
     36 HB1         3.8420   -0.6510   -0.3110 hc        1 THH      0.063700
     37 HB2         4.6890    0.9370   -0.4440 hc        1 THH      0.063700
     38 HA          4.9230    0.6280   -2.9280 h1        1 THH      0.064700
     39 HN          4.7740   -2.2090   -2.8080 hn        1 THH      0.328500
     40 H13         3.0880   -1.1930   -6.7130 ha        1 THH      0.151500
     41 H14         2.6590   -3.1130   -8.2260 ha        1 THH      0.129500
     42 H16         3.0070   -5.8110   -4.8220 ha        1 THH      0.129500
     43 H17         3.4390   -3.9000   -3.3570 ha        1 THH      0.151500
     44 H10         2.1670   -5.4310   -8.3700 hn        1 THH      0.382800
     45 H91         2.9800   -7.3830   -6.3430 h1        1 THH      0.055200
     46 H92         1.2630   -6.7860   -6.3220 h1        1 THH      0.055200
     47 H6          1.1220   -7.4710   -8.8540 h1        1 THH      0.038700
     48 H71         3.4480   -7.4440   -9.4360 h1        1 THH      0.062200
     49 H72         3.9190   -8.5530   -8.0650 h1        1 THH      0.062200
     50 HN8         3.7500   -9.6260  -10.3170 hn        1 THH      0.423800
     51 H111       -0.4480   -7.7560   -7.0980 h1        1 THH      0.044033
     52 H112       -0.4890   -9.3440   -6.2030 h1        1 THH      0.044033
     53 H113       -0.9790   -9.2710   -7.9580 h1        1 THH      0.044033
     54 HO4        -0.5750  -12.3870   -6.5260 ho        1 THH      0.438000
     55 HA21        2.8720  -14.1920  -10.4470 hn        1 THH      0.412300
     56 HA22        1.7690  -14.8970   -9.4010 hn        1 THH      0.412300
     57 H2          2.0780   -1.4720   -1.3700 ho        1 THH      0.442000
@<TRIPOS>BOND
     1    1    2 2   
     2    2    3 1   
     3    2    4 1   
     4    3   57 1   
     5    4    5 1   
     6    4   34 1   
     7    4   35 1   
     8    5    6 1   
     9    5   36 1   
    10    5   37 1   
    11    6    7 1   
    12    6   10 1   
    13    6   38 1   
    14    7    8 1   
    15    7    9 1   
    16   10   11 1   
    17   10   39 1   
    18   11   12 2   
    19   11   13 1   
    20   13   14 ar  
    21   13   18 ar  
    22   14   15 ar  
    23   14   40 1   
    24   15   16 ar  
    25   15   41 1   
    26   16   17 ar  
    27   16   19 1   
    28   17   18 ar  
    29   17   42 1   
    30   18   43 1   
    31   19   20 1   
    32   19   44 1   
    33   20   21 1   
    34   20   45 1   
    35   20   46 1   
    36   21   22 1   
    37   21   27 1   
    38   21   47 1   
    39   22   23 1   
    40   22   48 1   
    41   22   49 1   
    42   23   24 1   
    43   23   50 1   
    44   24   25 ar  
    45   24   26 ar  
    46   25   32 ar  
    47   26   27 1   
    48   26   29 ar  
    49   27   28 1   
    50   28   51 1   
    51   28   52 1   
    52   28   53 1   
    53   29   30 1   
    54   29   31 ar  
    55   30   54 1   
    56   31   32 ar  
    57   32   33 1   
    58   33   55 1   
    59   33   56 1   
@<TRIPOS>SUBSTRUCTURE
     1 THH         1 TEMP              0 ****  ****    0 ROOT
