@<TRIPOS>MOLECULE
THI
   32    31     1     0     0
SMALL
bcc


@<TRIPOS>ATOM
      1 S1          0.8440    0.2000   -2.0670 ss        1 THI      0.033000
      2 C2          2.5420    0.1920   -2.0750 c3        1 THI     -0.291000
      3 C3          2.9130    0.1840   -0.7200 c3        1 THI     -0.057000
      4 N4          1.5990   -0.5710    0.1480 n         1 THI     -0.266000
      5 C5          1.7510    0.1900    1.3670 c2        1 THI      0.329000
      6 O5          2.6890    0.0420    2.2430 o         1 THI     -0.297000
      7 C6          0.7010    1.3010    1.3530 c2        1 THI     -0.143000
      8 C7          0.4460    2.3590    2.2130 c1        1 THI     -0.052000
      9 C8         -0.5880    3.2330    1.9460 c1        1 THI     -0.124750
     10 C9         -1.3810    3.0530    0.8090 c1        1 THI     -0.124750
     11 C10        -1.1340    2.0180   -0.0350 c1        1 THI     -0.102000
     12 C11        -0.0760    1.1240    0.2370 c2        1 THI     -0.048000
     13 C12         0.4150   -0.1410   -0.4760 c3        1 THI      0.047000
     14 C1'        -0.6620   -1.2450   -0.4250 c2        1 THI     -0.071000
     15 C2'        -1.5230   -1.4510   -1.5380 c2        1 THI     -0.112000
     16 C3'        -2.5030   -2.4510   -1.4910 c1        1 THI     -0.134000
     17 C4'        -2.6320   -3.2360   -0.3650 c1        1 THI     -0.124750
     18 C5'        -1.7760   -3.0320    0.7420 c1        1 THI     -0.124750
     19 C6'        -0.7910   -2.0270    0.6970 c1        1 THI     -0.095000
     20 H21         2.8890   -0.6370   -2.5430 h1        1 THI      0.120000
     21 H22         2.8690    0.9680   -2.4990 h1        1 THI      0.120000
     22 H31         3.7380   -0.3380   -0.6010 h1        1 THI      0.121000
     23 H32         3.0470    1.1020   -0.3980 h1        1 THI      0.121000
     24 H7          0.9860    2.4840    2.9840 ha        1 THI      0.155000
     25 H8         -0.7670    3.9700    2.5480 ha        1 THI      0.136500
     26 H9         -2.0970    3.6600    0.6260 ha        1 THI      0.136500
     27 H10        -1.6710    1.8970   -0.8060 ha        1 THI      0.149000
     28 H2'        -1.4270   -0.8780   -2.3640 ha        1 THI      0.144000
     29 H3'        -3.0680   -2.5860   -2.2230 ha        1 THI      0.134000
     30 H4'        -3.2990   -3.9180   -0.3310 ha        1 THI      0.136500
     31 H5'        -1.8690   -3.5890    1.5400 ha        1 THI      0.136500
     32 H6'        -0.1670   -1.8790    1.5060 ha        1 THI      0.149000
@<TRIPOS>BOND
     1    1    2 1   
     2    1   13 1   
     3    2    3 1   
     4    2   20 1   
     5    2   21 1   
     6    3    4 1   
     7    3   22 1   
     8    3   23 1   
     9    4    5 1   
    10    4   13 1   
    11    5    6 1   
    12    5    7 1   
    13    7    8 1   
    14    7   12 1   
    15    8   24 1   
    16    9   10 1   
    17    9   25 1   
    18   10   26 1   
    19   11   12 1   
    20   11   27 1   
    21   12   13 1   
    22   13   14 1   
    23   14   15 1   
    24   14   19 1   
    25   15   16 1   
    26   15   28 1   
    27   16   29 1   
    28   17   18 1   
    29   17   30 1   
    30   18   31 1   
    31   19   32 1   
@<TRIPOS>SUBSTRUCTURE
     1 THI         1 TEMP              0 ****  ****    0 ROOT
