@<TRIPOS>MOLECULE
THI
   32    35     1     0     0
SMALL
bcc


@<TRIPOS>ATOM
      1 S1          0.1320    0.1960    0.1190 ss        1 THI     -0.331200
      2 C2          1.8700   -0.1600    0.1680 c3        1 THI     -0.030300
      3 C3          2.2800   -0.2770    1.6380 c3        1 THI      0.059000
      4 N4          1.1390   -0.5230    2.4960 n         1 THI     -0.407800
      5 C5          0.9010   -1.8670    2.9540 c         1 THI      0.692100
      6 O5          1.7890   -2.6160    3.3690 o         1 THI     -0.572500
      7 C6         -0.5600   -2.1330    2.8580 ca        1 THI     -0.163600
      8 C7         -1.2940   -3.2370    3.2500 ca        1 THI     -0.052000
      9 C8         -2.6750   -3.2310    3.0020 ca        1 THI     -0.141000
     10 C9         -3.2850   -2.1420    2.3840 ca        1 THI     -0.100000
     11 C10        -2.5420   -1.0180    1.9910 ca        1 THI     -0.102000
     12 C11        -1.1790   -1.0230    2.2270 ca        1 THI     -0.055300
     13 C12        -0.1250    0.0300    1.9410 c3        1 THI      0.281100
     14 C1'        -0.5280    1.3650    2.4990 ca        1 THI     -0.078300
     15 C2'        -1.3730    2.1870    1.7390 ca        1 THI     -0.103500
     16 C3'        -1.7910    3.4170    2.2390 ca        1 THI     -0.135500
     17 C4'        -1.3700    3.8410    3.5000 ca        1 THI     -0.121000
     18 C5'        -0.5320    3.0270    4.2580 ca        1 THI     -0.135500
     19 C6'        -0.1120    1.7910    3.7640 ca        1 THI     -0.103500
     20 H21         2.0700   -1.1090   -0.3840 h1        1 THI      0.080700
     21 H22         2.4310    0.6630   -0.3320 h1        1 THI      0.080700
     22 H31         3.0380   -1.0980    1.7780 h1        1 THI      0.081700
     23 H32         2.7450    0.6940    1.9730 h1        1 THI      0.081700
     24 H7         -0.8080   -4.0940    3.7400 ha        1 THI      0.155000
     25 H8         -3.2800   -4.0990    3.3030 ha        1 THI      0.140000
     26 H9         -4.3700   -2.1570    2.1980 ha        1 THI      0.139000
     27 H10        -3.0330   -0.1590    1.5120 ha        1 THI      0.149000
     28 H2'        -1.6940    1.8640    0.7350 ha        1 THI      0.146500
     29 H3'        -2.4510    4.0560    1.6340 ha        1 THI      0.134000
     30 H4'        -1.6990    4.8140    3.8920 ha        1 THI      0.133000
     31 H5'        -0.1970    3.3560    5.2530 ha        1 THI      0.134000
     32 H6'         0.5460    1.1610    4.3830 ha        1 THI      0.146500
@<TRIPOS>BOND
     1    1    2 1   
     2    1   13 1   
     3    2    3 1   
     4    2   20 1   
     5    2   21 1   
     6    3    4 1   
     7    3   22 1   
     8    3   23 1   
     9    4    5 1   
    10    4   13 1   
    11    5    6 2   
    12    5    7 1   
    13    7    8 ar  
    14    7   12 ar  
    15    8    9 ar  
    16    8   24 1   
    17    9   10 ar  
    18    9   25 1   
    19   10   11 ar  
    20   10   26 1   
    21   11   12 ar  
    22   11   27 1   
    23   12   13 1   
    24   13   14 1   
    25   14   15 ar  
    26   14   19 ar  
    27   15   16 ar  
    28   15   28 1   
    29   16   17 ar  
    30   16   29 1   
    31   17   18 ar  
    32   17   30 1   
    33   18   19 ar  
    34   18   31 1   
    35   19   32 1   
@<TRIPOS>SUBSTRUCTURE
     1 THI         1 TEMP              0 ****  ****    0 ROOT
