@<TRIPOS>MOLECULE
THI
   32    35     1     0     0
SMALL
bcc


@<TRIPOS>ATOM
      1 S1         -1.4560   -1.6370    0.5410 ss        1 THI     -0.331200
      2 C2         -2.9910   -0.7480    0.4820 c3        1 THI     -0.030300
      3 C3         -2.6630    0.7420    0.3570 c3        1 THI      0.059000
      4 N4         -1.3130    0.9550   -0.1240 n         1 THI     -0.407800
      5 C5         -1.1230    1.2880   -1.5120 c         1 THI      0.692100
      6 O5         -1.8190    2.1040   -2.1220 o         1 THI     -0.572500
      7 C6          0.0430    0.5120   -2.0150 ca        1 THI     -0.163600
      8 C7          0.6700    0.5410   -3.2470 ca        1 THI     -0.052000
      9 C8          1.7420   -0.3390   -3.4610 ca        1 THI     -0.141000
     10 C9          2.1610   -1.2100   -2.4590 ca        1 THI     -0.100000
     11 C10         1.5290   -1.2360   -1.2060 ca        1 THI     -0.102000
     12 C11         0.4680   -0.3760   -0.9930 ca        1 THI     -0.055300
     13 C12        -0.3940   -0.1570    0.2360 c3        1 THI      0.281100
     14 C1'         0.4520    0.0930    1.4520 ca        1 THI     -0.078300
     15 C2'         0.9600   -1.0070    2.1590 ca        1 THI     -0.103500
     16 C3'         1.7730   -0.8110    3.2720 ca        1 THI     -0.135500
     17 C4'         2.0860    0.4820    3.6930 ca        1 THI     -0.121000
     18 C5'         1.5840    1.5770    2.9930 ca        1 THI     -0.135500
     19 C6'         0.7720    1.3880    1.8740 ca        1 THI     -0.103500
     20 H21        -3.5700   -0.9450    1.4140 h1        1 THI      0.080700
     21 H22        -3.5920   -1.1040   -0.3880 h1        1 THI      0.080700
     22 H31        -2.7340    1.2260    1.3730 h1        1 THI      0.081700
     23 H32        -3.3910    1.2560   -0.3310 h1        1 THI      0.081700
     24 H7          0.3370    1.2330   -4.0350 ha        1 THI      0.155000
     25 H8          2.2560   -0.3360   -4.4340 ha        1 THI      0.140000
     26 H9          3.0040   -1.8930   -2.6460 ha        1 THI      0.139000
     27 H10         1.8720   -1.9220   -0.4170 ha        1 THI      0.149000
     28 H2'         0.7010   -2.0300    1.8410 ha        1 THI      0.146500
     29 H3'         2.1640   -1.6790    3.8220 ha        1 THI      0.134000
     30 H4'         2.7260    0.6350    4.5740 ha        1 THI      0.133000
     31 H5'         1.8280    2.5990    3.3200 ha        1 THI      0.134000
     32 H6'         0.3920    2.2670    1.3320 ha        1 THI      0.146500
@<TRIPOS>BOND
     1    1    2 1   
     2    1   13 1   
     3    2    3 1   
     4    2   20 1   
     5    2   21 1   
     6    3    4 1   
     7    3   22 1   
     8    3   23 1   
     9    4    5 1   
    10    4   13 1   
    11    5    6 2   
    12    5    7 1   
    13    7    8 ar  
    14    7   12 ar  
    15    8    9 ar  
    16    8   24 1   
    17    9   10 ar  
    18    9   25 1   
    19   10   11 ar  
    20   10   26 1   
    21   11   12 ar  
    22   11   27 1   
    23   12   13 1   
    24   13   14 1   
    25   14   15 ar  
    26   14   19 ar  
    27   15   16 ar  
    28   15   28 1   
    29   16   17 ar  
    30   16   29 1   
    31   17   18 ar  
    32   17   30 1   
    33   18   19 ar  
    34   18   31 1   
    35   19   32 1   
@<TRIPOS>SUBSTRUCTURE
     1 THI         1 TEMP              0 ****  ****    0 ROOT
