@<TRIPOS>MOLECULE
THI
   32    35     1     0     0
SMALL
bcc


@<TRIPOS>ATOM
      1 S1          0.1280    0.2000    0.1180 ss        1 THI     -0.331200
      2 C2          1.8670   -0.1500    0.1640 c3        1 THI     -0.030300
      3 C3          2.2800   -0.2670    1.6340 c3        1 THI      0.059000
      4 N4          1.1410   -0.5170    2.4930 n         1 THI     -0.407800
      5 C5          0.9080   -1.8630    2.9500 c         1 THI      0.692100
      6 O5          1.7990   -2.6100    3.3640 o         1 THI     -0.572500
      7 C6         -0.5520   -2.1340    2.8560 ca        1 THI     -0.163600
      8 C7         -1.2820   -3.2400    3.2480 ca        1 THI     -0.052000
      9 C8         -2.6640   -3.2380    3.0020 ca        1 THI     -0.141000
     10 C9         -3.2780   -2.1510    2.3860 ca        1 THI     -0.100000
     11 C10        -2.5390   -1.0240    1.9930 ca        1 THI     -0.102000
     12 C11        -1.1760   -1.0250    2.2270 ca        1 THI     -0.055300
     13 C12        -0.1250    0.0310    1.9400 c3        1 THI      0.281100
     14 C1'        -0.5320    1.3650    2.5000 ca        1 THI     -0.078300
     15 C2'        -1.3810    2.1840    1.7420 ca        1 THI     -0.103500
     16 C3'        -1.8020    3.4130    2.2440 ca        1 THI     -0.135500
     17 C4'        -1.3800    3.8370    3.5040 ca        1 THI     -0.121000
     18 C5'        -0.5370    3.0260    4.2610 ca        1 THI     -0.135500
     19 C6'        -0.1150    1.7910    3.7650 ca        1 THI     -0.103500
     20 H21         2.0690   -1.0980   -0.3890 h1        1 THI      0.080700
     21 H22         2.4250    0.6750   -0.3350 h1        1 THI      0.080700
     22 H31         2.7430    0.7050    1.9690 h1        1 THI      0.081700
     23 H32         3.0410   -1.0870    1.7720 h1        1 THI      0.081700
     24 H7         -0.7930   -4.0960    3.7360 ha        1 THI      0.155000
     25 H8         -3.2650   -4.1090    3.3030 ha        1 THI      0.140000
     26 H9         -4.3630   -2.1690    2.2010 ha        1 THI      0.139000
     27 H10        -3.0330   -0.1660    1.5150 ha        1 THI      0.149000
     28 H2'        -1.7040    1.8610    0.7390 ha        1 THI      0.146500
     29 H3'        -2.4660    4.0500    1.6410 ha        1 THI      0.134000
     30 H4'        -1.7120    4.8090    3.8980 ha        1 THI      0.133000
     31 H5'        -0.2020    3.3560    5.2550 ha        1 THI      0.134000
     32 H6'         0.5460    1.1640    4.3820 ha        1 THI      0.146500
@<TRIPOS>BOND
     1    1    2 1   
     2    1   13 1   
     3    2    3 1   
     4    2   20 1   
     5    2   21 1   
     6    3    4 1   
     7    3   22 1   
     8    3   23 1   
     9    4    5 1   
    10    4   13 1   
    11    5    6 2   
    12    5    7 1   
    13    7    8 ar  
    14    7   12 ar  
    15    8    9 ar  
    16    8   24 1   
    17    9   10 ar  
    18    9   25 1   
    19   10   11 ar  
    20   10   26 1   
    21   11   12 ar  
    22   11   27 1   
    23   12   13 1   
    24   13   14 1   
    25   14   15 ar  
    26   14   19 ar  
    27   15   16 ar  
    28   15   28 1   
    29   16   17 ar  
    30   16   29 1   
    31   17   18 ar  
    32   17   30 1   
    33   18   19 ar  
    34   18   31 1   
    35   19   32 1   
@<TRIPOS>SUBSTRUCTURE
     1 THI         1 TEMP              0 ****  ****    0 ROOT
