@<TRIPOS>MOLECULE
THJ
    5     2     1     0     0
SMALL
bcc


@<TRIPOS>ATOM
      1 S1         -0.0850    0.0220    0.0260 ss        1 THJ      2.477000
      2 O1         -0.7330   -1.3390   -0.0480 o         1 THJ     -0.923000
      3 O2         -0.5780    0.6520   -1.2550 o         1 THJ     -0.923000
      4 O3         -0.5630    0.7920    1.2340 os        1 THJ     -1.076000
      5 S2          1.9590   -0.1270    0.0430 DU        1 THJ     -1.556000
@<TRIPOS>BOND
     1    1    2 1   
     2    1    3 1   
@<TRIPOS>SUBSTRUCTURE
     1 THJ         1 TEMP              0 ****  ****    0 ROOT
