@<TRIPOS>MOLECULE
THK
   56    59     1     0     0
SMALL
bcc


@<TRIPOS>ATOM
      1 N1         -0.0510   -0.3510    0.0330 n3        1 THK     -0.727600
      2 C2          1.4030   -0.2320   -0.0010 c3        1 THK      0.168800
      3 C3          2.0270   -0.1600    1.3900 c3        1 THK     -0.081900
      4 C4          1.6110   -1.3670    2.2410 c3        1 THK      0.197100
      5 O19         2.0880   -2.5730    1.6430 oh        1 THK     -0.593800
      6 C5          0.0810   -1.4850    2.2520 c3        1 THK     -0.081900
      7 C6         -0.4900   -1.4850    0.8380 c3        1 THK      0.168800
      8 C7         -0.6100   -0.3660   -1.3130 c3        1 THK      0.174800
      9 C8         -2.1270   -0.1900   -1.3530 c3        1 THK     -0.091400
     10 C9         -2.5720    0.0090   -2.7870 c3        1 THK     -0.055400
     11 C10        -4.0800    0.1190   -2.9610 c3        1 THK      0.173500
     12 C12        -4.3980    0.1690   -4.4180 ca        1 THK     -0.091300
     13 C13        -4.3700   -1.0180   -5.1660 ca        1 THK     -0.087000
     14 C14        -4.6450   -1.0070   -6.5280 ca        1 THK     -0.167500
     15 C15        -4.9470    0.2120   -7.1640 ca        1 THK      0.129900
     16 F18        -5.2150    0.2330   -8.4910 f         1 THK     -0.140900
     17 C16        -4.9720    1.4070   -6.4230 ca        1 THK     -0.167500
     18 C17        -4.6970    1.3760   -5.0600 ca        1 THK     -0.087000
     19 C20         2.1320   -1.2260    3.6520 ca        1 THK     -0.110300
     20 C21         2.8970   -2.2420    4.2370 ca        1 THK     -0.113500
     21 C22         3.3770   -2.1130    5.5390 ca        1 THK     -0.125000
     22 C23         3.0840   -0.9580    6.2700 ca        1 THK      0.018400
     23 Cl6         3.6690   -0.7910    7.8570 cl        1 THK     -0.094400
     24 C24         2.3090    0.0590    5.7040 ca        1 THK     -0.125000
     25 C25         1.8360   -0.0810    4.4020 ca        1 THK     -0.113500
     26 S51        -4.9510   -1.3150   -2.3010 ss        1 THK     -0.287200
     27 C52        -5.6710   -0.5790   -0.8640 c3        1 THK     -0.012800
     28 C55        -5.9480    0.8740   -1.1180 c3        1 THK     -0.012800
     29 S58        -4.6440    1.5860   -2.0830 ss        1 THK     -0.287200
     30 H21A        1.6580    0.7150   -0.5550 h1        1 THK      0.037700
     31 H22A        1.8760   -1.0980   -0.5540 h1        1 THK      0.037700
     32 H31         1.7100    0.7830    1.9020 hc        1 THK      0.057950
     33 H32         3.1420   -0.1380    1.2800 hc        1 THK      0.057950
     34 HO9         3.0330   -2.4560    1.4880 ho        1 THK      0.401000
     35 H51        -0.3350   -0.6300    2.8440 hc        1 THK      0.057950
     36 H52        -0.2120   -2.4440    2.7510 hc        1 THK      0.057950
     37 H61        -0.2170   -2.4670    0.3490 h1        1 THK      0.037700
     38 H62        -1.6130   -1.4330    0.9120 h1        1 THK      0.037700
     39 H71        -0.3460   -1.3200   -1.8610 h1        1 THK      0.030700
     40 H72        -0.1420    0.4880   -1.8820 h1        1 THK      0.030700
     41 H81        -2.4340    0.6950   -0.7350 hc        1 THK      0.063700
     42 H82        -2.6360   -1.0970   -0.9290 hc        1 THK      0.063700
     43 H91        -2.2070   -0.8510   -3.4130 hc        1 THK      0.058700
     44 H92        -2.1020    0.9440   -3.1990 hc        1 THK      0.058700
     45 H13        -4.1400   -1.9740   -4.6660 ha        1 THK      0.153500
     46 H14        -4.6300   -1.9380   -7.1130 ha        1 THK      0.150000
     47 H16        -5.2100    2.3560   -6.9260 ha        1 THK      0.150000
     48 H17        -4.7250    2.3130   -4.4770 ha        1 THK      0.153500
     49 H21         3.1120   -3.1620    3.6700 ha        1 THK      0.144500
     50 H22         3.9780   -2.9180    5.9870 ha        1 THK      0.148000
     51 H24         2.0720    0.9650    6.2820 ha        1 THK      0.148000
     52 H25         1.2170    0.7190    3.9670 ha        1 THK      0.144500
     53 H521       -6.6140   -1.1430   -0.6530 h1        1 THK      0.085950
     54 H522       -4.9890   -0.7040    0.0130 h1        1 THK      0.085950
     55 H551       -5.9900    1.4550   -0.1630 h1        1 THK      0.085950
     56 H552       -6.9250    1.0050   -1.6460 h1        1 THK      0.085950
@<TRIPOS>BOND
     1    1    2 1   
     2    1    7 1   
     3    1    8 1   
     4    2    3 1   
     5    2   30 1   
     6    2   31 1   
     7    3    4 1   
     8    3   32 1   
     9    3   33 1   
    10    4    5 1   
    11    4    6 1   
    12    4   19 1   
    13    5   34 1   
    14    6    7 1   
    15    6   35 1   
    16    6   36 1   
    17    7   37 1   
    18    7   38 1   
    19    8    9 1   
    20    8   39 1   
    21    8   40 1   
    22    9   10 1   
    23    9   41 1   
    24    9   42 1   
    25   10   11 1   
    26   10   43 1   
    27   10   44 1   
    28   11   12 1   
    29   11   26 1   
    30   11   29 1   
    31   12   13 ar  
    32   12   18 ar  
    33   13   14 ar  
    34   13   45 1   
    35   14   15 ar  
    36   14   46 1   
    37   15   16 1   
    38   15   17 ar  
    39   17   18 ar  
    40   17   47 1   
    41   18   48 1   
    42   19   20 ar  
    43   19   25 ar  
    44   20   21 ar  
    45   20   49 1   
    46   21   22 ar  
    47   21   50 1   
    48   22   23 1   
    49   22   24 ar  
    50   24   25 ar  
    51   24   51 1   
    52   25   52 1   
    53   26   27 1   
    54   27   28 1   
    55   27   53 1   
    56   27   54 1   
    57   28   29 1   
    58   28   55 1   
    59   28   56 1   
@<TRIPOS>SUBSTRUCTURE
     1 THK         1 TEMP              0 ****  ****    0 ROOT
