@<TRIPOS>MOLECULE
THK
   56    59     1     0     0
SMALL
bcc


@<TRIPOS>ATOM
      1 N1         -0.0510   -0.3500    0.0340 n3        1 THK     -0.727600
      2 C2          1.4030   -0.2320    0.0000 c3        1 THK      0.168800
      3 C3          2.0270   -0.1590    1.3910 c3        1 THK     -0.081900
      4 C4          1.6100   -1.3640    2.2440 c3        1 THK      0.197100
      5 O19         2.0870   -2.5710    1.6460 oh        1 THK     -0.593800
      6 C5          0.0800   -1.4820    2.2540 c3        1 THK     -0.081900
      7 C6         -0.4910   -1.4820    0.8390 c3        1 THK      0.168800
      8 C7         -0.6100   -0.3670   -1.3130 c3        1 THK      0.174800
      9 C8         -2.1270   -0.1900   -1.3530 c3        1 THK     -0.091400
     10 C9         -2.5710    0.0060   -2.7880 c3        1 THK     -0.055400
     11 C10        -4.0790    0.1180   -2.9620 c3        1 THK      0.173500
     12 C12        -4.3960    0.1630   -4.4200 ca        1 THK     -0.091300
     13 C13        -4.3700   -1.0260   -5.1640 ca        1 THK     -0.087000
     14 C14        -4.6440   -1.0190   -6.5270 ca        1 THK     -0.167500
     15 C15        -4.9450    0.1990   -7.1660 ca        1 THK      0.129900
     16 F18        -5.2120    0.2160   -8.4940 f         1 THK     -0.140900
     17 C16        -4.9690    1.3960   -6.4290 ca        1 THK     -0.167500
     18 C17        -4.6940    1.3690   -5.0650 ca        1 THK     -0.087000
     19 C20         2.1310   -1.2230    3.6540 ca        1 THK     -0.110300
     20 C21         2.8950   -2.2380    4.2400 ca        1 THK     -0.113500
     21 C22         3.3740   -2.1080    5.5420 ca        1 THK     -0.125000
     22 C23         3.0830   -0.9530    6.2720 ca        1 THK      0.018400
     23 CL6         3.6680   -0.7840    7.8590 cl        1 THK     -0.094400
     24 C24         2.3090    0.0650    5.7050 ca        1 THK     -0.125000
     25 C25         1.8350   -0.0760    4.4030 ca        1 THK     -0.113500
     26 S51        -4.9520   -1.3140   -2.2980 ss        1 THK     -0.287200
     27 C52        -5.6720   -0.5730   -0.8630 c3        1 THK     -0.012800
     28 C55        -5.9470    0.8790   -1.1220 c3        1 THK     -0.012800
     29 S58        -4.6430    1.5870   -2.0880 ss        1 THK     -0.287200
     30 H21A        1.6580    0.7150   -0.5550 h1        1 THK      0.037700
     31 H22A        1.8750   -1.0980   -0.5520 h1        1 THK      0.037700
     32 H31         1.7100    0.7860    1.9020 hc        1 THK      0.057950
     33 H32         3.1410   -0.1370    1.2810 hc        1 THK      0.057950
     34 HO9         3.0320   -2.4550    1.4910 ho        1 THK      0.401000
     35 H51        -0.2130   -2.4400    2.7540 hc        1 THK      0.057950
     36 H52        -0.3350   -0.6260    2.8450 hc        1 THK      0.057950
     37 H61        -1.6140   -1.4300    0.9140 h1        1 THK      0.037700
     38 H62        -0.2180   -2.4650    0.3520 h1        1 THK      0.037700
     39 H71        -0.1410    0.4870   -1.8820 h1        1 THK      0.030700
     40 H72        -0.3470   -1.3210   -1.8590 h1        1 THK      0.030700
     41 H81        -2.6360   -1.0950   -0.9280 hc        1 THK      0.063700
     42 H82        -2.4330    0.6970   -0.7370 hc        1 THK      0.063700
     43 H91        -2.1000    0.9400   -3.2020 hc        1 THK      0.058700
     44 H92        -2.2070   -0.8560   -3.4120 hc        1 THK      0.058700
     45 H13        -4.1410   -1.9810   -4.6620 ha        1 THK      0.153500
     46 H14        -4.6300   -1.9520   -7.1080 ha        1 THK      0.150000
     47 H16        -5.2050    2.3430   -6.9340 ha        1 THK      0.150000
     48 H17        -4.7210    2.3070   -4.4850 ha        1 THK      0.153500
     49 H21         3.1090   -3.1590    3.6740 ha        1 THK      0.144500
     50 H22         3.9750   -2.9140    5.9900 ha        1 THK      0.148000
     51 H24         2.0720    0.9710    6.2820 ha        1 THK      0.148000
     52 H25         1.2170    0.7240    3.9670 ha        1 THK      0.144500
     53 H521       -6.6150   -1.1350   -0.6510 h1        1 THK      0.085950
     54 H522       -4.9890   -0.6960    0.0140 h1        1 THK      0.085950
     55 H551       -6.9230    1.0100   -1.6510 h1        1 THK      0.085950
     56 H552       -5.9890    1.4630   -0.1690 h1        1 THK      0.085950
@<TRIPOS>BOND
     1    1    2 1   
     2    1    7 1   
     3    1    8 1   
     4    2    3 1   
     5    2   30 1   
     6    2   31 1   
     7    3    4 1   
     8    3   32 1   
     9    3   33 1   
    10    4    5 1   
    11    4    6 1   
    12    4   19 1   
    13    5   34 1   
    14    6    7 1   
    15    6   35 1   
    16    6   36 1   
    17    7   37 1   
    18    7   38 1   
    19    8    9 1   
    20    8   39 1   
    21    8   40 1   
    22    9   10 1   
    23    9   41 1   
    24    9   42 1   
    25   10   11 1   
    26   10   43 1   
    27   10   44 1   
    28   11   12 1   
    29   11   26 1   
    30   11   29 1   
    31   12   13 ar  
    32   12   18 ar  
    33   13   14 ar  
    34   13   45 1   
    35   14   15 ar  
    36   14   46 1   
    37   15   16 1   
    38   15   17 ar  
    39   17   18 ar  
    40   17   47 1   
    41   18   48 1   
    42   19   20 ar  
    43   19   25 ar  
    44   20   21 ar  
    45   20   49 1   
    46   21   22 ar  
    47   21   50 1   
    48   22   23 1   
    49   22   24 ar  
    50   24   25 ar  
    51   24   51 1   
    52   25   52 1   
    53   26   27 1   
    54   27   28 1   
    55   27   53 1   
    56   27   54 1   
    57   28   29 1   
    58   28   55 1   
    59   28   56 1   
@<TRIPOS>SUBSTRUCTURE
     1 THK         1 TEMP              0 ****  ****    0 ROOT
