@<TRIPOS>MOLECULE
THK
   56    59     1     0     0
SMALL
bcc


@<TRIPOS>ATOM
      1 N1         -0.9300   -0.3390    1.0020 n3        1 THK     -0.727600
      2 C2         -2.0890   -0.7140    1.8070 c3        1 THK      0.168800
      3 C3         -1.7710   -0.8680    3.2910 c3        1 THK     -0.081900
      4 C4         -1.0870    0.3860    3.8520 c3        1 THK      0.197100
      5 O19        -2.0650    1.4250    3.7770 oh        1 THK     -0.593800
      6 C5          0.1240    0.7430    2.9810 c3        1 THK     -0.081900
      7 C6         -0.2730    0.8580    1.5110 c3        1 THK      0.168800
      8 C7         -1.2790   -0.2300   -0.4090 c3        1 THK      0.173800
      9 C8         -0.0680   -0.1840   -1.3410 c3        1 THK     -0.091400
     10 C9         -0.5380   -0.2770   -2.7780 c3        1 THK     -0.055400
     11 C10         0.5790   -0.1700   -3.8050 c3        1 THK      0.174500
     12 C12        -0.0210   -0.1260   -5.1720 ca        1 THK     -0.092300
     13 C13        -0.5940    1.0700   -5.6300 ca        1 THK     -0.087000
     14 C14        -1.1760    1.1430   -6.8890 ca        1 THK     -0.167500
     15 C15        -1.1950   -0.0010   -7.7110 ca        1 THK      0.129900
     16 F18        -1.7620    0.0600   -8.9390 f         1 THK     -0.140900
     17 C16        -0.6270   -1.2040   -7.2580 ca        1 THK     -0.167500
     18 C17        -0.0470   -1.2580   -5.9940 ca        1 THK     -0.087000
     19 C20        -0.6620    0.1520    5.2820 ca        1 THK     -0.110300
     20 C21        -1.2670    0.8510    6.3320 ca        1 THK     -0.113500
     21 C22        -0.8750    0.6350    7.6510 ca        1 THK     -0.125000
     22 C23         0.1300   -0.2960    7.9280 ca        1 THK      0.018400
     23 CL6         0.6170   -0.5630    9.5350 cl        1 THK     -0.094400
     24 C24         0.7340   -1.0140    6.8910 ca        1 THK     -0.125000
     25 C25         0.3340   -0.7880    5.5760 ca        1 THK     -0.113500
     26 S51         1.5340    1.3500   -3.6220 ss        1 THK     -0.287700
     27 C52         3.0330    0.6730   -2.9720 c3        1 THK     -0.013300
     28 C55         3.2360   -0.7180   -3.4980 c3        1 THK     -0.013300
     29 S58         1.6870   -1.5710   -3.5830 ss        1 THK     -0.287700
     30 H21A       -2.4660   -1.7030    1.4210 h1        1 THK      0.037950
     31 H22A       -2.9230    0.0420    1.7050 h1        1 THK      0.037950
     32 H31        -1.0950   -1.7450    3.4590 hc        1 THK      0.057950
     33 H32        -2.7310   -1.0440    3.8410 hc        1 THK      0.057950
     34 HO9        -1.6120    2.2530    3.9760 ho        1 THK      0.401000
     35 H51         0.5540    1.7230    3.3110 hc        1 THK      0.057950
     36 H52         0.9130   -0.0410    3.1030 hc        1 THK      0.057950
     37 H61         0.6610    1.0220    0.9030 h1        1 THK      0.037950
     38 H62        -0.9290    1.7710    1.3950 h1        1 THK      0.037950
     39 H71        -1.8930   -1.1380   -0.6770 h1        1 THK      0.031700
     40 H72        -1.9190    0.6800   -0.6090 h1        1 THK      0.031700
     41 H81         0.4990    0.7740   -1.1980 hc        1 THK      0.062700
     42 H82         0.6300   -1.0330   -1.1150 hc        1 THK      0.062700
     43 H91        -1.0680   -1.2560   -2.9360 hc        1 THK      0.058700
     44 H92        -1.2830    0.5410   -2.9810 hc        1 THK      0.058700
     45 H13        -0.5740    1.9670   -4.9890 ha        1 THK      0.153500
     46 H14        -1.6200    2.0810   -7.2510 ha        1 THK      0.150000
     47 H16        -0.6450   -2.0940   -7.9040 ha        1 THK      0.150000
     48 H17         0.4070   -2.2000   -5.6420 ha        1 THK      0.153500
     49 H21        -2.0740    1.5710    6.1190 ha        1 THK      0.144500
     50 H22        -1.3580    1.1920    8.4680 ha        1 THK      0.148000
     51 H24         1.5180   -1.7540    7.1090 ha        1 THK      0.148000
     52 H25         0.8060   -1.3650    4.7650 ha        1 THK      0.144500
     53 H521        3.8590    1.3550   -3.2940 h1        1 THK      0.085700
     54 H522        2.9980    0.6720   -1.8540 h1        1 THK      0.085700
     55 H551        3.7120   -0.6940   -4.5080 h1        1 THK      0.085700
     56 H552        3.8920   -1.3190   -2.8190 h1        1 THK      0.085700
@<TRIPOS>BOND
     1    1    2 1   
     2    1    7 1   
     3    1    8 1   
     4    2    3 1   
     5    2   30 1   
     6    2   31 1   
     7    3    4 1   
     8    3   32 1   
     9    3   33 1   
    10    4    5 1   
    11    4    6 1   
    12    4   19 1   
    13    5   34 1   
    14    6    7 1   
    15    6   35 1   
    16    6   36 1   
    17    7   37 1   
    18    7   38 1   
    19    8    9 1   
    20    8   39 1   
    21    8   40 1   
    22    9   10 1   
    23    9   41 1   
    24    9   42 1   
    25   10   11 1   
    26   10   43 1   
    27   10   44 1   
    28   11   12 1   
    29   11   26 1   
    30   11   29 1   
    31   12   13 ar  
    32   12   18 ar  
    33   13   14 ar  
    34   13   45 1   
    35   14   15 ar  
    36   14   46 1   
    37   15   16 1   
    38   15   17 ar  
    39   17   18 ar  
    40   17   47 1   
    41   18   48 1   
    42   19   20 ar  
    43   19   25 ar  
    44   20   21 ar  
    45   20   49 1   
    46   21   22 ar  
    47   21   50 1   
    48   22   23 1   
    49   22   24 ar  
    50   24   25 ar  
    51   24   51 1   
    52   25   52 1   
    53   26   27 1   
    54   27   28 1   
    55   27   53 1   
    56   27   54 1   
    57   28   29 1   
    58   28   55 1   
    59   28   56 1   
@<TRIPOS>SUBSTRUCTURE
     1 THK         1 TEMP              0 ****  ****    0 ROOT
