@<TRIPOS>MOLECULE
THK
   56    59     1     0     0
SMALL
bcc


@<TRIPOS>ATOM
      1 N1         -0.0500   -0.3510    0.0330 n3        1 THK     -0.727600
      2 C2          1.4040   -0.2380   -0.0020 c3        1 THK      0.168800
      3 C3          2.0290   -0.1650    1.3880 c3        1 THK     -0.082400
      4 C4          1.6090   -1.3670    2.2430 c3        1 THK      0.197100
      5 O19         2.0810   -2.5770    1.6490 oh        1 THK     -0.593800
      6 C5          0.0790   -1.4800    2.2550 c3        1 THK     -0.082400
      7 C6         -0.4940   -1.4810    0.8410 c3        1 THK      0.168800
      8 C7         -0.6100   -0.3690   -1.3130 c3        1 THK      0.174800
      9 C8         -2.1270   -0.1930   -1.3530 c3        1 THK     -0.091400
     10 C9         -2.5710    0.0090   -2.7870 c3        1 THK     -0.055400
     11 C10        -4.0790    0.1170   -2.9610 c3        1 THK      0.173500
     12 C12        -4.3960    0.1710   -4.4190 ca        1 THK     -0.091300
     13 C13        -4.3660   -1.0130   -5.1710 ca        1 THK     -0.087000
     14 C14        -4.6390   -0.9970   -6.5340 ca        1 THK     -0.167500
     15 C15        -4.9440    0.2240   -7.1650 ca        1 THK      0.129900
     16 F18        -5.2100    0.2490   -8.4920 f         1 THK     -0.140900
     17 C16        -4.9720    1.4160   -6.4200 ca        1 THK     -0.167500
     18 C17        -4.6970    1.3800   -5.0560 ca        1 THK     -0.087000
     19 C20         2.1310   -1.2240    3.6540 ca        1 THK     -0.110300
     20 C21         2.8930   -2.2410    4.2410 ca        1 THK     -0.113500
     21 C22         3.3730   -2.1100    5.5420 ca        1 THK     -0.125000
     22 C23         3.0860   -0.9520    6.2700 ca        1 THK      0.018400
     23 CL6         3.6720   -0.7820    7.8560 cl        1 THK     -0.094400
     24 C24         2.3150    0.0670    5.7010 ca        1 THK     -0.125000
     25 C25         1.8400   -0.0750    4.4000 ca        1 THK     -0.113500
     26 S51        -4.9480   -1.3230   -2.3080 ss        1 THK     -0.287200
     27 C52        -5.6720   -0.5930   -0.8680 c3        1 THK     -0.012800
     28 C55        -5.9510    0.8600   -1.1180 c3        1 THK     -0.012800
     29 S58        -4.6480    1.5780   -2.0780 ss        1 THK     -0.287200
     30 H21A        1.6630    0.7060   -0.5600 h1        1 THK      0.037700
     31 H22A        1.8730   -1.1080   -0.5530 h1        1 THK      0.037700
     32 H31         1.7160    0.7820    1.8980 hc        1 THK      0.057950
     33 H32         3.1440   -0.1470    1.2770 hc        1 THK      0.057950
     34 HO9         3.0260   -2.4640    1.4920 ho        1 THK      0.401000
     35 H51        -0.2180   -2.4350    2.7570 hc        1 THK      0.057950
     36 H52        -0.3330   -0.6210    2.8450 hc        1 THK      0.057950
     37 H61        -1.6160   -1.4240    0.9160 h1        1 THK      0.037700
     38 H62        -0.2240   -2.4660    0.3550 h1        1 THK      0.037700
     39 H71        -0.1410    0.4850   -1.8830 h1        1 THK      0.030700
     40 H72        -0.3460   -1.3230   -1.8590 h1        1 THK      0.030700
     41 H81        -2.4340    0.6910   -0.7340 hc        1 THK      0.063700
     42 H82        -2.6350   -1.1000   -0.9310 hc        1 THK      0.063700
     43 H91        -2.1030    0.9460   -3.1960 hc        1 THK      0.058700
     44 H92        -2.2050   -0.8490   -3.4150 hc        1 THK      0.058700
     45 H13        -4.1340   -1.9700   -4.6750 ha        1 THK      0.153500
     46 H14        -4.6220   -1.9260   -7.1220 ha        1 THK      0.150000
     47 H16        -5.2100    2.3660   -6.9180 ha        1 THK      0.150000
     48 H17        -4.7280    2.3150   -4.4700 ha        1 THK      0.153500
     49 H21         3.1030   -3.1640    3.6770 ha        1 THK      0.144500
     50 H22         3.9720   -2.9160    5.9920 ha        1 THK      0.148000
     51 H24         2.0810    0.9750    6.2770 ha        1 THK      0.148000
     52 H25         1.2240    0.7260    3.9630 ha        1 THK      0.144500
     53 H521       -6.6140   -1.1600   -0.6610 h1        1 THK      0.085950
     54 H522       -4.9900   -0.7200    0.0090 h1        1 THK      0.085950
     55 H551       -6.9280    0.9910   -1.6460 h1        1 THK      0.085950
     56 H552       -5.9950    1.4370   -0.1600 h1        1 THK      0.085950
@<TRIPOS>BOND
     1    1    2 1   
     2    1    7 1   
     3    1    8 1   
     4    2    3 1   
     5    2   30 1   
     6    2   31 1   
     7    3    4 1   
     8    3   32 1   
     9    3   33 1   
    10    4    5 1   
    11    4    6 1   
    12    4   19 1   
    13    5   34 1   
    14    6    7 1   
    15    6   35 1   
    16    6   36 1   
    17    7   37 1   
    18    7   38 1   
    19    8    9 1   
    20    8   39 1   
    21    8   40 1   
    22    9   10 1   
    23    9   41 1   
    24    9   42 1   
    25   10   11 1   
    26   10   43 1   
    27   10   44 1   
    28   11   12 1   
    29   11   26 1   
    30   11   29 1   
    31   12   13 ar  
    32   12   18 ar  
    33   13   14 ar  
    34   13   45 1   
    35   14   15 ar  
    36   14   46 1   
    37   15   16 1   
    38   15   17 ar  
    39   17   18 ar  
    40   17   47 1   
    41   18   48 1   
    42   19   20 ar  
    43   19   25 ar  
    44   20   21 ar  
    45   20   49 1   
    46   21   22 ar  
    47   21   50 1   
    48   22   23 1   
    49   22   24 ar  
    50   24   25 ar  
    51   24   51 1   
    52   25   52 1   
    53   26   27 1   
    54   27   28 1   
    55   27   53 1   
    56   27   54 1   
    57   28   29 1   
    58   28   55 1   
    59   28   56 1   
@<TRIPOS>SUBSTRUCTURE
     1 THK         1 TEMP              0 ****  ****    0 ROOT
