@<TRIPOS>MOLECULE
THL
   53    52     1     0     0
SMALL
bcc


@<TRIPOS>ATOM
      1 N          -1.5960    1.3220   -1.0240 n         1 THL     -0.365000
      2 CA         -1.1470   -0.1420    1.4860 c1        1 THL     -0.128000
      3 C          -1.1400    2.4210   -1.6880 c2        1 THL      0.321000
      4 O          -1.9370    3.2440   -2.2150 o         1 THL     -0.461000
      5 C4        -10.0850    2.1370    0.0030 c2        1 THL      0.348000
      6 O4        -10.0330    2.8340   -1.0410 o         1 THL     -0.424000
      7 C4A        -9.0210    1.2500    0.4030 c2        1 THL     -0.568000
      8 N5         -7.8270    1.2000   -0.4030 n4        1 THL      0.105000
      9 C6         -6.6470    0.5170    0.2340 c3        1 THL     -0.102000
     10 C7         -7.0640   -0.6550    1.1590 c3        1 THL     -0.067000
     11 N8         -8.2270   -0.4810    1.9700 n2        1 THL     -0.334000
     12 C8A        -9.1130    0.4170    1.5850 c2        1 THL      0.217000
     13 C9         -5.7470    1.4860    1.0120 c3        1 THL     -0.139000
     14 N10        -5.1260    2.5620    0.2510 n3        1 THL     -0.228000
     15 C11         0.3470    2.5900   -1.8660 c2        1 THL      0.011000
     16 C12         0.8200    3.2200   -2.9510 c2        1 THL     -0.197000
     17 C13        -5.4990    1.6170   -2.0230 c1        1 THL     -0.031000
     18 C14        -4.8680    2.3380   -1.1090 c2        1 THL     -0.327000
     19 C15         1.7940    1.6210    0.0730 c1        1 THL     -0.110000
     20 C16         1.1590    2.0760   -0.8380 c1        1 THL     -0.257000
     21 N3        -11.2350    2.2150    0.8310 n2        1 THL     -0.314000
     22 N1        -10.2670    0.6190    2.3860 na        1 THL     -0.294000
     23 C2        -11.2940    1.4630    1.9230 c2        1 THL      0.212000
     24 CB         -0.1300   -0.2950    2.4880 c3        1 THL     -0.174000
     25 CG          0.9760   -1.2600    2.1070 c3        1 THL     -0.202000
     26 CD          2.3050   -0.9050    2.7840 c2        1 THL      0.322000
     27 OE1         2.7550    0.2780    2.6630 o         1 THL     -0.599500
     28 OE2         2.9260   -1.8080    3.4150 o         1 THL     -0.599500
     29 CT         -2.5280    0.2730    1.7120 c2        1 THL      0.296000
     30 O1         -2.8010    1.5220    1.6060 o         1 THL     -0.617500
     31 O2         -3.4670   -0.5750    1.8620 o         1 THL     -0.617500
     32 HN         -0.9650    0.7700   -0.4660 hn        1 THL      0.251500
     33 HA         -2.5330    1.3400   -0.6740 hn        1 THL      0.251500
     34 HN5        -7.5740    2.1700   -0.6480 hn        1 THL      0.227000
     35 H6         -8.0500    0.7170   -1.2800 hn        1 THL      0.227000
     36 H71        -6.0480    0.0590   -0.6180 hx        1 THL      0.144000
     37 H72        -6.1890   -0.8690    1.8450 h1        1 THL      0.120000
     38 HN8        -7.2150   -1.5650    0.5070 h1        1 THL      0.120000
     39 H91        -6.3480    1.9940    1.8190 h1        1 THL      0.161500
     40 H92        -4.9400    0.8450    1.5170 h1        1 THL      0.161500
     41 H10        -4.2690    2.8180    0.7330 hn        1 THL      0.236000
     42 H12         1.8920    3.3740   -3.1190 ha        1 THL      0.112500
     43 H13         0.1420    3.6180   -3.7170 ha        1 THL      0.112500
     44 H15        -4.0120    2.9510   -1.5230 h4        1 THL      0.234000
     45 H16         2.3130    1.1860    0.9170 ha        1 THL      0.296000
     46 HA21      -12.3000    1.6450    3.6830 hn        1 THL      0.180500
     47 HA22      -13.1660    2.1210    2.3640 hn        1 THL      0.180500
     48 HN1       -10.4340   -0.0130    3.1350 hn        1 THL      0.242000
     49 HB1         1.1390   -1.2300    0.9990 hc        1 THL      0.073000
     50 HB2        -0.5160   -0.5450    3.5130 hc        1 THL      0.118500
     51 HG1         0.3320    0.7470    2.5550 hc        1 THL      0.118500
     52 HG2         0.6820   -2.3020    2.3880 hc        1 THL      0.073000
     53 NA2       -12.4940    1.4690    2.7180 nh        1 THL     -0.321000
@<TRIPOS>BOND
     1    1    3 1   
     2    1   32 1   
     3    1   33 1   
     4    2   24 1   
     5    2   29 1   
     6    3    4 1   
     7    3   15 1   
     8    5    6 1   
     9    5    7 1   
    10    5   21 1   
    11    7    8 1   
    12    7   12 1   
    13    8    9 1   
    14    8   34 1   
    15    8   35 1   
    16    9   10 1   
    17    9   13 1   
    18    9   36 1   
    19   10   11 1   
    20   10   37 1   
    21   10   38 1   
    22   11   12 1   
    23   12   22 1   
    24   13   14 1   
    25   13   39 1   
    26   13   40 1   
    27   14   18 1   
    28   14   41 1   
    29   15   16 1   
    30   15   20 1   
    31   16   42 1   
    32   16   43 1   
    33   17   18 1   
    34   18   44 1   
    35   19   20 1   
    36   19   45 1   
    37   21   23 1   
    38   22   23 1   
    39   22   48 1   
    40   23   53 1   
    41   24   25 1   
    42   24   50 1   
    43   24   51 1   
    44   25   26 1   
    45   25   49 1   
    46   25   52 1   
    47   26   27 1   
    48   26   28 1   
    49   29   30 1   
    50   29   31 1   
    51   46   53 1   
    52   47   53 1   
@<TRIPOS>SUBSTRUCTURE
     1 THL         1 TEMP              0 ****  ****    0 ROOT
