@<TRIPOS>MOLECULE
THL
   54    53     1     0     0
SMALL
bcc


@<TRIPOS>ATOM
      1 N          -1.9560    1.6740   -2.0670 nt        1 THL     -0.366000
      2 CA         -1.5850   -0.5850    2.0670 c2        1 THL     -0.147000
      3 C          -2.3620    2.7670   -2.7570 c2        1 THL      0.326000
      4 O          -3.5390    2.8600   -3.2070 o         1 THL     -0.478000
      5 C4         -9.6260    1.1370    1.1630 c2        1 THL      0.353000
      6 O4        -10.3410    1.2040    0.1320 o         1 THL     -0.423000
      7 C4A        -8.3030    0.5590    1.1460 c2        1 THL     -0.580000
      8 N5         -7.7920    0.0570   -0.1040 ny        1 THL      0.110000
      9 C6         -6.2990   -0.1110   -0.1420 c3        1 THL     -0.092000
     10 C7         -5.7400   -0.6380    1.2050 c3        1 THL     -0.077000
     11 N8         -6.2820   -0.0840    2.4040 n2        1 THL     -0.336000
     12 C8A        -7.4800    0.4680    2.3340 c2        1 THL      0.221000
     13 C9         -5.5770    1.1920   -0.5290 c3        1 THL     -0.121000
     14 N10        -5.9310    1.6930   -1.8500 n7        1 THL     -0.234000
     15 C11        -1.3730    3.8600   -3.0620 c2        1 THL     -0.034000
     16 C12        -1.6970    4.8100   -3.9540 c2        1 THL     -0.149000
     17 C13        -6.0320   -0.4290   -3.1590 c1        1 THL      0.065000
     18 C14        -5.6660    0.8200   -2.9250 c2        1 THL     -0.354000
     19 C15         0.9040    3.8240   -1.7950 c1        1 THL     -0.177000
     20 C16        -0.1400    3.8440   -2.3820 c1        1 THL     -0.144000
     21 N3        -10.1170    1.6360    2.3930 n2        1 THL     -0.310000
     22 N1         -8.0320    1.0520    3.5020 na        1 THL     -0.294000
     23 C2         -9.3550    1.5400    3.4780 c2        1 THL      0.224000
     24 CB         -0.4270   -0.7960    2.6960 c2        1 THL     -0.232000
     25 CG         -0.3120   -1.4400    4.0250 c3        1 THL     -0.166000
     26 CD          0.4670   -0.6250    5.0150 c2        1 THL      0.305000
     27 OE1         1.0320   -1.0560    6.0250 o         1 THL     -0.347000
     28 OE2         0.5850    0.7270    4.8700 oh        1 THL     -0.302000
     29 CT         -1.6610    0.0590    0.7120 c2        1 THL      0.350000
     30 O1         -2.7290   -0.0990    0.0400 o         1 THL     -0.585500
     31 O2         -0.6860    0.7410    0.2820 o         1 THL     -0.585500
     32 HN         -1.0950    1.6690   -1.5540 hn        1 THL      0.264000
     33 HA         -2.5580   -0.8740    2.4970 ha        1 THL      0.120000
     34 HN5        -8.0970    0.7060   -0.8440 hn        1 THL      0.224500
     35 H6         -8.2270   -0.8520   -0.2850 hn        1 THL      0.224500
     36 H71        -6.0890   -0.9000   -0.9310 hx        1 THL      0.127000
     37 H72        -5.8930   -1.7570    1.2200 h1        1 THL      0.124500
     38 HN8        -4.6200   -0.4470    1.2040 h1        1 THL      0.124500
     39 H91        -5.8500    2.0000    0.2070 h1        1 THL      0.143500
     40 H92        -4.4670    0.9800   -0.4270 h1        1 THL      0.143500
     41 H10        -5.4530    2.5690   -2.0040 hn        1 THL      0.205000
     42 H12        -1.0180    5.6320   -4.2110 ha        1 THL      0.126000
     43 H13        -2.6720    4.7990   -4.4620 ha        1 THL      0.126000
     44 H15        -5.0910    1.2890   -3.7730 h4        1 THL      0.214000
     45 H16         1.8150    3.7810   -1.2570 ha        1 THL      0.224000
     46 HA21      -10.8040    2.3350    4.6640 hn        1 THL      0.189500
     47 HA22       -9.2740    2.5310    5.2590 hn        1 THL      0.189500
     48 HN1        -7.5710    0.8900    4.3690 hn        1 THL      0.245000
     49 HB1         0.2010   -2.4360    3.9210 hc        1 THL      0.117000
     50 HB2         0.1450    1.0130    4.0540 ho        1 THL      0.247000
     51 HG1         0.5230   -0.5000    2.2170 ha        1 THL      0.144000
     52 HG2        -1.3260   -1.6310    4.4730 hc        1 THL      0.117000
     53 NA2        -9.8910    1.9340    4.7480 nv        1 THL     -0.323000
     54 H2         -2.6280    1.0050   -1.7440 hn        1 THL      0.264000
@<TRIPOS>BOND
     1    1    3 1   
     2    1   32 1   
     3    1   54 1   
     4    2   24 1   
     5    2   29 1   
     6    2   33 1   
     7    3    4 1   
     8    3   15 1   
     9    5    6 1   
    10    5    7 1   
    11    5   21 1   
    12    7    8 1   
    13    7   12 1   
    14    8    9 1   
    15    8   34 1   
    16    8   35 1   
    17    9   10 1   
    18    9   13 1   
    19    9   36 1   
    20   10   11 1   
    21   10   37 1   
    22   10   38 1   
    23   11   12 1   
    24   12   22 1   
    25   13   14 1   
    26   13   39 1   
    27   13   40 1   
    28   14   18 1   
    29   14   41 1   
    30   15   16 1   
    31   15   20 1   
    32   16   42 1   
    33   16   43 1   
    34   17   18 1   
    35   18   44 1   
    36   19   20 1   
    37   19   45 1   
    38   21   23 1   
    39   22   23 1   
    40   22   48 1   
    41   23   53 1   
    42   24   25 1   
    43   24   51 1   
    44   25   26 1   
    45   25   49 1   
    46   25   52 1   
    47   26   27 1   
    48   26   28 1   
    49   28   50 1   
    50   29   30 1   
    51   29   31 1   
    52   46   53 1   
    53   47   53 1   
@<TRIPOS>SUBSTRUCTURE
     1 THL         1 TEMP              0 ****  ****    0 ROOT
