@<TRIPOS>MOLECULE
THL
   53    55     1     0     0
SMALL
bcc


@<TRIPOS>ATOM
      1 N           3.1960   -0.4290    0.4410 n         1 THL     -0.492900
      2 CA          4.0140    0.7660    0.3880 c3        1 THL     -0.034300
      3 C           2.6320   -1.0090   -0.6660 c         1 THL      0.661700
      4 O           3.1280   -0.9440   -1.8160 o         1 THL     -0.655100
      5 C4         -4.5280    0.2190   -1.1700 c         1 THL      0.718700
      6 O4         -5.4310   -0.5790   -1.5280 o         1 THL     -0.669100
      7 C4A        -3.9150    0.1190    0.1720 cc        1 THL     -0.224200
      8 N5         -4.4540   -0.7640    1.1410 nh        1 THL     -0.645000
      9 C6         -3.4800   -1.3450    2.0560 c3        1 THL      0.133500
     10 C7         -2.2160   -0.4860    2.3210 c3        1 THL      0.181800
     11 N8         -2.2110    0.8480    1.7570 nh        1 THL     -0.709000
     12 C8A        -2.8370    0.9540    0.4960 cd        1 THL      0.336000
     13 C9         -3.0610   -2.8100    1.7340 c3        1 THL      0.147800
     14 N10        -2.5660   -3.1140    0.4120 nh        1 THL     -0.713600
     15 C11         1.3530   -1.7620   -0.4420 ca        1 THL     -0.147600
     16 C12         0.3220   -1.5720   -1.3690 ca        1 THL     -0.073000
     17 C13        -0.9590   -2.0380   -1.1050 ca        1 THL     -0.185000
     18 C14        -1.2400   -2.7130    0.1060 ca        1 THL      0.111600
     19 C15        -0.1640   -3.0120    0.9690 ca        1 THL     -0.185000
     20 C16         1.1140   -2.5290    0.6990 ca        1 THL     -0.073000
     21 N3         -4.0610    1.1960   -2.0520 nc        1 THL     -0.784100
     22 N1         -2.4160    1.9260   -0.4110 na        1 THL     -0.706000
     23 C2         -3.0490    1.9990   -1.6640 cd        1 THL      0.843100
     24 CB          3.1800    2.0580    0.4760 c3        1 THL     -0.088400
     25 CG          2.3260    2.3210   -0.7450 c3        1 THL     -0.168400
     26 CD          0.8430    2.4870   -0.4770 c         1 THL      0.914600
     27 OE1         0.1090    3.0110   -1.3830 o         1 THL     -0.898300
     28 OE2         0.2860    2.0930    0.5980 o         1 THL     -0.898300
     29 CT          5.0470    0.7950    1.5690 c         1 THL      0.918600
     30 O1          4.7110    0.3310    2.6940 o         1 THL     -0.847300
     31 O2          6.1730    1.3080    1.3170 o         1 THL     -0.847300
     32 HN          2.7330   -0.5440    1.3170 hn        1 THL      0.311500
     33 HA          4.5880    0.7570   -0.5820 h1        1 THL      0.065700
     34 HN5        -4.9820   -1.4830    0.6720 hn        1 THL      0.373800
     35 H6         -4.0370   -1.4140    3.0420 h1        1 THL      0.043700
     36 H71        -1.3070   -1.0640    1.9770 h1        1 THL      0.046200
     37 H72        -2.1210   -0.3470    3.4360 h1        1 THL      0.046200
     38 HN8        -1.2940    1.2770    1.8000 hn        1 THL      0.460800
     39 H91        -2.2950   -3.1190    2.4980 h1        1 THL      0.045700
     40 H92        -3.9730   -3.4600    1.8770 h1        1 THL      0.045700
     41 H10        -3.2050   -2.7940   -0.2950 hn        1 THL      0.387800
     42 H12         0.5310   -1.0070   -2.2930 ha        1 THL      0.148500
     43 H13        -1.7640   -1.8390   -1.8300 ha        1 THL      0.128000
     44 H15        -0.3290   -3.6040    1.8800 ha        1 THL      0.128000
     45 H16         1.9310   -2.7390    1.4070 ha        1 THL      0.148500
     46 HA21       -2.8360    2.8800   -3.4770 hn        1 THL      0.429300
     47 HA22       -1.6860    3.3640   -2.3550 hn        1 THL      0.429300
     48 HN1        -1.5230    2.4080   -0.2540 hn        1 THL      0.538800
     49 HB1         2.5320    2.0210    1.3930 hc        1 THL      0.054700
     50 HB2         3.9100    2.8980    0.6160 hc        1 THL      0.054700
     51 HG1         2.6820    3.2480   -1.2650 hc        1 THL      0.041700
     52 HG2         2.4250    1.4780   -1.4820 hc        1 THL      0.041700
     53 NA2        -2.6270    3.0450   -2.5170 nh        1 THL     -0.892800
@<TRIPOS>BOND
     1    1    2 1   
     2    1    3 1   
     3    1   32 1   
     4    2   24 1   
     5    2   29 1   
     6    2   33 1   
     7    3    4 2   
     8    3   15 1   
     9    5    6 2   
    10    5    7 1   
    11    5   21 1   
    12    7    8 1   
    13    7   12 2   
    14    8    9 1   
    15    8   34 1   
    16    9   10 1   
    17    9   13 1   
    18    9   35 1   
    19   10   11 1   
    20   10   36 1   
    21   10   37 1   
    22   11   12 1   
    23   11   38 1   
    24   12   22 1   
    25   13   14 1   
    26   13   39 1   
    27   13   40 1   
    28   14   18 1   
    29   14   41 1   
    30   15   16 ar  
    31   15   20 ar  
    32   16   17 ar  
    33   16   42 1   
    34   17   18 ar  
    35   17   43 1   
    36   18   19 ar  
    37   19   20 ar  
    38   19   44 1   
    39   20   45 1   
    40   21   23 2   
    41   22   23 1   
    42   22   48 1   
    43   23   53 1   
    44   24   25 1   
    45   24   49 1   
    46   24   50 1   
    47   25   26 1   
    48   25   51 1   
    49   25   52 1   
    50   26   27 1   
    51   26   28 1   
    52   29   30 1   
    53   29   31 1   
    54   46   53 1   
    55   47   53 1   
@<TRIPOS>SUBSTRUCTURE
     1 THL         1 TEMP              0 ****  ****    0 ROOT
