@<TRIPOS>MOLECULE
THM
   31    32     1     0     0
SMALL
bcc


@<TRIPOS>ATOM
      1 O5'         0.1240   -1.1290    0.3810 oh        1 THM     -0.593800
      2 C5'         1.5120   -0.8780    0.3220 c3        1 THM      0.115400
      3 C4'         1.9680   -0.0150    1.4970 c3        1 THM      0.098100
      4 O4'         1.6960   -0.7140    2.7230 os        1 THM     -0.434600
      5 C3'         3.4770    0.2830    1.4460 c3        1 THM      0.123100
      6 O3'         3.6260    1.6880    1.3330 oh        1 THM     -0.591800
      7 C2'         4.0470   -0.2400    2.7700 c3        1 THM     -0.136400
      8 C1'         2.9080   -1.0530    3.4120 c3        1 THM      0.317500
      9 N1          3.0990   -2.5030    3.4470 n         1 THM     -0.385000
     10 C2          3.6360   -3.2160    2.3410 c         1 THM      0.810500
     11 O2          4.0930   -2.6340    1.3310 o         1 THM     -0.659500
     12 N3          3.6830   -4.6160    2.4050 ns        1 THM     -0.584500
     13 C4          3.1530   -5.3600    3.4730 c         1 THM      0.715700
     14 O4          3.2380   -6.5980    3.4390 o         1 THM     -0.602500
     15 C5          2.5280   -4.5790    4.5560 cc        1 THM     -0.245400
     16 C5M         1.9400   -5.3350    5.6790 c3        1 THM     -0.032900
     17 C6          2.5090   -3.2200    4.4860 cd        1 THM      0.035600
     18 HO5'       -0.0560   -1.5270    1.2420 ho        1 THM      0.409000
     19 H5'1        1.6680   -0.3240   -0.6410 h1        1 THM      0.062200
     20 H5'2        2.0850   -1.8450    0.3080 h1        1 THM      0.062200
     21 H4'         1.3620    0.9320    1.5520 h1        1 THM      0.101700
     22 H3'         3.9610   -0.2370    0.5740 h1        1 THM      0.078700
     23 HO3'        4.5590    1.8550    1.1590 ho        1 THM      0.408000
     24 H2'1        4.3030    0.6150    3.4460 hc        1 THM      0.081700
     25 H2'2        4.9680   -0.8480    2.5980 hc        1 THM      0.081700
     26 H1'         2.7320   -0.7270    4.4820 h2        1 THM      0.086700
     27 HN3         4.0940   -5.0900    1.6280 hn        1 THM      0.353500
     28 HM51        1.5180   -4.6510    6.4550 hc        1 THM      0.053367
     29 HM52        1.1230   -6.0020    5.3030 hc        1 THM      0.053367
     30 HM53        2.7200   -5.9840    6.1520 hc        1 THM      0.053367
     31 H6          2.0290   -2.6090    5.2750 h4        1 THM      0.167000
@<TRIPOS>BOND
     1    1    2 1   
     2    1   18 1   
     3    2    3 1   
     4    2   19 1   
     5    2   20 1   
     6    3    4 1   
     7    3    5 1   
     8    3   21 1   
     9    4    8 1   
    10    5    6 1   
    11    5    7 1   
    12    5   22 1   
    13    6   23 1   
    14    7    8 1   
    15    7   24 1   
    16    7   25 1   
    17    8    9 1   
    18    8   26 1   
    19    9   10 1   
    20    9   17 1   
    21   10   11 2   
    22   10   12 1   
    23   12   13 1   
    24   12   27 1   
    25   13   14 2   
    26   13   15 1   
    27   15   16 1   
    28   15   17 2   
    29   16   28 1   
    30   16   29 1   
    31   16   30 1   
    32   17   31 1   
@<TRIPOS>SUBSTRUCTURE
     1 THM         1 TEMP              0 ****  ****    0 ROOT
