@<TRIPOS>MOLECULE
THM
   31    32     1     0     0
SMALL
bcc


@<TRIPOS>ATOM
      1 O5'         2.3900   -0.6380   -2.6980 oh        1 THM     -0.593800
      2 C5'         1.2940    0.2520   -2.6960 c3        1 THM      0.115400
      3 C4'        -0.0330   -0.5050   -2.6790 c3        1 THM      0.098100
      4 O4'        -0.1030   -1.2960   -1.4810 os        1 THM     -0.434600
      5 C3'        -1.2440    0.4470   -2.6910 c3        1 THM      0.123100
      6 O3'        -1.9740    0.1840   -3.8760 oh        1 THM     -0.591800
      7 C2'        -2.0560    0.0980   -1.4370 c3        1 THM     -0.136400
      8 C1'        -1.1560   -0.8450   -0.6170 c3        1 THM      0.317500
      9 N1         -0.6110   -0.2880    0.6220 n         1 THM     -0.385000
     10 C2         -0.1080    1.0400    0.6910 c         1 THM      0.810500
     11 O2         -0.2210    1.8450   -0.2610 o         1 THM     -0.659500
     12 N3          0.5020    1.4660    1.8790 n         1 THM     -0.584500
     13 C4          0.7170    0.6220    2.9830 c         1 THM      0.715700
     14 O4          1.2680    1.0890    3.9930 o         1 THM     -0.602500
     15 C5          0.2590   -0.7710    2.8300 cc        1 THM     -0.245400
     16 C5M         0.4980   -1.6860    3.9620 c3        1 THM     -0.032900
     17 C6         -0.3490   -1.1590    1.6770 cd        1 THM      0.035600
     18 HO5'        2.2870   -1.2160   -1.9310 ho        1 THM      0.409000
     19 H5'1        1.3880    0.8340   -3.6510 h1        1 THM      0.062200
     20 H5'2        1.3540    0.9460   -1.8150 h1        1 THM      0.062200
     21 H4'        -0.0800   -1.2430   -3.5270 h1        1 THM      0.101700
     22 H3'        -0.9110    1.5200   -2.6600 h1        1 THM      0.078700
     23 HO3'       -2.6450    0.8740   -3.9470 ho        1 THM      0.408000
     24 H2'1       -2.9880   -0.4540   -1.7210 hc        1 THM      0.081700
     25 H2'2       -2.3420    1.0200   -0.8760 hc        1 THM      0.081700
     26 H1'        -1.7150   -1.7860   -0.3260 h2        1 THM      0.086700
     27 HN3         0.8160    2.4130    1.9120 hn        1 THM      0.353500
     28 HM51        0.0520   -1.2610    4.8970 hc        1 THM      0.053367
     29 HM52        0.0530   -2.6930    3.7730 hc        1 THM      0.053367
     30 HM53        1.5990   -1.8040    4.1310 hc        1 THM      0.053367
     31 H6         -0.6860   -2.2040    1.5270 h4        1 THM      0.167000
@<TRIPOS>BOND
     1    1    2 1   
     2    1   18 1   
     3    2    3 1   
     4    2   19 1   
     5    2   20 1   
     6    3    4 1   
     7    3    5 1   
     8    3   21 1   
     9    4    8 1   
    10    5    6 1   
    11    5    7 1   
    12    5   22 1   
    13    6   23 1   
    14    7    8 1   
    15    7   24 1   
    16    7   25 1   
    17    8    9 1   
    18    8   26 1   
    19    9   10 1   
    20    9   17 1   
    21   10   11 2   
    22   10   12 1   
    23   12   13 1   
    24   12   27 1   
    25   13   14 2   
    26   13   15 1   
    27   15   16 1   
    28   15   17 2   
    29   16   28 1   
    30   16   29 1   
    31   16   30 1   
    32   17   31 1   
@<TRIPOS>SUBSTRUCTURE
     1 THM         1 TEMP              0 ****  ****    0 ROOT
