@<TRIPOS>MOLECULE
THM
   31    32     1     0     0
SMALL
bcc


@<TRIPOS>ATOM
      1 O5'         0.1340   -1.0520    0.4060 oh        1 THM     -0.593800
      2 C5'         1.5260   -0.8300    0.3420 c3        1 THM      0.115400
      3 C4'         2.0070    0.0120    1.5220 c3        1 THM      0.098100
      4 O4'         1.7270   -0.6930    2.7430 os        1 THM     -0.434600
      5 C3'         3.5230    0.2790    1.4650 c3        1 THM      0.123100
      6 O3'         3.7000    1.6810    1.3650 oh        1 THM     -0.591800
      7 C2'         4.0890   -0.2690    2.7810 c3        1 THM     -0.136400
      8 C1'         2.9350   -1.0630    3.4220 c3        1 THM      0.317500
      9 N1          3.0960   -2.5180    3.4430 n         1 THM     -0.385000
     10 C2          3.6110   -3.2320    2.3270 c         1 THM      0.810500
     11 O2          4.0750   -2.6500    1.3200 o         1 THM     -0.659500
     12 N3          3.6300   -4.6330    2.3780 n         1 THM     -0.584500
     13 C4          3.0910   -5.3760    3.4420 c         1 THM      0.715700
     14 O4          3.1520   -6.6150    3.3980 o         1 THM     -0.602500
     15 C5          2.4870   -4.5910    4.5350 cc        1 THM     -0.245400
     16 C5M         1.8860   -5.3450    5.6530 c3        1 THM     -0.032900
     17 C6          2.4960   -3.2320    4.4770 cd        1 THM      0.035600
     18 HO5'       -0.0500   -1.4540    1.2650 ho        1 THM      0.409000
     19 H5'1        2.0790   -1.8080    0.3150 h1        1 THM      0.062200
     20 H5'2        1.6900   -0.2700   -0.6170 h1        1 THM      0.062200
     21 H4'         1.4230    0.9710    1.5900 h1        1 THM      0.101700
     22 H3'         3.9900   -0.2440    0.5860 h1        1 THM      0.078700
     23 HO3'        4.6370    1.8300    1.1870 ho        1 THM      0.408000
     24 H2'1        4.3670    0.5730    3.4630 hc        1 THM      0.081700
     25 H2'2        4.9950   -0.8950    2.5980 hc        1 THM      0.081700
     26 H1'         2.7730   -0.7440    4.4960 h2        1 THM      0.086700
     27 HN3         4.0270   -5.1080    1.5950 hn        1 THM      0.353500
     28 HM51        1.5210   -4.6610    6.4560 hc        1 THM      0.053367
     29 HM52        1.0260   -5.9580    5.2810 hc        1 THM      0.053367
     30 HM53        2.6420   -6.0470    6.0880 hc        1 THM      0.053367
     31 H6          2.0330   -2.6190    5.2750 h4        1 THM      0.167000
@<TRIPOS>BOND
     1    1    2 1   
     2    1   18 1   
     3    2    3 1   
     4    2   19 1   
     5    2   20 1   
     6    3    4 1   
     7    3    5 1   
     8    3   21 1   
     9    4    8 1   
    10    5    6 1   
    11    5    7 1   
    12    5   22 1   
    13    6   23 1   
    14    7    8 1   
    15    7   24 1   
    16    7   25 1   
    17    8    9 1   
    18    8   26 1   
    19    9   10 1   
    20    9   17 1   
    21   10   11 2   
    22   10   12 1   
    23   12   13 1   
    24   12   27 1   
    25   13   14 2   
    26   13   15 1   
    27   15   16 1   
    28   15   17 2   
    29   16   28 1   
    30   16   29 1   
    31   16   30 1   
    32   17   31 1   
@<TRIPOS>SUBSTRUCTURE
     1 THM         1 TEMP              0 ****  ****    0 ROOT
