@<TRIPOS>MOLECULE
THN
   36    37     1     0     0
SMALL
bcc


@<TRIPOS>ATOM
      1 S1          0.8040    1.4150   -0.5920 ss        1 THN     -0.299300
      2 C2          1.9680    1.6610    0.7300 c3        1 THN      0.023900
      3 C3          2.0510    0.5010    1.6490 c2        1 THN     -0.100400
      4 C3'         3.2170   -0.0500    1.9980 c2        1 THN     -0.215000
      5 C4          0.7400    0.0130    2.2030 c3        1 THN     -0.006300
      6 C4'         0.1710    1.1330    3.2060 c         1 THN      0.945600
      7 O4A         0.6340    1.1120    4.3650 o         1 THN     -0.812800
      8 O4B        -0.6990    1.9440    2.7680 o         1 THN     -0.812800
      9 N5         -0.2850   -0.2820    1.2460 n2        1 THN     -0.539900
     10 C6         -0.3920    0.4240    0.1710 c2        1 THN      0.429200
     11 C7         -1.7500    0.6100   -0.4670 c3        1 THN     -0.035800
     12 C8         -2.4050   -0.7130   -1.0380 c         1 THN      0.939600
     13 O9A        -3.4380   -1.1290   -0.4410 o         1 THN     -0.791300
     14 O9B        -1.8820   -1.1790   -2.0670 o         1 THN     -0.791300
     15 N10        -2.6180    1.2220    0.6230 n4        1 THN     -0.659800
     16 C11        -3.7390    2.0050    0.0590 c         1 THN      0.568100
     17 O12        -3.5090    3.1230   -0.3980 o         1 THN     -0.486100
     18 C13        -5.0960    1.3370    0.0670 c3        1 THN     -0.090100
     19 C14        -5.6050    1.1500    1.4330 cc        1 THN     -0.178400
     20 C15        -6.1400    2.1480    2.2350 cd        1 THN     -0.143000
     21 C16        -6.5820    1.6330    3.4870 cd        1 THN     -0.164000
     22 C17        -6.3650    0.2700    3.5740 cc        1 THN     -0.197100
     23 S19        -5.6600   -0.3350    2.2030 ss        1 THN      0.152200
     24 H21         2.9490    1.8830    0.2450 h1        1 THN      0.079700
     25 H22         1.6430    2.5590    1.3200 h1        1 THN      0.079700
     26 H3'1        4.1790    0.3180    1.6210 ha        1 THN      0.105500
     27 H3'2        3.2760   -0.8910    2.6990 ha        1 THN      0.105500
     28 H4          0.9010   -0.9160    2.8190 h1        1 THN      0.091700
     29 H7         -1.6710    1.3530   -1.3110 hx        1 THN      0.100700
     30 H10        -3.0000    0.4200    1.1540 hn        1 THN      0.494300
     31 H131       -4.9920    0.3390   -0.4650 hc        1 THN      0.120700
     32 H132       -5.7950    1.9880   -0.5250 hc        1 THN      0.120700
     33 H15        -6.2140    3.2010    1.9560 ha        1 THN      0.152000
     34 H16        -7.0240    2.2520    4.2690 ha        1 THN      0.149000
     35 H17        -6.6090   -0.3440    4.4400 h4        1 THN      0.170000
     36 H102       -2.0250    1.7990    1.2670 hn        1 THN      0.494300
@<TRIPOS>BOND
     1    1    2 1   
     2    1   10 1   
     3    2    3 1   
     4    2   24 1   
     5    2   25 1   
     6    3    4 2   
     7    3    5 1   
     8    4   26 1   
     9    4   27 1   
    10    5    6 1   
    11    5    9 1   
    12    5   28 1   
    13    6    7 1   
    14    6    8 1   
    15    9   10 2   
    16   10   11 1   
    17   11   12 1   
    18   11   15 1   
    19   11   29 1   
    20   12   13 1   
    21   12   14 1   
    22   15   16 1   
    23   15   30 1   
    24   15   36 1   
    25   16   17 2   
    26   16   18 1   
    27   18   19 1   
    28   18   31 1   
    29   18   32 1   
    30   19   20 2   
    31   19   23 1   
    32   20   21 1   
    33   20   33 1   
    34   21   22 2   
    35   21   34 1   
    36   22   23 1   
    37   22   35 1   
@<TRIPOS>SUBSTRUCTURE
     1 THN         1 TEMP              0 ****  ****    0 ROOT
