@<TRIPOS>MOLECULE
THN
   35    36     1     0     0
SMALL
bcc


@<TRIPOS>ATOM
      1 S1          1.5080    0.2750   -2.5960 ss        1 THN     -0.348300
      2 C2          0.5140    0.0840   -4.0540 c3        1 THN      0.008900
      3 C3         -0.6610    0.9830   -4.0150 c2        1 THN     -0.066400
      4 C3'        -0.9080    1.8940   -4.9610 c2        1 THN     -0.270000
      5 C4         -1.5940    0.7530   -2.8500 c3        1 THN      0.011700
      6 C4'        -2.4980   -0.4990   -3.2120 c         1 THN      0.940600
      7 O4A        -3.7320   -0.2730   -3.3290 o         1 THN     -0.831300
      8 O4B        -1.9430   -1.6130   -3.4040 o         1 THN     -0.831300
      9 N5         -0.9840    0.6580   -1.5520 n2        1 THN     -0.553900
     10 C6          0.2760    0.4970   -1.3730 c2        1 THN      0.488200
     11 C7          0.9280    0.4640    0.0050 c3        1 THN     -0.072600
     12 C8          0.9730    1.9100    0.6360 c         1 THN      0.920600
     13 O9A         1.8450    2.6990    0.1940 o         1 THN     -0.833300
     14 O9B         0.1820    2.1800    1.5860 o         1 THN     -0.833300
     15 N10         0.2430   -0.4790    0.8690 n         1 THN     -0.483900
     16 C11         0.8900   -1.3870    1.6590 c         1 THN      0.659100
     17 O12         2.0760   -1.7560    1.4960 o         1 THN     -0.657100
     18 C13         0.0490   -2.0670    2.7460 c3        1 THN     -0.092100
     19 C14        -0.1250   -1.2310    3.9420 cc        1 THN     -0.057400
     20 C15        -0.1910    0.1390    4.0370 cd        1 THN     -0.138000
     21 C16        -0.3940    0.5690    5.3930 cd        1 THN     -0.141000
     22 C17        -0.4710   -0.4850    6.2680 cc        1 THN     -0.178100
     23 S19        -0.2990   -1.9550    5.4760 ss        1 THN     -0.135800
     24 H21         0.1340   -0.9740   -4.1080 h1        1 THN      0.080700
     25 H22         1.1790    0.2860   -4.9270 h1        1 THN      0.080700
     26 H3'1       -0.2520    2.0340   -5.8270 ha        1 THN      0.091000
     27 H3'2       -1.7890    2.5450   -4.9260 ha        1 THN      0.091000
     28 H4         -2.3040    1.6310   -2.7660 h1        1 THN      0.076700
     29 H7          2.0000    0.1260   -0.1230 h1        1 THN      0.088700
     30 H10        -0.6480   -0.1480    1.1770 hn        1 THN      0.323500
     31 H131       -0.9590   -2.3420    2.3270 hc        1 THN      0.064200
     32 H132        0.5750   -3.0230    3.0160 hc        1 THN      0.064200
     33 H15        -0.0920    0.8590    3.2010 ha        1 THN      0.242000
     34 H16        -0.4710    1.6250    5.6590 ha        1 THN      0.148000
     35 H17        -0.6210   -0.4180    7.3420 h4        1 THN      0.144000
@<TRIPOS>BOND
     1    1    2 1   
     2    1   10 1   
     3    2    3 1   
     4    2   24 1   
     5    2   25 1   
     6    3    4 2   
     7    3    5 1   
     8    4   26 1   
     9    4   27 1   
    10    5    6 1   
    11    5    9 1   
    12    5   28 1   
    13    6    7 1   
    14    6    8 1   
    15    9   10 2   
    16   10   11 1   
    17   11   12 1   
    18   11   15 1   
    19   11   29 1   
    20   12   13 1   
    21   12   14 1   
    22   15   16 1   
    23   15   30 1   
    24   16   17 2   
    25   16   18 1   
    26   18   19 1   
    27   18   31 1   
    28   18   32 1   
    29   19   20 2   
    30   19   23 1   
    31   20   21 1   
    32   20   33 1   
    33   21   22 2   
    34   21   34 1   
    35   22   23 1   
    36   22   35 1   
@<TRIPOS>SUBSTRUCTURE
     1 THN         1 TEMP              0 ****  ****    0 ROOT
