@<TRIPOS>MOLECULE
THN
   35    32     1     0     0
SMALL
bcc


@<TRIPOS>ATOM
      1 S1          1.6380    0.4170   -0.4380 ss        1 THN      1.119000
      2 C2          3.4180    0.8610   -0.8690 c3        1 THN     -0.574000
      3 C3          3.9920    1.9860    0.1890 c2        1 THN     -0.095000
      4 C3'         5.0110    2.7660   -0.1570 c1        1 THN     -0.224000
      5 C4          3.8290    1.8740    0.9190 c3        1 THN     -0.024000
      6 C4'         4.5140    3.2100    1.9780 c2        1 THN      0.367000
      7 O4A         3.9470    4.3070    2.0240 o         1 THN     -0.569500
      8 O4B         5.4670    2.9470    2.8040 o         1 THN     -0.569500
      9 N5          1.9400    1.7340    1.0350 n2        1 THN     -0.242000
     10 C6          1.2750    0.8780   -0.3070 c2        1 THN     -0.880000
     11 C7         -0.2430    0.7260   -0.4480 c3        1 THN      0.046000
     12 C8         -0.6790    1.2500   -1.7980 c2        1 THN      0.340000
     13 O9A        -1.3070    2.3150   -1.8720 o         1 THN     -0.562500
     14 O9B        -0.3060    0.6530   -2.8670 o         1 THN     -0.562500
     15 N10        -0.5900   -0.6290   -0.3350 n         1 THN     -0.303000
     16 C11        -1.9310   -0.9950   -0.0670 c2        1 THN      0.293000
     17 O12        -2.8060   -0.1310   -0.0310 o         1 THN     -0.412000
     18 C13        -2.2610   -2.4180    0.3180 c3        1 THN     -0.128000
     19 C14        -3.7540   -2.6120    0.2770 c2        1 THN     -0.328000
     20 C15        -4.4780   -3.5920   -0.5420 c1        1 THN     -0.139000
     21 C16        -6.0160   -3.5140   -0.1650 c1        1 THN     -0.143000
     22 C17        -6.1820   -2.4920    0.8690 c1        1 THN     -0.445000
     23 S19        -4.7830   -1.8930    1.1810 ss        1 THN      0.418000
     24 H21         4.0450    0.1390   -0.9070 h1        1 THN      0.108000
     25 H22         3.4340    1.1760   -1.8100 h1        1 THN      0.108000
     26 H3'1        5.4160    2.6720   -1.0320 DU        1 THN      0.154250
     27 H3'2        5.3500    3.4290    0.4650 ha        1 THN      0.159000
     28 H4          4.2670    1.0940    1.2770 h1        1 THN      0.088000
     29 H7         -0.6850    1.2310    0.2510 h1        1 THN      0.121000
     30 H10         0.0370   -1.2550   -0.3910 hn        1 THN      0.219000
     31 H131       -1.9240   -2.6010    1.2550 hc        1 THN      0.098500
     32 H132       -1.8310   -3.0380   -0.3150 hc        1 THN      0.098500
     33 H15        -4.0800   -4.1930   -1.2090 DU        1 THN      0.154250
     34 H16        -6.7310   -4.0570   -0.5560 DU        1 THN      0.154250
     35 H17        -6.9930   -2.2410    1.2740 DU        1 THN      0.154250
@<TRIPOS>BOND
     1    1    2 1   
     2    1   10 1   
     3    2    3 1   
     4    2   24 1   
     5    2   25 1   
     6    3    4 1   
     7    3    5 1   
     8    4   27 1   
     9    5    6 1   
    10    5    9 1   
    11    5   28 1   
    12    6    7 1   
    13    6    8 1   
    14    9   10 1   
    15   10   11 1   
    16   11   12 1   
    17   11   15 1   
    18   11   29 1   
    19   12   13 1   
    20   12   14 1   
    21   15   16 1   
    22   15   30 1   
    23   16   17 1   
    24   16   18 1   
    25   18   19 1   
    26   18   31 1   
    27   18   32 1   
    28   19   20 1   
    29   19   23 1   
    30   20   21 1   
    31   21   22 1   
    32   22   23 1   
@<TRIPOS>SUBSTRUCTURE
     1 THN         1 TEMP              0 ****  ****    0 ROOT
