@<TRIPOS>MOLECULE
THN
   36    37     1     0     0
SMALL
bcc


@<TRIPOS>ATOM
      1 S1          0.7980    1.5380   -0.5620 ss        1 THN     -0.299300
      2 C2          1.9750    1.6500    0.7660 c3        1 THN      0.023900
      3 C3          2.0480    0.4130    1.5790 c2        1 THN     -0.100400
      4 C3'         3.2080   -0.1830    1.8680 c2        1 THN     -0.215000
      5 C4          0.7340   -0.1030    2.0990 c3        1 THN     -0.006300
      6 C4'         0.1890    0.9330    3.2020 c         1 THN      0.945600
      7 O4A         0.6610    0.8030    4.3510 o         1 THN     -0.812800
      8 O4B        -0.6720    1.7910    2.8450 o         1 THN     -0.812800
      9 N5         -0.3030   -0.2980    1.1290 n2        1 THN     -0.539900
     10 C6         -0.4070    0.5010    0.1220 c2        1 THN      0.429200
     11 C7         -1.7660    0.7620   -0.4860 c3        1 THN     -0.035800
     12 C8         -2.4460   -0.4960   -1.1640 c         1 THN      0.939600
     13 O9A        -3.4810   -0.9480   -0.5980 o         1 THN     -0.791300
     14 O9B        -1.9380   -0.8770   -2.2360 o         1 THN     -0.791300
     15 N10        -2.6170    1.2880    0.6610 ny        1 THN     -0.659800
     16 C11        -3.7300    2.1350    0.1780 c         1 THN      0.568100
     17 O12        -3.4860    3.2850   -0.1800 o         1 THN     -0.486100
     18 C13        -5.0970    1.4880    0.1380 c3        1 THN     -0.090100
     19 C14        -5.6000    1.1900    1.4860 cc        1 THN     -0.178400
     20 C15        -6.1150    2.1220    2.3770 cd        1 THN     -0.143000
     21 C16        -6.5570    1.5050    3.5820 cd        1 THN     -0.164000
     22 C17        -6.3600    0.1360    3.5470 cc        1 THN     -0.197100
     23 S19        -5.6740   -0.3570    2.1230 ss        1 THN      0.152200
     24 H21         2.9560    1.9000    0.2940 h1        1 THN      0.079700
     25 H22         1.6690    2.4970    1.4350 h1        1 THN      0.079700
     26 H3'1        3.2600   -1.0850    2.4920 ha        1 THN      0.105500
     27 H3'2        4.1720    0.2020    1.5160 ha        1 THN      0.105500
     28 H4          0.8860   -1.0850    2.6300 h1        1 THN      0.091700
     29 H7         -1.6830    1.5750   -1.2620 hx        1 THN      0.100700
     30 H10        -2.0110    1.7970    1.3480 hn        1 THN      0.494300
     31 H131       -5.7900    2.1990   -0.3900 hc        1 THN      0.120700
     32 H132       -5.0120    0.5390   -0.4810 hc        1 THN      0.120700
     33 H15        -6.1740    3.1960    2.1920 ha        1 THN      0.152000
     34 H16        -6.9840    2.0590    4.4180 ha        1 THN      0.149000
     35 H17        -6.6080   -0.5480    4.3570 h4        1 THN      0.170000
     36 H102       -3.0080    0.4490    1.1230 hn        1 THN      0.494300
@<TRIPOS>BOND
     1    1    2 1   
     2    1   10 1   
     3    2    3 1   
     4    2   24 1   
     5    2   25 1   
     6    3    4 2   
     7    3    5 1   
     8    4   26 1   
     9    4   27 1   
    10    5    6 1   
    11    5    9 1   
    12    5   28 1   
    13    6    7 1   
    14    6    8 1   
    15    9   10 2   
    16   10   11 1   
    17   11   12 1   
    18   11   15 1   
    19   11   29 1   
    20   12   13 1   
    21   12   14 1   
    22   15   16 1   
    23   15   30 1   
    24   15   36 1   
    25   16   17 2   
    26   16   18 1   
    27   18   19 1   
    28   18   31 1   
    29   18   32 1   
    30   19   20 2   
    31   19   23 1   
    32   20   21 1   
    33   20   33 1   
    34   21   22 2   
    35   21   34 1   
    36   22   23 1   
    37   22   35 1   
@<TRIPOS>SUBSTRUCTURE
     1 THN         1 TEMP              0 ****  ****    0 ROOT
