@<TRIPOS>MOLECULE
THN
   36    37     1     0     0
SMALL
bcc


@<TRIPOS>ATOM
      1 S1          0.7830    1.4590   -0.6200 ss        1 THN     -0.299300
      2 C2          1.9560    1.7200    0.6910 c3        1 THN      0.023900
      3 C3          2.0650    0.5610    1.6080 c2        1 THN     -0.100400
      4 C3'         3.2410    0.0260    1.9460 c2        1 THN     -0.215000
      5 C4          0.7660    0.0540    2.1740 c3        1 THN     -0.006300
      6 C4'         0.1900    1.1650    3.1840 c         1 THN      0.945600
      7 O4A         0.6650    1.1490    4.3390 o         1 THN     -0.812800
      8 O4B        -0.6960    1.9630    2.7550 o         1 THN     -0.812800
      9 N5         -0.2640   -0.2550    1.2260 n2        1 THN     -0.539900
     10 C6         -0.3920    0.4510    0.1530 c2        1 THN      0.429200
     11 C7         -1.7580    0.6170   -0.4710 c3        1 THN     -0.035800
     12 C8         -2.4000   -0.7140   -1.0370 c         1 THN      0.939600
     13 O9A        -3.4200   -1.1460   -0.4310 o         1 THN     -0.791300
     14 O9B        -1.8800   -1.1720   -2.0720 o         1 THN     -0.791300
     15 N10        -2.6240    1.2160    0.6270 n4        1 THN     -0.659800
     16 C11        -3.7610    1.9840    0.0750 c         1 THN      0.568100
     17 O12        -3.5510    3.1060   -0.3820 o         1 THN     -0.486100
     18 C13        -5.1080    1.2960    0.0950 c3        1 THN     -0.090100
     19 C14        -5.6030    1.1010    1.4640 cc        1 THN     -0.178400
     20 C15        -6.1450    2.0910    2.2720 cd        1 THN     -0.143000
     21 C16        -6.5690    1.5690    3.5270 cd        1 THN     -0.164000
     22 C17        -6.3310    0.2090    3.6110 cc        1 THN     -0.197100
     23 S19        -5.6300   -0.3860    2.2340 ss        1 THN      0.152200
     24 H21         1.6240    2.6130    1.2850 h1        1 THN      0.079700
     25 H22         2.9290    1.9570    0.1970 h1        1 THN      0.079700
     26 H3'1        3.3190   -0.8150    2.6450 ha        1 THN      0.105500
     27 H3'2        4.1940    0.4080    1.5590 ha        1 THN      0.105500
     28 H4          0.9460   -0.8740    2.7870 h1        1 THN      0.091700
     29 H7         -1.6980    1.3620   -1.3150 hx        1 THN      0.100700
     30 H10        -2.0340    1.8000    1.2660 hn        1 THN      0.494300
     31 H131       -4.9960    0.3000   -0.4400 hc        1 THN      0.120700
     32 H132       -5.8220    1.9380   -0.4910 hc        1 THN      0.120700
     33 H15        -6.2360    3.1430    1.9950 ha        1 THN      0.152000
     34 H16        -7.0130    2.1810    4.3140 ha        1 THN      0.149000
     35 H17        -6.5590   -0.4100    4.4780 h4        1 THN      0.170000
     36 H102       -2.9900    0.4090    1.1610 hn        1 THN      0.494300
@<TRIPOS>BOND
     1    1    2 1   
     2    1   10 1   
     3    2    3 1   
     4    2   24 1   
     5    2   25 1   
     6    3    4 2   
     7    3    5 1   
     8    4   26 1   
     9    4   27 1   
    10    5    6 1   
    11    5    9 1   
    12    5   28 1   
    13    6    7 1   
    14    6    8 1   
    15    9   10 2   
    16   10   11 1   
    17   11   12 1   
    18   11   15 1   
    19   11   29 1   
    20   12   13 1   
    21   12   14 1   
    22   15   16 1   
    23   15   30 1   
    24   15   36 1   
    25   16   17 2   
    26   16   18 1   
    27   18   19 1   
    28   18   31 1   
    29   18   32 1   
    30   19   20 2   
    31   19   23 1   
    32   20   21 1   
    33   20   33 1   
    34   21   22 2   
    35   21   34 1   
    36   22   23 1   
    37   22   35 1   
@<TRIPOS>SUBSTRUCTURE
     1 THN         1 TEMP              0 ****  ****    0 ROOT
