@<TRIPOS>MOLECULE
THO
   18    17     1     0     0
SMALL
bcc


@<TRIPOS>ATOM
      1 N          -1.1040   -0.9640   -0.4490 n3        1 THO     -0.910800
      2 CA         -0.3040    0.2310   -0.2780 c3        1 THO      0.092500
      3 CB          0.3860    0.3770    1.1030 c3        1 THO      0.097100
      4 CG2        -0.6230    0.6550    2.2000 c3        1 THO     -0.132100
      5 OG1         1.1840   -0.7580    1.3990 oh        1 THO     -0.593800
      6 C           0.7780    0.3470   -1.3730 c3        1 THO      0.144400
      7 O           0.2180    0.5890   -2.6440 oh        1 THO     -0.600800
      8 H          -1.8400   -0.9930    0.2280 hn        1 THO      0.350800
      9 H2         -0.5370   -1.7850   -0.3580 hn        1 THO      0.350800
     10 HA         -1.0020    1.1130   -0.3990 h1        1 THO      0.075700
     11 HB          1.1330    1.2210    1.0480 h1        1 THO      0.082700
     12 HG21       -0.0960    0.7750    3.1770 hc        1 THO      0.045700
     13 HG22       -1.1850    1.5920    1.9760 hc        1 THO      0.045700
     14 HG23       -1.3520   -0.1850    2.2990 hc        1 THO      0.045700
     15 HG1         0.5970   -1.4610    1.7010 ho        1 THO      0.393000
     16 HC1         1.4210    1.2450   -1.1720 h1        1 THO      0.050200
     17 HC2         1.4190   -0.5750   -1.3900 h1        1 THO      0.050200
     18 HO         -0.3950   -0.1310   -2.8390 ho        1 THO      0.413000
@<TRIPOS>BOND
     1    1    2 1   
     2    1    8 1   
     3    1    9 1   
     4    2    3 1   
     5    2    6 1   
     6    2   10 1   
     7    3    4 1   
     8    3    5 1   
     9    3   11 1   
    10    4   12 1   
    11    4   13 1   
    12    4   14 1   
    13    5   15 1   
    14    6    7 1   
    15    6   16 1   
    16    6   17 1   
    17    7   18 1   
@<TRIPOS>SUBSTRUCTURE
     1 THO         1 TEMP              0 ****  ****    0 ROOT
