@<TRIPOS>MOLECULE
THP
   37    38     1     0     0
SMALL
bcc


@<TRIPOS>ATOM
      1 P2         -0.7560    3.1460    0.2880 p5        1 THP      1.351900
      2 O4P         0.3880    4.0460   -0.1580 o         1 THP     -0.942500
      3 O5P        -1.9560    3.8740    0.8320 o         1 THP     -0.942500
      4 O6P        -0.3100    1.9570    1.0960 o         1 THP     -0.942500
      5 P1          0.0690    0.1100   -6.6590 p5        1 THP      1.321900
      6 O1P         0.5940   -0.8500   -5.6240 o         1 THP     -0.941500
      7 O2P        -1.1720   -0.3320   -7.3930 o         1 THP     -0.941500
      8 O3P         1.1320    0.7370   -7.5280 o         1 THP     -0.941500
      9 O5'        -1.3060    2.5010   -1.1950 os        1 THP     -0.583200
     10 C5'        -0.3470    2.0820   -2.0950 c3        1 THP      0.201400
     11 C4'        -0.7120    2.4670   -3.5400 c3        1 THP      0.087100
     12 O4'        -0.6410    3.9100   -3.7070 os        1 THP     -0.418600
     13 C3'         0.2190    1.8290   -4.6190 c3        1 THP      0.214100
     14 O3'        -0.4960    1.4670   -5.7320 os        1 THP     -0.567200
     15 C2'         1.2170    2.9870   -4.9130 c3        1 THP     -0.156400
     16 C1'         0.4510    4.2660   -4.5370 c3        1 THP      0.309500
     17 N1          1.2780    5.3150   -3.8690 n         1 THP     -0.348000
     18 C2          1.8560    6.3010   -4.6910 c         1 THP      0.782500
     19 O2          1.6570    6.4080   -5.9300 o         1 THP     -0.715500
     20 N3          2.7110    7.2570   -4.1030 n         1 THP     -0.606500
     21 C4          2.9600    7.3120   -2.7180 c         1 THP      0.712700
     22 O4          3.7420    8.2180   -2.3270 o         1 THP     -0.761500
     23 C5          2.2760    6.3210   -1.9140 cc        1 THP     -0.348400
     24 C5M         2.4500    6.3510   -0.4490 c3        1 THP     -0.031900
     25 C6          1.4610    5.3700   -2.5040 cd        1 THP      0.101600
     26 H5'1        0.6610    2.5080   -1.8310 h1        1 THP      0.004200
     27 H5'2       -0.2790    0.9530   -2.0890 h1        1 THP      0.004200
     28 H4'        -1.7870    2.2290   -3.7470 h1        1 THP      0.071700
     29 H3'         0.7710    0.9370   -4.2070 h1        1 THP      0.069700
     30 H2'1        1.4970    3.0050   -5.9930 hc        1 THP      0.059200
     31 H2'2        2.1350    2.8540   -4.2940 hc        1 THP      0.059200
     32 H1'         0.0180    4.7720   -5.4520 h2        1 THP      0.066700
     33 H3          3.1290    7.9200   -4.7100 hn        1 THP      0.300500
     34 H51         1.7830    5.5710    0.0280 hc        1 THP      0.045033
     35 H52         3.5170    6.1450   -0.1790 hc        1 THP      0.045033
     36 H53         2.1900    7.3620   -0.0470 hc        1 THP      0.045033
     37 H6          0.8840    4.6130   -1.8420 h4        1 THP      0.334000
@<TRIPOS>BOND
     1    1    2 1   
     2    1    3 1   
     3    1    4 1   
     4    1    9 1   
     5    5    6 1   
     6    5    7 1   
     7    5    8 1   
     8    5   14 1   
     9    9   10 1   
    10   10   11 1   
    11   10   26 1   
    12   10   27 1   
    13   11   12 1   
    14   11   13 1   
    15   11   28 1   
    16   12   16 1   
    17   13   14 1   
    18   13   15 1   
    19   13   29 1   
    20   15   16 1   
    21   15   30 1   
    22   15   31 1   
    23   16   17 1   
    24   16   32 1   
    25   17   18 1   
    26   17   25 1   
    27   18   19 2   
    28   18   20 1   
    29   20   21 1   
    30   20   33 1   
    31   21   22 2   
    32   21   23 1   
    33   23   24 1   
    34   23   25 2   
    35   24   34 1   
    36   24   35 1   
    37   24   36 1   
    38   25   37 1   
@<TRIPOS>SUBSTRUCTURE
     1 THP         1 TEMP              0 ****  ****    0 ROOT
