@<TRIPOS>MOLECULE
THP
   37    38     1     0     0
SMALL
bcc


@<TRIPOS>ATOM
      1 P2          3.1780   -1.9560   -0.5690 p5        1 THP      1.351900
      2 O4P         2.9790   -1.0620    0.6470 o         1 THP     -0.942500
      3 O5P         3.6440   -3.3530   -0.2550 o         1 THP     -0.942500
      4 O6P         3.9000   -1.2820   -1.7040 o         1 THP     -0.942500
      5 P1         -3.9020    0.2880   -2.2990 p5        1 THP      1.321900
      6 O1P        -2.9210    0.9560   -3.2260 o         1 THP     -0.941500
      7 O2P        -4.8300   -0.7150   -2.9380 o         1 THP     -0.941500
      8 O3P        -4.5580    1.2160   -1.3070 o         1 THP     -0.941500
      9 O5'         1.5760   -2.1740   -1.1220 os        1 THP     -0.583200
     10 C5'         0.7620   -1.0590   -1.1510 c3        1 THP      0.201400
     11 C4'        -0.6660   -1.3810   -0.6760 c3        1 THP      0.087100
     12 O4'        -0.6640   -1.6880    0.7450 os        1 THP     -0.418600
     13 C3'        -1.6840   -0.2180   -0.8990 c3        1 THP      0.214100
     14 O3'        -2.9100   -0.7040   -1.2740 os        1 THP     -0.567200
     15 C2'        -1.7230    0.4520    0.5050 c3        1 THP     -0.156400
     16 C1'        -1.3070   -0.6610    1.4800 c3        1 THP      0.309500
     17 N1         -0.4300   -0.2120    2.6030 n         1 THP     -0.348000
     18 C2         -1.0610    0.1500    3.8080 c         1 THP      0.782500
     19 O2         -2.2960    0.0440    4.0320 o         1 THP     -0.715500
     20 N3         -0.2700    0.6580    4.8610 n         1 THP     -0.606500
     21 C4          1.1330    0.7560    4.7850 c         1 THP      0.712700
     22 O4          1.7150    1.2250    5.7980 o         1 THP     -0.761500
     23 C5          1.7320    0.2940    3.5500 cc        1 THP     -0.348400
     24 C5M         3.2020    0.3190    3.4210 c3        1 THP     -0.031900
     25 C6          0.9440   -0.1770    2.5140 cd        1 THP      0.101600
     26 H5'1        0.6530   -0.6900   -2.2150 h1        1 THP      0.004200
     27 H5'2        1.1950   -0.2320   -0.5220 h1        1 THP      0.004200
     28 H4'        -1.0300   -2.3290   -1.1510 h1        1 THP      0.071700
     29 H3'        -1.3070    0.5140   -1.6680 h1        1 THP      0.069700
     30 H2'1       -2.7510    0.8150    0.7440 hc        1 THP      0.059200
     31 H2'2       -1.0120    1.3120    0.5270 hc        1 THP      0.059200
     32 H1'        -2.2080   -1.1290    1.9810 h2        1 THP      0.066700
     33 H3         -0.7440    0.9350    5.6860 hn        1 THP      0.300500
     34 H51         3.5780    1.3720    3.4600 hc        1 THP      0.045033
     35 H52         3.6770   -0.2400    4.2660 hc        1 THP      0.045033
     36 H53         3.5030   -0.1540    2.4380 hc        1 THP      0.045033
     37 H6          1.4420   -0.5860    1.5500 h4        1 THP      0.334000
@<TRIPOS>BOND
     1    1    2 1   
     2    1    3 1   
     3    1    4 1   
     4    1    9 1   
     5    5    6 1   
     6    5    7 1   
     7    5    8 1   
     8    5   14 1   
     9    9   10 1   
    10   10   11 1   
    11   10   26 1   
    12   10   27 1   
    13   11   12 1   
    14   11   13 1   
    15   11   28 1   
    16   12   16 1   
    17   13   14 1   
    18   13   15 1   
    19   13   29 1   
    20   15   16 1   
    21   15   30 1   
    22   15   31 1   
    23   16   17 1   
    24   16   32 1   
    25   17   18 1   
    26   17   25 1   
    27   18   19 2   
    28   18   20 1   
    29   20   21 1   
    30   20   33 1   
    31   21   22 2   
    32   21   23 1   
    33   23   24 1   
    34   23   25 2   
    35   24   34 1   
    36   24   35 1   
    37   24   36 1   
    38   25   37 1   
@<TRIPOS>SUBSTRUCTURE
     1 THP         1 TEMP              0 ****  ****    0 ROOT
