@<TRIPOS>MOLECULE
THQ
   21    21     1     0     0
SMALL
bcc


@<TRIPOS>ATOM
      1 N1          0.4660   -0.2120    3.9500 nc        1 THQ     -0.655000
      2 C1         -0.6370   -0.8740    3.5950 cd        1 THQ      0.245300
      3 S1         -0.9980   -0.8680    1.9400 ss        1 THQ      0.000700
      4 C2          0.3650    0.0620    1.6130 cd        1 THQ     -0.076700
      5 C3          1.0490    0.3310    2.8100 cc        1 THQ      0.237600
      6 CM3         2.2960    1.1270    2.8640 c3        1 THQ     -0.096400
      7 C4          0.7240    0.4950    0.2620 c3        1 THQ     -0.113100
      8 C5          0.4630   -0.6100   -0.7950 c3        1 THQ      0.255400
      9 O7          0.6160   -0.1440   -2.0640 os        1 THQ     -0.550200
     10 P          -0.9140    0.1980   -2.8600 p5        1 THQ      1.310900
     11 O8         -1.4160    1.2700   -1.9250 o         1 THQ     -0.929500
     12 O9         -0.4900    0.6230   -4.2350 o         1 THQ     -0.929500
     13 O10        -1.6090   -1.1310   -2.7340 o         1 THQ     -0.929500
     14 H11        -1.2470   -1.3770    4.3450 h5        1 THQ      0.015100
     15 HM31        3.1150    0.5790    2.3340 hc        1 THQ      0.029700
     16 HM32        2.1380    2.1040    2.3420 hc        1 THQ      0.029700
     17 HM33        2.6220    1.3290    3.9130 hc        1 THQ      0.029700
     18 HC41        0.0860    1.3800   -0.0440 hc        1 THQ      0.083200
     19 HC42        1.7970    0.8120    0.2220 hc        1 THQ      0.083200
     20 HC51        1.2090   -1.4390   -0.5960 h1        1 THQ     -0.019300
     21 HC52       -0.5800   -1.0170   -0.6280 h1        1 THQ     -0.019300
@<TRIPOS>BOND
     1    1    2 2   
     2    1    5 1   
     3    2    3 1   
     4    2   14 1   
     5    3    4 1   
     6    4    5 2   
     7    4    7 1   
     8    5    6 1   
     9    6   15 1   
    10    6   16 1   
    11    6   17 1   
    12    7    8 1   
    13    7   18 1   
    14    7   19 1   
    15    8    9 1   
    16    8   20 1   
    17    8   21 1   
    18    9   10 1   
    19   10   11 1   
    20   10   12 1   
    21   10   13 1   
@<TRIPOS>SUBSTRUCTURE
     1 THQ         1 TEMP              0 ****  ****    0 ROOT
