@<TRIPOS>MOLECULE
THQ
   21    21     1     0     0
SMALL
bcc


@<TRIPOS>ATOM
      1 N1         -0.3090    0.1110    0.0170 nc        1 THQ     -0.647000
      2 C1          0.9350    0.5540    0.0970 cd        1 THQ      0.325300
      3 S1          1.5870    0.6190    1.6790 ss        1 THQ     -0.273300
      4 C2          0.1210    0.0250    2.3290 cd        1 THQ     -0.039700
      5 C3         -0.7890   -0.2000    1.2940 cc        1 THQ      0.316600
      6 CM3        -2.1590   -0.7280    1.5030 c3        1 THQ     -0.165400
      7 C4         -0.0920   -0.1830    3.7600 c3        1 THQ     -0.096100
      8 C5         -0.0120   -1.6780    4.1770 c3        1 THQ      0.262400
      9 O7         -0.4500   -1.8480    5.4570 os        1 THQ     -0.557200
     10 P          -2.0460   -2.5690    5.5510 p5        1 THQ      1.318900
     11 O8         -1.7790   -3.9730    5.0860 o         1 THQ     -0.930500
     12 O9         -2.4150   -2.3770    6.9920 o         1 THQ     -0.930500
     13 O10        -2.7430   -1.6840    4.5410 o         1 THQ     -0.930500
     14 H11         1.5020    0.8490   -0.7860 h5        1 THQ      0.012100
     15 HM31       -2.3270   -1.0010    2.5950 hc        1 THQ      0.076033
     16 HM32       -2.3180   -1.6470    0.8880 hc        1 THQ      0.076033
     17 HM33       -2.9160    0.0360    1.1990 hc        1 THQ      0.076033
     18 HC41       -1.1260    0.1720    4.0400 hc        1 THQ      0.068200
     19 HC42        0.6530    0.4000    4.3600 hc        1 THQ      0.068200
     20 HC51       -0.6210   -2.2860    3.4480 h1        1 THQ     -0.014800
     21 HC52        1.0750   -1.9830    4.0940 h1        1 THQ     -0.014800
@<TRIPOS>BOND
     1    1    2 2   
     2    1    5 1   
     3    2    3 1   
     4    2   14 1   
     5    3    4 1   
     6    4    5 2   
     7    4    7 1   
     8    5    6 1   
     9    6   15 1   
    10    6   16 1   
    11    6   17 1   
    12    7    8 1   
    13    7   18 1   
    14    7   19 1   
    15    8    9 1   
    16    8   20 1   
    17    8   21 1   
    18    9   10 1   
    19   10   11 1   
    20   10   12 1   
    21   10   13 1   
@<TRIPOS>SUBSTRUCTURE
     1 THQ         1 TEMP              0 ****  ****    0 ROOT
