@<TRIPOS>MOLECULE
THQ
   21    21     1     0     0
SMALL
bcc


@<TRIPOS>ATOM
      1 N1         -0.2520   -0.1510   -0.0530 nc        1 THQ     -0.647000
      2 C1          1.0210    0.2090   -0.0070 cd        1 THQ      0.325300
      3 S1          1.6830    0.3470    1.5660 ss        1 THQ     -0.273300
      4 C2          0.1820   -0.0910    2.2590 cd        1 THQ     -0.039700
      5 C3         -0.7470   -0.3300    1.2440 cc        1 THQ      0.316600
      6 CM3        -2.1490   -0.7430    1.4920 c3        1 THQ     -0.165400
      7 C4         -0.0380   -0.1750    3.7020 c3        1 THQ     -0.096100
      8 C5         -0.0610   -1.6360    4.2310 c3        1 THQ      0.262400
      9 O7         -0.5030   -1.6760    5.5210 os        1 THQ     -0.557200
     10 P          -2.1450   -2.2750    5.6680 p5        1 THQ      1.318900
     11 O8         -1.9790   -3.7250    5.3120 o         1 THQ     -0.930500
     12 O9         -2.4940   -1.9480    7.0900 o         1 THQ     -0.930500
     13 O10        -2.7840   -1.4220    4.5940 o         1 THQ     -0.930500
     14 H11         1.6020    0.3950   -0.9080 h5        1 THQ      0.012100
     15 HM31       -2.3300   -0.9200    2.6010 hc        1 THQ      0.076033
     16 HM32       -2.3740   -1.6940    0.9490 hc        1 THQ      0.076033
     17 HM33       -2.8520    0.0470    1.1300 hc        1 THQ      0.076033
     18 HC41       -1.0430    0.2720    3.9540 hc        1 THQ      0.068200
     19 HC42        0.7490    0.3980    4.2560 hc        1 THQ      0.068200
     20 HC51       -0.7140   -2.2520    3.5510 h1        1 THQ     -0.014800
     21 HC52        1.0020   -2.0210    4.1730 h1        1 THQ     -0.014800
@<TRIPOS>BOND
     1    1    2 2   
     2    1    5 1   
     3    2    3 1   
     4    2   14 1   
     5    3    4 1   
     6    4    5 2   
     7    4    7 1   
     8    5    6 1   
     9    6   15 1   
    10    6   16 1   
    11    6   17 1   
    12    7    8 1   
    13    7   18 1   
    14    7   19 1   
    15    8    9 1   
    16    8   20 1   
    17    8   21 1   
    18    9   10 1   
    19   10   11 1   
    20   10   12 1   
    21   10   13 1   
@<TRIPOS>SUBSTRUCTURE
     1 THQ         1 TEMP              0 ****  ****    0 ROOT
