@<TRIPOS>MOLECULE
THR
   16    15     1     0     0
SMALL
bcc


@<TRIPOS>ATOM
      1 N           1.6080   -0.8590    0.5800 n3        1 THR     -0.889800
      2 CA          0.2170   -0.6810    0.1870 c3        1 THR     -0.011500
      3 C           0.0540    0.0620   -1.1780 c         1 THR      0.881600
      4 O           0.6070    1.1990   -1.2810 o         1 THR     -0.839800
      5 CB         -0.6080    0.0980    1.2330 c3        1 THR      0.161100
      6 OG1        -0.0470    1.3720    1.5190 oh        1 THR     -0.651800
      7 CG2        -0.7160   -0.6460    2.5510 c3        1 THR     -0.084100
      8 OXT        -0.6070   -0.5010   -2.0890 o         1 THR     -0.839800
      9 H           2.1430   -1.0450   -0.2500 hn        1 THR      0.332800
     10 H2          1.9450    0.0100    0.9570 hn        1 THR      0.332800
     11 HA         -0.2320   -1.7090    0.0840 h1        1 THR      0.053700
     12 HB         -1.6390    0.2520    0.7990 h1        1 THR      0.027700
     13 HG1         0.2290    1.7530    0.6670 ho        1 THR      0.446000
     14 HG21       -1.3790   -0.0860    3.2540 hc        1 THR      0.026367
     15 HG22       -1.1430   -1.6600    2.3730 hc        1 THR      0.026367
     16 HG23        0.2890   -0.7510    3.0230 hc        1 THR      0.026367
@<TRIPOS>BOND
     1    1    2 1   
     2    1    9 1   
     3    1   10 1   
     4    2    3 1   
     5    2    5 1   
     6    2   11 1   
     7    3    4 1   
     8    3    8 1   
     9    5    6 1   
    10    5    7 1   
    11    5   12 1   
    12    6   13 1   
    13    7   14 1   
    14    7   15 1   
    15    7   16 1   
@<TRIPOS>SUBSTRUCTURE
     1 THR         1 TEMP              0 ****  ****    0 ROOT
