@<TRIPOS>MOLECULE
THS
   36    37     1     0     0
SMALL
bcc


@<TRIPOS>ATOM
      1 P           0.2510    0.1460   -0.3160 p5        1 THS      1.111500
      2 O1P         1.0270   -0.8080   -1.0820 o         1 THS     -0.657300
      3 S2P         0.5840    0.4860    1.7230 sh        1 THS     -0.493200
      4 S3P        -1.7280   -0.2650    0.2240 sh        1 THS     -0.493200
      5 O5'         0.3530    1.5910   -0.9920 os        1 THS     -0.515200
      6 C5'         0.7650    1.7020   -2.3420 c3        1 THS      0.136400
      7 C4'        -0.3550    2.3200   -3.1790 c3        1 THS      0.123100
      8 O4'        -0.5350    3.6950   -2.8210 os        1 THS     -0.405600
      9 C3'        -0.0040    2.2600   -4.6820 c3        1 THS      0.121100
     10 O3'        -0.9870    1.4510   -5.3020 oh        1 THS     -0.590800
     11 C2'        -0.0630    3.7100   -5.1760 c3        1 THS     -0.137400
     12 C1'        -0.1910    4.5710   -3.9040 c3        1 THS      0.313500
     13 N1          0.9800    5.3820   -3.5700 n         1 THS     -0.382000
     14 C2          2.2940    4.8480   -3.6250 c         1 THS      0.812500
     15 O2          2.5260    3.6980   -4.0660 o         1 THS     -0.670500
     16 N3          3.3630    5.6490   -3.2010 n         1 THS     -0.584500
     17 C4          3.1930    6.9260   -2.6350 c         1 THS      0.715700
     18 O4          4.2010    7.5620   -2.2890 o         1 THS     -0.600500
     19 C5          1.8010    7.3940   -2.5040 cc        1 THS     -0.243400
     20 C5M         1.5900    8.7130   -1.8760 c3        1 THS     -0.033900
     21 C6          0.7800    6.6110   -2.9460 cd        1 THS      0.038600
     22 HSP2        1.8090    0.9690    1.9350 hs        1 THS      0.363300
     23 HSP3       -1.7710    0.1710    1.5130 hs        1 THS      0.363300
     24 H5'1        1.0420    0.6900   -2.7480 h1        1 THS      0.088700
     25 H5'2        1.6620    2.3870   -2.3520 h1        1 THS      0.088700
     26 H4'        -1.3450    1.8270   -2.9730 h1        1 THS      0.100700
     27 H3'         1.0230    1.8310   -4.8430 h1        1 THS      0.078700
     28 HO3'       -0.6940    1.3020   -6.2100 ho        1 THS      0.412000
     29 H2'1        0.8440    3.9630   -5.7770 hc        1 THS      0.082700
     30 H2'2       -0.9710    3.8670   -5.8110 hc        1 THS      0.082700
     31 H1'        -1.0660    5.2850   -3.9860 h2        1 THS      0.089700
     32 HN3         4.2800    5.2670   -3.2920 hn        1 THS      0.353500
     33 HM51        1.8700    8.6680   -0.7920 hc        1 THS      0.054033
     34 HM52        0.5250    9.0370   -1.9590 hc        1 THS      0.054033
     35 HM53        2.2440    9.4780   -2.3670 hc        1 THS      0.054033
     36 H6         -0.2760    6.9300   -2.8430 h4        1 THS      0.168000
@<TRIPOS>BOND
     1    1    2 2   
     2    1    3 1   
     3    1    4 1   
     4    1    5 1   
     5    3   22 1   
     6    4   23 1   
     7    5    6 1   
     8    6    7 1   
     9    6   24 1   
    10    6   25 1   
    11    7    8 1   
    12    7    9 1   
    13    7   26 1   
    14    8   12 1   
    15    9   10 1   
    16    9   11 1   
    17    9   27 1   
    18   10   28 1   
    19   11   12 1   
    20   11   29 1   
    21   11   30 1   
    22   12   13 1   
    23   12   31 1   
    24   13   14 1   
    25   13   21 1   
    26   14   15 2   
    27   14   16 1   
    28   16   17 1   
    29   16   32 1   
    30   17   18 2   
    31   17   19 1   
    32   19   20 1   
    33   19   21 2   
    34   20   33 1   
    35   20   34 1   
    36   20   35 1   
    37   21   36 1   
@<TRIPOS>SUBSTRUCTURE
     1 THS         1 TEMP              0 ****  ****    0 ROOT
