@<TRIPOS>MOLECULE
THS
   36    36     1     0     0
SMALL
bcc


@<TRIPOS>ATOM
      1 P           1.6340   -4.3280    0.8220 p3        1 THS      2.348000
      2 O1P         3.0780   -4.0700    1.0210 o         1 THS     -0.932000
      3 S2P         0.6870   -4.4060    2.6610 s         1 THS     -0.639000
      4 S3P         1.3850   -6.1340   -0.1590 sh        1 THS     -0.734000
      5 O5'         1.0050   -3.1660   -0.0460 os        1 THS     -0.682000
      6 C5'         1.2950   -1.8340    0.3070 c3        1 THS     -0.008000
      7 C4'         1.6210   -1.0300   -0.9580 c3        1 THS      0.006000
      8 O4'         0.2960   -0.4840   -1.6140 os        1 THS     -0.273000
      9 C3'         2.3010    0.0110   -0.6580 c3        1 THS      0.002000
     10 O3'         3.2040    0.3550   -1.7600 oh        1 THS     -0.330000
     11 C2'         1.2230    1.2070   -0.4270 c3        1 THS     -0.214000
     12 C1'         0.2830    1.0260   -1.3170 c3        1 THS      0.169000
     13 N1         -0.9940    1.4190   -0.7820 n         1 THS     -0.279000
     14 C2         -2.1410    0.5200   -0.8950 c2        1 THS      0.402000
     15 O2         -2.0350   -0.5250   -1.5060 o         1 THS     -0.385000
     16 N3         -3.4130    0.8700   -0.2630 n         1 THS     -0.364000
     17 C4         -3.5640    2.1280    0.3780 c2        1 THS      0.354000
     18 O4         -4.6110    2.4080    0.9260 o         1 THS     -0.325000
     19 C5         -2.4320    3.0640    0.4310 c2        1 THS     -0.220000
     20 C5M        -2.6240    4.4500    1.0060 c3        1 THS     -0.156000
     21 C6         -1.1470    2.6910   -0.1750 c2        1 THS      0.034000
     22 HSP2        0.9040   -5.4450    3.1700 hs        1 THS      0.219000
     23 HSP3        2.0720   -6.9500    0.3400 hs        1 THS      0.169000
     24 H5'1        2.0640   -1.8160    0.9120 h1        1 THS      0.129000
     25 H5'2        0.5180   -1.4380    0.7540 h1        1 THS      0.129000
     26 H4'         2.1120   -1.5850   -1.5960 h1        1 THS      0.139000
     27 H3'         2.8130   -0.1450    0.1600 h1        1 THS      0.143000
     28 HO3'        4.0000    0.5760   -1.4330 ho        1 THS      0.214000
     29 H2'1        1.6510    2.0780   -0.5610 hc        1 THS      0.121500
     30 H2'2        0.8470    1.1510    0.4760 hc        1 THS      0.121500
     31 H1'         0.4820    1.5340   -2.1290 h2        1 THS      0.127000
     32 HN3        -4.1270    0.3080   -0.3360 hn        1 THS      0.268000
     33 HM51       -2.9750    4.3800    1.9190 hc        1 THS      0.093000
     34 HM52       -1.7630    4.9190    1.0230 hc        1 THS      0.093000
     35 HM53       -3.2570    4.9500    0.4500 hc        1 THS      0.093000
     36 H6         -0.3930    3.3110   -0.1420 h4        1 THS      0.166000
@<TRIPOS>BOND
     1    1    2 1   
     2    1    4 1   
     3    1    5 1   
     4    3   22 1   
     5    4   23 1   
     6    5    6 1   
     7    6    7 1   
     8    6   24 1   
     9    6   25 1   
    10    7    8 1   
    11    7    9 1   
    12    7   26 1   
    13    8   12 1   
    14    9   10 1   
    15    9   11 1   
    16    9   27 1   
    17   10   28 1   
    18   11   12 1   
    19   11   29 1   
    20   11   30 1   
    21   12   13 1   
    22   12   31 1   
    23   13   14 1   
    24   13   21 1   
    25   14   15 1   
    26   14   16 1   
    27   16   17 1   
    28   16   32 1   
    29   17   18 1   
    30   17   19 1   
    31   19   20 1   
    32   19   21 1   
    33   20   33 1   
    34   20   34 1   
    35   20   35 1   
    36   21   36 1   
@<TRIPOS>SUBSTRUCTURE
     1 THS         1 TEMP              0 ****  ****    0 ROOT
