@<TRIPOS>MOLECULE
THS
   36    37     1     0     0
SMALL
bcc


@<TRIPOS>ATOM
      1 P           0.1960    0.1830   -0.2700 p5        1 THS      1.111500
      2 O1P         0.9850   -0.7840   -1.0050 o         1 THS     -0.657300
      3 S2P         0.4890    0.5540    1.7700 sh        1 THS     -0.493700
      4 S3P        -1.7950   -0.2160    0.2370 sh        1 THS     -0.493700
      5 O5'         0.3140    1.6170   -0.9650 os        1 THS     -0.515200
      6 C5'         0.7530    1.7070   -2.3080 c3        1 THS      0.136400
      7 C4'        -0.3490    2.3140   -3.1770 c3        1 THS      0.123100
      8 O4'        -0.5330    3.6950   -2.8430 os        1 THS     -0.405600
      9 C3'         0.0320    2.2300   -4.6710 c3        1 THS      0.121100
     10 O3'        -0.9400    1.4130   -5.2980 oh        1 THS     -0.590800
     11 C2'        -0.0150    3.6720   -5.1890 c3        1 THS     -0.137400
     12 C1'        -0.1660    4.5530   -3.9340 c3        1 THS      0.313500
     13 N1          0.9990    5.3680   -3.5890 n         1 THS     -0.382000
     14 C2          2.3130    4.8310   -3.6100 c         1 THS      0.812500
     15 O2          2.5510    3.6740   -4.0270 o         1 THS     -0.670500
     16 N3          3.3750    5.6360   -3.1770 ns        1 THS     -0.584500
     17 C4          3.1970    6.9220   -2.6350 c         1 THS      0.715700
     18 O4          4.1990    7.5620   -2.2780 o         1 THS     -0.600500
     19 C5          1.8030    7.3950   -2.5380 cc        1 THS     -0.243400
     20 C5M         1.5830    8.7240   -1.9360 c3        1 THS     -0.033900
     21 C6          0.7890    6.6070   -2.9880 cd        1 THS      0.038600
     22 HSP2        1.7100    1.0380    2.0000 hs        1 THS      0.363300
     23 HSP3       -1.8630    0.2390    1.5180 hs        1 THS      0.363300
     24 H5'1        1.6510    2.3910   -2.3110 h1        1 THS      0.088700
     25 H5'2        1.0360    0.6890   -2.6930 h1        1 THS      0.088700
     26 H4'        -1.3440    1.8260   -2.9830 h1        1 THS      0.100700
     27 H3'         1.0610    1.7980   -4.8050 h1        1 THS      0.078700
     28 HO3'       -0.6300    1.2500   -6.1970 ho        1 THS      0.412000
     29 H2'1       -0.9090    3.8220   -5.8440 hc        1 THS      0.082700
     30 H2'2        0.9040    3.9140   -5.7760 hc        1 THS      0.082700
     31 H1'        -1.0380    5.2680   -4.0440 h2        1 THS      0.089700
     32 HN3         4.2930    5.2510   -3.2440 hn        1 THS      0.353500
     33 HM51        0.5180    9.0450   -2.0380 hc        1 THS      0.054033
     34 HM52        1.8490    8.6980   -0.8490 hc        1 THS      0.054033
     35 HM53        2.2410    9.4820   -2.4320 hc        1 THS      0.054033
     36 H6         -0.2680    6.9290   -2.9120 h4        1 THS      0.168000
@<TRIPOS>BOND
     1    1    2 2   
     2    1    3 1   
     3    1    4 1   
     4    1    5 1   
     5    3   22 1   
     6    4   23 1   
     7    5    6 1   
     8    6    7 1   
     9    6   24 1   
    10    6   25 1   
    11    7    8 1   
    12    7    9 1   
    13    7   26 1   
    14    8   12 1   
    15    9   10 1   
    16    9   11 1   
    17    9   27 1   
    18   10   28 1   
    19   11   12 1   
    20   11   29 1   
    21   11   30 1   
    22   12   13 1   
    23   12   31 1   
    24   13   14 1   
    25   13   21 1   
    26   14   15 2   
    27   14   16 1   
    28   16   17 1   
    29   16   32 1   
    30   17   18 2   
    31   17   19 1   
    32   19   20 1   
    33   19   21 2   
    34   20   33 1   
    35   20   34 1   
    36   20   35 1   
    37   21   36 1   
@<TRIPOS>SUBSTRUCTURE
     1 THS         1 TEMP              0 ****  ****    0 ROOT
