@<TRIPOS>MOLECULE
THS
   36    37     1     0     0
SMALL
bcc


@<TRIPOS>ATOM
      1 P          -0.5200    0.1120   -3.4920 p5        1 THS      1.113500
      2 O1P        -1.6280    0.8580   -2.9210 o         1 THS     -0.681300
      3 S2P         1.1750    1.1580   -4.1560 sh        1 THS     -0.495200
      4 S3P        -0.5750   -0.7800   -5.3750 sh        1 THS     -0.495200
      5 O5'        -0.1030   -1.0290   -2.4520 os        1 THS     -0.507200
      6 C5'        -0.0670   -0.7110   -1.0710 c3        1 THS      0.148400
      7 C4'        -1.3650   -1.1160   -0.3590 c3        1 THS      0.086100
      8 O4'        -1.0090   -1.7110    0.8950 os        1 THS     -0.414600
      9 C3'        -2.3060    0.0800   -0.0770 c3        1 THS      0.134100
     10 O3'        -3.5360   -0.0930   -0.7500 oh        1 THS     -0.600800
     11 C2'        -2.5630    0.0440    1.4320 c3        1 THS     -0.109400
     12 C1'        -1.5470   -0.9650    1.9980 c3        1 THS      0.313500
     13 N1         -0.4730   -0.3840    2.8040 n         1 THS     -0.385000
     14 C2          0.2930    0.7140    2.3340 c         1 THS      0.815500
     15 O2          0.0490    1.2750    1.2400 o         1 THS     -0.673500
     16 N3          1.3420    1.1920    3.1320 n         1 THS     -0.585500
     17 C4          1.7280    0.5880    4.3430 c         1 THS      0.715700
     18 O4          2.6680    1.0850    4.9820 o         1 THS     -0.600500
     19 C5          0.9610   -0.6070    4.7410 cc        1 THS     -0.245400
     20 C5M         1.3690   -1.2860    5.9860 c3        1 THS     -0.033900
     21 C6         -0.0700   -1.0390    3.9640 cd        1 THS      0.037600
     22 HSP2        1.4500    2.2060   -3.3720 hs        1 THS      0.371300
     23 HSP3        0.5440   -0.2580   -5.9570 hs        1 THS      0.371300
     24 H5'1        0.1430    0.3850   -0.9440 h1        1 THS      0.078700
     25 H5'2        0.7870   -1.3180   -0.6520 h1        1 THS      0.078700
     26 H4'        -1.8960   -1.9210   -0.9380 h1        1 THS      0.097700
     27 H3'        -1.8230    1.0520   -0.3690 h1        1 THS      0.084700
     28 HO3'       -3.4560    0.3610   -1.6010 ho        1 THS      0.436000
     29 H2'1       -3.6010   -0.3210    1.6400 hc        1 THS      0.085700
     30 H2'2       -2.4470    1.0640    1.8710 hc        1 THS      0.085700
     31 H1'        -2.0600   -1.7400    2.6460 h2        1 THS      0.088700
     32 HN3         1.8380    1.9910    2.7990 hn        1 THS      0.352500
     33 HM51        1.4570   -0.5400    6.8160 hc        1 THS      0.054033
     34 HM52        0.6330   -2.0730    6.2800 hc        1 THS      0.054033
     35 HM53        2.3730   -1.7640    5.8480 hc        1 THS      0.054033
     36 H6         -0.6560   -1.9390    4.2350 h4        1 THS      0.167000
@<TRIPOS>BOND
     1    1    2 2   
     2    1    3 1   
     3    1    4 1   
     4    1    5 1   
     5    3   22 1   
     6    4   23 1   
     7    5    6 1   
     8    6    7 1   
     9    6   24 1   
    10    6   25 1   
    11    7    8 1   
    12    7    9 1   
    13    7   26 1   
    14    8   12 1   
    15    9   10 1   
    16    9   11 1   
    17    9   27 1   
    18   10   28 1   
    19   11   12 1   
    20   11   29 1   
    21   11   30 1   
    22   12   13 1   
    23   12   31 1   
    24   13   14 1   
    25   13   21 1   
    26   14   15 2   
    27   14   16 1   
    28   16   17 1   
    29   16   32 1   
    30   17   18 2   
    31   17   19 1   
    32   19   20 1   
    33   19   21 2   
    34   20   33 1   
    35   20   34 1   
    36   20   35 1   
    37   21   36 1   
@<TRIPOS>SUBSTRUCTURE
     1 THS         1 TEMP              0 ****  ****    0 ROOT
