@<TRIPOS>MOLECULE
THS
   36    37     1     0     0
SMALL
bcc


@<TRIPOS>ATOM
      1 P           0.1770    0.1840   -0.2760 p5        1 THS      1.111500
      2 O1P         0.9600   -0.7870   -1.0130 o         1 THS     -0.657300
      3 S2P         0.4710    0.5490    1.7640 sh        1 THS     -0.493700
      4 S3P        -1.8160   -0.2070    0.2300 sh        1 THS     -0.493700
      5 O5'         0.3020    1.6180   -0.9700 os        1 THS     -0.515200
      6 C5'         0.7420    1.7070   -2.3120 c3        1 THS      0.136400
      7 C4'        -0.3580    2.3230   -3.1790 c3        1 THS      0.123100
      8 O4'        -0.5330    3.7030   -2.8440 os        1 THS     -0.405600
      9 C3'         0.0220    2.2390   -4.6740 c3        1 THS      0.121100
     10 O3'        -0.9540    1.4280   -5.3020 oh        1 THS     -0.590800
     11 C2'        -0.0160    3.6820   -5.1900 c3        1 THS     -0.137400
     12 C1'        -0.1620    4.5610   -3.9330 c3        1 THS      0.313500
     13 N1          1.0080    5.3690   -3.5870 n         1 THS     -0.382000
     14 C2          2.3190    4.8240   -3.6090 c         1 THS      0.812500
     15 O2          2.5500    3.6670   -4.0290 o         1 THS     -0.670500
     16 N3          3.3860    5.6230   -3.1750 n         1 THS     -0.584500
     17 C4          3.2150    6.9100   -2.6310 c         1 THS      0.715700
     18 O4          4.2200    7.5430   -2.2720 o         1 THS     -0.600500
     19 C5          1.8240    7.3900   -2.5340 cc        1 THS     -0.243400
     20 C5M         1.6110    8.7200   -1.9310 c3        1 THS     -0.033900
     21 C6          0.8050    6.6090   -2.9850 cd        1 THS      0.038600
     22 HSP2        1.6950    1.0270    1.9940 hs        1 THS      0.363300
     23 HSP3       -1.8820    0.2470    1.5120 hs        1 THS      0.363300
     24 H5'1        1.0190    0.6890   -2.6990 h1        1 THS      0.088700
     25 H5'2        1.6430    2.3860   -2.3140 h1        1 THS      0.088700
     26 H4'        -1.3550    1.8390   -2.9860 h1        1 THS      0.100700
     27 H3'         1.0490    1.8000   -4.8090 h1        1 THS      0.078700
     28 HO3'       -0.6450    1.2650   -6.2020 ho        1 THS      0.412000
     29 H2'1        0.9040    3.9190   -5.7760 hc        1 THS      0.082700
     30 H2'2       -0.9100    3.8370   -5.8450 hc        1 THS      0.082700
     31 H1'        -1.0300    5.2810   -4.0420 h2        1 THS      0.089700
     32 HN3         4.3020    5.2330   -3.2430 hn        1 THS      0.353500
     33 HM51        0.5450    9.0400   -2.0180 hc        1 THS      0.054033
     34 HM52        2.2620    9.4770   -2.4380 hc        1 THS      0.054033
     35 HM53        1.8940    8.6960   -0.8480 hc        1 THS      0.054033
     36 H6         -0.2500    6.9360   -2.9080 h4        1 THS      0.168000
@<TRIPOS>BOND
     1    1    2 2   
     2    1    3 1   
     3    1    4 1   
     4    1    5 1   
     5    3   22 1   
     6    4   23 1   
     7    5    6 1   
     8    6    7 1   
     9    6   24 1   
    10    6   25 1   
    11    7    8 1   
    12    7    9 1   
    13    7   26 1   
    14    8   12 1   
    15    9   10 1   
    16    9   11 1   
    17    9   27 1   
    18   10   28 1   
    19   11   12 1   
    20   11   29 1   
    21   11   30 1   
    22   12   13 1   
    23   12   31 1   
    24   13   14 1   
    25   13   21 1   
    26   14   15 2   
    27   14   16 1   
    28   16   17 1   
    29   16   32 1   
    30   17   18 2   
    31   17   19 1   
    32   19   20 1   
    33   19   21 2   
    34   20   33 1   
    35   20   34 1   
    36   20   35 1   
    37   21   36 1   
@<TRIPOS>SUBSTRUCTURE
     1 THS         1 TEMP              0 ****  ****    0 ROOT
