@<TRIPOS>MOLECULE
THT
   64    63     1     0     0
SMALL
bcc


@<TRIPOS>ATOM
      1 C1          2.1010   -0.6030    0.7470 c3        1 THT     -0.187100
      2 C2          2.0620   -1.2020   -0.6150 c         1 THT      0.552100
      3 O2          1.9910   -2.3750   -0.9360 o         1 THT     -0.385100
      4 N3          2.0910   -0.2180   -1.7750 n4        1 THT     -0.688800
      5 C4          3.4940    0.1820   -2.1110 c3        1 THT      0.107800
      6 C5          3.5640    1.1800   -3.2520 c3        1 THT     -0.080300
      7 S6          5.2420    1.5440   -3.6310 ss        1 THT     -0.197700
      8 C7          5.8130    0.1100   -4.4410 c         1 THT      0.590700
      9 O7          5.1570   -0.9280   -4.5500 o         1 THT     -0.529100
     10 C8          7.2030    0.3260   -4.9410 c3        1 THT     -0.168400
     11 C9          7.2820    0.1170   -6.4420 c3        1 THT     -0.073400
     12 C10         8.7130    0.2410   -6.9210 c3        1 THT     -0.079400
     13 C11         8.8000    0.0500   -8.4210 c3        1 THT     -0.079400
     14 C12        10.2290    0.1740   -8.9050 c3        1 THT     -0.079400
     15 C13        10.3170   -0.0130  -10.4050 c3        1 THT     -0.079400
     16 C14        11.7450    0.1140  -10.8900 c3        1 THT     -0.079400
     17 C15        11.8330   -0.0710  -12.3890 c3        1 THT     -0.079400
     18 C16        13.2610    0.0570  -12.8750 c3        1 THT     -0.079400
     19 C17        13.3490   -0.1260  -14.3750 c3        1 THT     -0.079400
     20 C18        14.7770    0.0030  -14.8610 c3        1 THT     -0.079400
     21 C19        14.8650   -0.1790  -16.3610 c3        1 THT     -0.079400
     22 C20        16.2930   -0.0510  -16.8470 c3        1 THT     -0.079400
     23 C21        16.3820   -0.2310  -18.3480 c3        1 THT     -0.080400
     24 C22        17.8020   -0.1040  -18.8360 c3        1 THT     -0.093100
     25 HC11        1.1370   -0.0740    0.9660 hc        1 THT      0.116367
     26 HC12        2.2290   -1.4310    1.4960 hc        1 THT      0.116367
     27 HC13        2.9510    0.1170    0.8580 hc        1 THT      0.116367
     28 HN31        1.6690   -0.6580   -2.6040 hn        1 THT      0.458800
     29 HC41        4.0490   -0.7620   -2.4030 hx        1 THT      0.121200
     30 HC42        3.9630    0.6180   -1.1820 hx        1 THT      0.121200
     31 HC51        3.0500    0.7760   -4.1620 h1        1 THT      0.107200
     32 HC52        3.0880    2.1570   -2.9790 h1        1 THT      0.107200
     33 HC81        7.5550    1.3610   -4.6790 hc        1 THT      0.088200
     34 HC82        7.8800   -0.4090   -4.4220 hc        1 THT      0.088200
     35 HC91        6.6420    0.8750   -6.9650 hc        1 THT      0.057700
     36 HC92        6.8800   -0.9000   -6.6980 hc        1 THT      0.057700
     37 H101        9.3520   -0.5240   -6.4070 hc        1 THT      0.046200
     38 H102        9.1170    1.2520   -6.6470 hc        1 THT      0.046200
     39 H111        8.3960   -0.9600   -8.6960 hc        1 THT      0.043700
     40 H112        8.1600    0.8150   -8.9360 hc        1 THT      0.043700
     41 H121       10.8680   -0.5920   -8.3920 hc        1 THT      0.042200
     42 H122       10.6340    1.1830   -8.6280 hc        1 THT      0.042200
     43 H131        9.6760    0.7510  -10.9180 hc        1 THT      0.041200
     44 H132        9.9130   -1.0230  -10.6820 hc        1 THT      0.041200
     45 H141       12.1490    1.1230  -10.6110 hc        1 THT      0.040700
     46 H142       12.3860   -0.6520  -10.3780 hc        1 THT      0.040700
     47 H151       11.4300   -1.0810  -12.6690 hc        1 THT      0.040200
     48 H152       11.1910    0.6940  -12.9010 hc        1 THT      0.040200
     49 H161       13.6640    1.0660  -12.5950 hc        1 THT      0.040200
     50 H162       13.9020   -0.7090  -12.3640 hc        1 THT      0.040200
     51 H171       12.7070    0.6390  -14.8860 hc        1 THT      0.039700
     52 H172       12.9460   -1.1350  -14.6550 hc        1 THT      0.039700
     53 H181       15.1800    1.0110  -14.5800 hc        1 THT      0.039700
     54 H182       15.4180   -0.7630  -14.3510 hc        1 THT      0.039700
     55 H191       14.2240    0.5870  -16.8710 hc        1 THT      0.039700
     56 H192       14.4610   -1.1880  -16.6420 hc        1 THT      0.039700
     57 H201       16.6970    0.9580  -16.5660 hc        1 THT      0.039700
     58 H202       16.9340   -0.8170  -16.3380 hc        1 THT      0.039700
     59 H211       15.7390    0.5350  -18.8550 hc        1 THT      0.038700
     60 H212       15.9760   -1.2400  -18.6270 hc        1 THT      0.038700
     61 H221       17.8450   -0.2410  -19.9430 hc        1 THT      0.033367
     62 H222       18.2160    0.9030  -18.5880 hc        1 THT      0.033367
     63 H223       18.4540   -0.8760  -18.3600 hc        1 THT      0.033367
     64 H32         1.5460    0.6150   -1.5340 hn        1 THT      0.458800
@<TRIPOS>BOND
     1    1    2 1   
     2    1   25 1   
     3    1   26 1   
     4    1   27 1   
     5    2    3 2   
     6    2    4 1   
     7    4    5 1   
     8    4   28 1   
     9    4   64 1   
    10    5    6 1   
    11    5   29 1   
    12    5   30 1   
    13    6    7 1   
    14    6   31 1   
    15    6   32 1   
    16    7    8 1   
    17    8    9 2   
    18    8   10 1   
    19   10   11 1   
    20   10   33 1   
    21   10   34 1   
    22   11   12 1   
    23   11   35 1   
    24   11   36 1   
    25   12   13 1   
    26   12   37 1   
    27   12   38 1   
    28   13   14 1   
    29   13   39 1   
    30   13   40 1   
    31   14   15 1   
    32   14   41 1   
    33   14   42 1   
    34   15   16 1   
    35   15   43 1   
    36   15   44 1   
    37   16   17 1   
    38   16   45 1   
    39   16   46 1   
    40   17   18 1   
    41   17   47 1   
    42   17   48 1   
    43   18   19 1   
    44   18   49 1   
    45   18   50 1   
    46   19   20 1   
    47   19   51 1   
    48   19   52 1   
    49   20   21 1   
    50   20   53 1   
    51   20   54 1   
    52   21   22 1   
    53   21   55 1   
    54   21   56 1   
    55   22   23 1   
    56   22   57 1   
    57   22   58 1   
    58   23   24 1   
    59   23   59 1   
    60   23   60 1   
    61   24   61 1   
    62   24   62 1   
    63   24   63 1   
@<TRIPOS>SUBSTRUCTURE
     1 THT         1 TEMP              0 ****  ****    0 ROOT
