@<TRIPOS>MOLECULE
THT
   63    62     1     0     0
SMALL
bcc


@<TRIPOS>ATOM
      1 C1          1.3490   -0.2060  -11.6620 c3        1 THT     -0.175100
      2 C2          0.4370   -0.5470  -10.5090 c         1 THT      0.653100
      3 O2         -0.3350   -1.5260  -10.5550 o         1 THT     -0.603100
      4 N3          0.4600    0.2990   -9.4120 n         1 THT     -0.572900
      5 C4         -0.2910    0.0350   -8.2180 c3        1 THT      0.097000
      6 C5          0.5170   -0.6070   -7.0930 c3        1 THT     -0.063300
      7 S6         -0.4880   -0.8010   -5.6540 ss        1 THT     -0.238700
      8 C7          0.0660    0.4070   -4.5550 c         1 THT      0.573700
      9 O7          0.9780    1.2150   -4.7530 o         1 THT     -0.532100
     10 C8         -0.7370    0.3490   -3.2890 c3        1 THT     -0.169400
     11 C9          0.1610    0.2270   -2.0750 c3        1 THT     -0.073400
     12 C10        -0.6490    0.2860   -0.7980 c3        1 THT     -0.078400
     13 C11         0.2420    0.1490    0.4190 c3        1 THT     -0.079400
     14 C12        -0.5650    0.2130    1.6980 c3        1 THT     -0.079400
     15 C13         0.3250    0.0760    2.9150 c3        1 THT     -0.079400
     16 C14        -0.4800    0.1400    4.1950 c3        1 THT     -0.079400
     17 C15         0.4090    0.0030    5.4110 c3        1 THT     -0.079400
     18 C16        -0.3960    0.0670    6.6910 c3        1 THT     -0.079400
     19 C17         0.4940   -0.0700    7.9080 c3        1 THT     -0.079400
     20 C18        -0.3120   -0.0060    9.1880 c3        1 THT     -0.079400
     21 C19         0.5780   -0.1420   10.4050 c3        1 THT     -0.079400
     22 C20        -0.2270   -0.0780   11.6850 c3        1 THT     -0.079400
     23 C21         0.6620   -0.2140   12.9030 c3        1 THT     -0.080400
     24 C22        -0.1360   -0.1510   14.1790 c3        1 THT     -0.092100
     25 HC11        2.4170   -0.2200  -11.3350 hc        1 THT      0.066367
     26 HC12        1.2070   -0.9650  -12.4690 hc        1 THT      0.066367
     27 HC13        1.1050    0.8060  -12.0670 hc        1 THT      0.066367
     28 HN31        1.1790    0.9790   -9.3530 hn        1 THT      0.306500
     29 HC41       -1.1550   -0.6440   -8.4800 h1        1 THT      0.072700
     30 HC42       -0.7080    1.0160   -7.8490 h1        1 THT      0.072700
     31 HC51        1.4180    0.0090   -6.8450 h1        1 THT      0.090200
     32 HC52        0.8570   -1.6290   -7.3910 h1        1 THT      0.090200
     33 HC81       -1.4560   -0.5140   -3.3240 hc        1 THT      0.075200
     34 HC82       -1.3420    1.2940   -3.2200 hc        1 THT      0.075200
     35 HC91        0.9180    1.0560   -2.0880 hc        1 THT      0.054700
     36 HC92        0.7260   -0.7420   -2.1190 hc        1 THT      0.054700
     37 H101       -1.4150   -0.5330   -0.7980 hc        1 THT      0.041200
     38 H102       -1.2050    1.2600   -0.7490 hc        1 THT      0.041200
     39 H111        1.0100    0.9670    0.4160 hc        1 THT      0.042200
     40 H112        0.7960   -0.8250    0.3710 hc        1 THT      0.042200
     41 H121       -1.3330   -0.6040    1.7000 hc        1 THT      0.039700
     42 H122       -1.1180    1.1880    1.7460 hc        1 THT      0.039700
     43 H131        1.0940    0.8930    2.9130 hc        1 THT      0.040200
     44 H132        0.8790   -0.8990    2.8680 hc        1 THT      0.040200
     45 H141       -1.2490   -0.6780    4.1970 hc        1 THT      0.039700
     46 H142       -1.0340    1.1140    4.2420 hc        1 THT      0.039700
     47 H151        1.1780    0.8200    5.4090 hc        1 THT      0.039700
     48 H152        0.9640   -0.9720    5.3640 hc        1 THT      0.039700
     49 H161       -1.1640   -0.7510    6.6930 hc        1 THT      0.039700
     50 H162       -0.9510    1.0410    6.7380 hc        1 THT      0.039700
     51 H171        1.2620    0.7480    7.9060 hc        1 THT      0.039700
     52 H172        1.0480   -1.0440    7.8610 hc        1 THT      0.039700
     53 H181       -1.0800   -0.8240    9.1900 hc        1 THT      0.039700
     54 H182       -0.8670    0.9680    9.2350 hc        1 THT      0.039700
     55 H191        1.3460    0.6760   10.4020 hc        1 THT      0.039700
     56 H192        1.1330   -1.1160   10.3580 hc        1 THT      0.039700
     57 H201       -0.9950   -0.8960   11.6870 hc        1 THT      0.039700
     58 H202       -0.7820    0.8960   11.7320 hc        1 THT      0.039700
     59 H211        1.4300    0.6040   12.8970 hc        1 THT      0.038700
     60 H212        1.2170   -1.1880   12.8530 hc        1 THT      0.038700
     61 H221        0.5380   -0.2530   15.0640 hc        1 THT      0.032700
     62 H222       -0.6770    0.8230   14.2590 hc        1 THT      0.032700
     63 H223       -0.8910   -0.9740   14.2140 hc        1 THT      0.032700
@<TRIPOS>BOND
     1    1    2 1   
     2    1   25 1   
     3    1   26 1   
     4    1   27 1   
     5    2    3 2   
     6    2    4 1   
     7    4    5 1   
     8    4   28 1   
     9    5    6 1   
    10    5   29 1   
    11    5   30 1   
    12    6    7 1   
    13    6   31 1   
    14    6   32 1   
    15    7    8 1   
    16    8    9 2   
    17    8   10 1   
    18   10   11 1   
    19   10   33 1   
    20   10   34 1   
    21   11   12 1   
    22   11   35 1   
    23   11   36 1   
    24   12   13 1   
    25   12   37 1   
    26   12   38 1   
    27   13   14 1   
    28   13   39 1   
    29   13   40 1   
    30   14   15 1   
    31   14   41 1   
    32   14   42 1   
    33   15   16 1   
    34   15   43 1   
    35   15   44 1   
    36   16   17 1   
    37   16   45 1   
    38   16   46 1   
    39   17   18 1   
    40   17   47 1   
    41   17   48 1   
    42   18   19 1   
    43   18   49 1   
    44   18   50 1   
    45   19   20 1   
    46   19   51 1   
    47   19   52 1   
    48   20   21 1   
    49   20   53 1   
    50   20   54 1   
    51   21   22 1   
    52   21   55 1   
    53   21   56 1   
    54   22   23 1   
    55   22   57 1   
    56   22   58 1   
    57   23   24 1   
    58   23   59 1   
    59   23   60 1   
    60   24   61 1   
    61   24   62 1   
    62   24   63 1   
@<TRIPOS>SUBSTRUCTURE
     1 THT         1 TEMP              0 ****  ****    0 ROOT
