@<TRIPOS>MOLECULE
THT
   64    63     1     0     0
SMALL
bcc


@<TRIPOS>ATOM
      1 C1          2.0770    0.6320    0.7260 c3        1 THT     -0.187100
      2 C2          2.0260    1.1980   -0.6490 c         1 THT      0.552100
      3 O2          1.9300    2.3610   -0.9990 o         1 THT     -0.385100
      4 N3          2.0790    0.1870   -1.7860 ny        1 THT     -0.688800
      5 C4          3.4910   -0.1880   -2.1130 c3        1 THT      0.107800
      6 C5          3.5860   -1.2110   -3.2300 c3        1 THT     -0.080300
      7 S6          5.2720   -1.5440   -3.6000 ss        1 THT     -0.197700
      8 C7          5.8090   -0.1160   -4.4450 c         1 THT      0.590700
      9 O7          5.1280    0.9030   -4.5790 o         1 THT     -0.529100
     10 C8          7.2040   -0.3100   -4.9400 c3        1 THT     -0.168400
     11 C9          7.2790   -0.1330   -6.4450 c3        1 THT     -0.073400
     12 C10         8.7130   -0.2320   -6.9210 c3        1 THT     -0.079400
     13 C11         8.7970   -0.0720   -8.4240 c3        1 THT     -0.079400
     14 C12        10.2290   -0.1680   -8.9030 c3        1 THT     -0.079400
     15 C13        10.3150   -0.0090  -10.4060 c3        1 THT     -0.079400
     16 C14        11.7470   -0.1060  -10.8870 c3        1 THT     -0.079400
     17 C15        11.8330    0.0520  -12.3900 c3        1 THT     -0.079400
     18 C16        13.2650   -0.0450  -12.8710 c3        1 THT     -0.079400
     19 C17        13.3520    0.1130  -14.3740 c3        1 THT     -0.079400
     20 C18        14.7840    0.0150  -14.8550 c3        1 THT     -0.079400
     21 C19        14.8700    0.1730  -16.3570 c3        1 THT     -0.079400
     22 C20        16.3020    0.0760  -16.8380 c3        1 THT     -0.079400
     23 C21        16.3900    0.2340  -18.3420 c3        1 THT     -0.080400
     24 C22        17.8140    0.1370  -18.8250 c3        1 THT     -0.093100
     25 HC11        2.1880    1.4800    1.4550 hc        1 THT      0.116367
     26 HC12        1.1240    0.0880    0.9560 hc        1 THT      0.116367
     27 HC13        2.9410   -0.0680    0.8530 hc        1 THT      0.116367
     28 HN31        1.5530   -0.6510   -1.5270 hn        1 THT      0.458800
     29 HC41        3.9700   -0.5900   -1.1740 hx        1 THT      0.121200
     30 HC42        4.0250    0.7620   -2.4270 hx        1 THT      0.121200
     31 HC51        3.0620   -0.8410   -4.1490 h1        1 THT      0.107200
     32 HC52        3.1330   -2.1920   -2.9340 h1        1 THT      0.107200
     33 HC81        7.5800   -1.3310   -4.6550 hc        1 THT      0.088200
     34 HC82        7.8630    0.4520   -4.4370 hc        1 THT      0.088200
     35 HC91        6.6590   -0.9190   -6.9510 hc        1 THT      0.057700
     36 HC92        6.8520    0.8670   -6.7240 hc        1 THT      0.057700
     37 H101        9.3320    0.5600   -6.4230 hc        1 THT      0.046200
     38 H102        9.1430   -1.2250   -6.6230 hc        1 THT      0.046200
     39 H111        8.3660    0.9200   -8.7220 hc        1 THT      0.043700
     40 H112        8.1800   -0.8650   -8.9230 hc        1 THT      0.043700
     41 H121       10.8470    0.6260   -8.4060 hc        1 THT      0.042200
     42 H122       10.6620   -1.1590   -8.6050 hc        1 THT      0.042200
     43 H131        9.6970   -0.8020  -10.9050 hc        1 THT      0.041200
     44 H132        9.8840    0.9820  -10.7060 hc        1 THT      0.041200
     45 H141       12.3650    0.6870  -10.3890 hc        1 THT      0.040700
     46 H142       12.1790   -1.0970  -10.5880 hc        1 THT      0.040700
     47 H151       11.2150   -0.7410  -12.8880 hc        1 THT      0.040200
     48 H152       11.4020    1.0440  -12.6890 hc        1 THT      0.040200
     49 H161       13.8840    0.7480  -12.3730 hc        1 THT      0.040200
     50 H162       13.6960   -1.0370  -12.5720 hc        1 THT      0.040200
     51 H171       12.7330   -0.6800  -14.8720 hc        1 THT      0.039700
     52 H172       12.9210    1.1050  -14.6730 hc        1 THT      0.039700
     53 H181       15.2140   -0.9770  -14.5550 hc        1 THT      0.039700
     54 H182       15.4020    0.8080  -14.3570 hc        1 THT      0.039700
     55 H191       14.4400    1.1650  -16.6570 hc        1 THT      0.039700
     56 H192       14.2510   -0.6190  -16.8550 hc        1 THT      0.039700
     57 H201       16.7330   -0.9160  -16.5400 hc        1 THT      0.039700
     58 H202       16.9210    0.8680  -16.3410 hc        1 THT      0.039700
     59 H211       15.9580    1.2260  -18.6390 hc        1 THT      0.038700
     60 H212       15.7690   -0.5590  -18.8370 hc        1 THT      0.038700
     61 H221       18.2550   -0.8550  -18.5600 hc        1 THT      0.033367
     62 H222       17.8560    0.2560  -19.9340 hc        1 THT      0.033367
     63 H223       18.4440    0.9340  -18.3600 hc        1 THT      0.033367
     64 H32         1.6480    0.5980   -2.6260 hn        1 THT      0.458800
@<TRIPOS>BOND
     1    1    2 1   
     2    1   25 1   
     3    1   26 1   
     4    1   27 1   
     5    2    3 2   
     6    2    4 1   
     7    4    5 1   
     8    4   28 1   
     9    4   64 1   
    10    5    6 1   
    11    5   29 1   
    12    5   30 1   
    13    6    7 1   
    14    6   31 1   
    15    6   32 1   
    16    7    8 1   
    17    8    9 2   
    18    8   10 1   
    19   10   11 1   
    20   10   33 1   
    21   10   34 1   
    22   11   12 1   
    23   11   35 1   
    24   11   36 1   
    25   12   13 1   
    26   12   37 1   
    27   12   38 1   
    28   13   14 1   
    29   13   39 1   
    30   13   40 1   
    31   14   15 1   
    32   14   41 1   
    33   14   42 1   
    34   15   16 1   
    35   15   43 1   
    36   15   44 1   
    37   16   17 1   
    38   16   45 1   
    39   16   46 1   
    40   17   18 1   
    41   17   47 1   
    42   17   48 1   
    43   18   19 1   
    44   18   49 1   
    45   18   50 1   
    46   19   20 1   
    47   19   51 1   
    48   19   52 1   
    49   20   21 1   
    50   20   53 1   
    51   20   54 1   
    52   21   22 1   
    53   21   55 1   
    54   21   56 1   
    55   22   23 1   
    56   22   57 1   
    57   22   58 1   
    58   23   24 1   
    59   23   59 1   
    60   23   60 1   
    61   24   61 1   
    62   24   62 1   
    63   24   63 1   
@<TRIPOS>SUBSTRUCTURE
     1 THT         1 TEMP              0 ****  ****    0 ROOT
