@<TRIPOS>MOLECULE
THT
   64    63     1     0     0
SMALL
bcc


@<TRIPOS>ATOM
      1 C1          2.0880    0.6300    0.7330 c3        1 THT     -0.187100
      2 C2          2.0450    1.2100   -0.6370 c         1 THT      0.552100
      3 O2          1.9660    2.3780   -0.9750 o         1 THT     -0.385100
      4 N3          2.0830    0.2100   -1.7840 n4        1 THT     -0.688800
      5 C4          3.4900   -0.1830   -2.1150 c3        1 THT      0.107800
      6 C5          3.5690   -1.1960   -3.2410 c3        1 THT     -0.080300
      7 S6          5.2500   -1.5500   -3.6160 ss        1 THT     -0.197700
      8 C7          5.8080   -0.1210   -4.4460 c         1 THT      0.590700
      9 O7          5.1420    0.9090   -4.5690 o         1 THT     -0.529100
     10 C8          7.2000   -0.3310   -4.9430 c3        1 THT     -0.168400
     11 C9          7.2770   -0.1380   -6.4470 c3        1 THT     -0.073400
     12 C10         8.7100   -0.2520   -6.9230 c3        1 THT     -0.079400
     13 C11         8.7960   -0.0750   -8.4250 c3        1 THT     -0.079400
     14 C12        10.2270   -0.1850   -8.9060 c3        1 THT     -0.079400
     15 C13        10.3150   -0.0100  -10.4070 c3        1 THT     -0.079400
     16 C14        11.7450   -0.1200  -10.8880 c3        1 THT     -0.079400
     17 C15        11.8340    0.0550  -12.3890 c3        1 THT     -0.079400
     18 C16        13.2640   -0.0540  -12.8710 c3        1 THT     -0.079400
     19 C17        13.3530    0.1210  -14.3720 c3        1 THT     -0.079400
     20 C18        14.7830    0.0110  -14.8550 c3        1 THT     -0.079400
     21 C19        14.8720    0.1860  -16.3560 c3        1 THT     -0.079400
     22 C20        16.3020    0.0760  -16.8380 c3        1 THT     -0.079400
     23 C21        16.3920    0.2510  -18.3390 c3        1 THT     -0.080400
     24 C22        17.8150    0.1420  -18.8240 c3        1 THT     -0.093100
     25 HC11        2.2120    1.4690    1.4700 hc        1 THT      0.116367
     26 HC12        1.1270    0.0980    0.9580 hc        1 THT      0.116367
     27 HC13        2.9410   -0.0840    0.8530 hc        1 THT      0.116367
     28 HN31        1.5450   -0.6240   -1.5320 hn        1 THT      0.458800
     29 HC41        3.9620   -0.6020   -1.1790 hx        1 THT      0.121200
     30 HC42        4.0370    0.7620   -2.4190 hx        1 THT      0.121200
     31 HC51        3.0500   -0.8090   -4.1570 h1        1 THT      0.107200
     32 HC52        3.1020   -2.1730   -2.9550 h1        1 THT      0.107200
     33 HC81        7.5610   -1.3600   -4.6700 hc        1 THT      0.088200
     34 HC82        7.8700    0.4150   -4.4320 hc        1 THT      0.088200
     35 HC91        6.6460   -0.9080   -6.9610 hc        1 THT      0.057700
     36 HC92        6.8650    0.8710   -6.7140 hc        1 THT      0.057700
     37 H101        9.3400    0.5260   -6.4170 hc        1 THT      0.046200
     38 H102        9.1250   -1.2550   -6.6380 hc        1 THT      0.046200
     39 H111        8.3790    0.9260   -8.7100 hc        1 THT      0.043700
     40 H112        8.1680   -0.8540   -8.9330 hc        1 THT      0.043700
     41 H121       10.8560    0.5940   -8.3990 hc        1 THT      0.042200
     42 H122       10.6450   -1.1860   -8.6190 hc        1 THT      0.042200
     43 H131        9.6860   -0.7880  -10.9140 hc        1 THT      0.041200
     44 H132        9.8970    0.9910  -10.6940 hc        1 THT      0.041200
     45 H141       12.3740    0.6590  -10.3820 hc        1 THT      0.040700
     46 H142       12.1640   -1.1210  -10.6010 hc        1 THT      0.040700
     47 H151       11.2050   -0.7230  -12.8970 hc        1 THT      0.040200
     48 H152       11.4160    1.0560  -12.6770 hc        1 THT      0.040200
     49 H161       13.8930    0.7240  -12.3640 hc        1 THT      0.040200
     50 H162       13.6820   -1.0550  -12.5840 hc        1 THT      0.040200
     51 H171       12.7240   -0.6580  -14.8800 hc        1 THT      0.039700
     52 H172       12.9350    1.1210  -14.6600 hc        1 THT      0.039700
     53 H181       15.2010   -0.9900  -14.5680 hc        1 THT      0.039700
     54 H182       15.4120    0.7890  -14.3480 hc        1 THT      0.039700
     55 H191       14.4540    1.1870  -16.6430 hc        1 THT      0.039700
     56 H192       14.2430   -0.5930  -16.8630 hc        1 THT      0.039700
     57 H201       16.7210   -0.9250  -16.5510 hc        1 THT      0.039700
     58 H202       16.9310    0.8550  -16.3310 hc        1 THT      0.039700
     59 H211       15.9720    1.2520  -18.6250 hc        1 THT      0.038700
     60 H212       15.7620   -0.5280  -18.8440 hc        1 THT      0.038700
     61 H221       18.2430   -0.8580  -18.5700 hc        1 THT      0.033367
     62 H222       17.8590    0.2740  -19.9320 hc        1 THT      0.033367
     63 H223       18.4540    0.9260  -18.3500 hc        1 THT      0.033367
     64 H32         1.6580    0.6350   -2.6200 hn        1 THT      0.458800
@<TRIPOS>BOND
     1    1    2 1   
     2    1   25 1   
     3    1   26 1   
     4    1   27 1   
     5    2    3 2   
     6    2    4 1   
     7    4    5 1   
     8    4   28 1   
     9    4   64 1   
    10    5    6 1   
    11    5   29 1   
    12    5   30 1   
    13    6    7 1   
    14    6   31 1   
    15    6   32 1   
    16    7    8 1   
    17    8    9 2   
    18    8   10 1   
    19   10   11 1   
    20   10   33 1   
    21   10   34 1   
    22   11   12 1   
    23   11   35 1   
    24   11   36 1   
    25   12   13 1   
    26   12   37 1   
    27   12   38 1   
    28   13   14 1   
    29   13   39 1   
    30   13   40 1   
    31   14   15 1   
    32   14   41 1   
    33   14   42 1   
    34   15   16 1   
    35   15   43 1   
    36   15   44 1   
    37   16   17 1   
    38   16   45 1   
    39   16   46 1   
    40   17   18 1   
    41   17   47 1   
    42   17   48 1   
    43   18   19 1   
    44   18   49 1   
    45   18   50 1   
    46   19   20 1   
    47   19   51 1   
    48   19   52 1   
    49   20   21 1   
    50   20   53 1   
    51   20   54 1   
    52   21   22 1   
    53   21   55 1   
    54   21   56 1   
    55   22   23 1   
    56   22   57 1   
    57   22   58 1   
    58   23   24 1   
    59   23   59 1   
    60   23   60 1   
    61   24   61 1   
    62   24   62 1   
    63   24   63 1   
@<TRIPOS>SUBSTRUCTURE
     1 THT         1 TEMP              0 ****  ****    0 ROOT
