@<TRIPOS>MOLECULE
THT
   63    62     1     0     0
SMALL
bcc


@<TRIPOS>ATOM
      1 C1        -11.0210    7.1670    3.4050 c3        1 THT     -0.175100
      2 C2         -9.5270    7.1290    3.6400 c         1 THT      0.653100
      3 O2         -8.9830    8.0330    4.2430 o         1 THT     -0.603100
      4 N3         -8.7590    6.0400    3.1520 n         1 THT     -0.572900
      5 C4         -7.3520    6.0150    3.3540 c3        1 THT      0.097000
      6 C5         -6.7720    4.7760    2.7080 c3        1 THT     -0.063300
      7 S6         -5.0390    5.0160    2.4200 ss        1 THT     -0.238700
      8 C7         -4.3000    3.4770    1.9420 c         1 THT      0.573700
      9 O7         -4.6620    2.4410    2.4640 o         1 THT     -0.532100
     10 C8         -3.2210    3.4520    0.8820 c3        1 THT     -0.169400
     11 C9         -2.0880    2.5590    1.3360 c3        1 THT     -0.073400
     12 C10        -1.1660    2.2800    0.1690 c3        1 THT     -0.078400
     13 C11         0.0200    1.4700    0.6460 c3        1 THT     -0.079400
     14 C12         0.8470    1.0390   -0.5450 c3        1 THT     -0.079400
     15 C13         2.0230    0.2130   -0.0700 c3        1 THT     -0.079400
     16 C14         2.6790   -0.4580   -1.2560 c3        1 THT     -0.079400
     17 C15         3.7580   -1.4010   -0.7690 c3        1 THT     -0.079400
     18 C16         4.2660   -2.2280   -1.9290 c3        1 THT     -0.079400
     19 C17         5.1340   -3.3510   -1.4050 c3        1 THT     -0.079400
     20 C18         5.4210   -4.3300   -2.5230 c3        1 THT     -0.079400
     21 C19         6.1860   -5.5140   -1.9720 c3        1 THT     -0.079400
     22 C20         6.2210   -6.6170   -3.0070 c3        1 THT     -0.079400
     23 C21         6.8180   -7.8650   -2.3940 c3        1 THT     -0.080400
     24 C22         6.6130   -9.0340   -3.3310 c3        1 THT     -0.092100
     25 HC11      -11.4210    6.3260    3.7120 hc        1 THT      0.066367
     26 HC12      -11.4110    7.9150    3.9030 hc        1 THT      0.066367
     27 HC13      -11.1980    7.2830    2.4480 hc        1 THT      0.066367
     28 HN31       -9.1680    5.3580    2.7050 hn        1 THT      0.306500
     29 HC41       -7.1600    6.0030    4.3150 h1        1 THT      0.072700
     30 HC42       -6.9500    6.8120    2.9510 h1        1 THT      0.072700
     31 HC51       -6.9000    4.0080    3.3010 h1        1 THT      0.090200
     32 HC52       -7.2240    4.6100    1.8570 h1        1 THT      0.090200
     33 HC81       -2.8830    4.3590    0.7390 hc        1 THT      0.075200
     34 HC82       -3.5930    3.1080    0.0450 hc        1 THT      0.075200
     35 HC91       -2.4530    1.7160    1.6730 hc        1 THT      0.054700
     36 HC92       -1.5870    3.0040    2.0480 hc        1 THT      0.054700
     37 H101       -0.8530    3.1260   -0.2080 hc        1 THT      0.041200
     38 H102       -1.6510    1.7760   -0.5150 hc        1 THT      0.041200
     39 H111        0.5680    2.0160    1.2430 hc        1 THT      0.042200
     40 H112       -0.2970    0.6790    1.1260 hc        1 THT      0.042200
     41 H121        1.1740    1.8300   -1.0190 hc        1 THT      0.039700
     42 H122        0.2950    0.5030   -1.1490 hc        1 THT      0.039700
     43 H131        2.6710    0.7950    0.3750 hc        1 THT      0.040200
     44 H132        1.7100   -0.4680    0.5580 hc        1 THT      0.040200
     45 H141        3.0780    0.2210   -1.8370 hc        1 THT      0.039700
     46 H142        2.0080   -0.9630   -1.7580 hc        1 THT      0.039700
     47 H151        4.4960   -0.8830   -0.3890 hc        1 THT      0.039700
     48 H152        3.3880   -1.9930   -0.0840 hc        1 THT      0.039700
     49 H161        3.5080   -2.6040   -2.4190 hc        1 THT      0.039700
     50 H162        4.7930   -1.6620   -2.5280 hc        1 THT      0.039700
     51 H171        4.6680   -3.8120   -0.6790 hc        1 THT      0.039700
     52 H172        5.9760   -2.9830   -1.0700 hc        1 THT      0.039700
     53 H181        4.5780   -4.6390   -2.9100 hc        1 THT      0.039700
     54 H182        5.9550   -3.8890   -3.2130 hc        1 THT      0.039700
     55 H191        5.7440   -5.8400   -1.1630 hc        1 THT      0.039700
     56 H192        7.1000   -5.2400   -1.7570 hc        1 THT      0.039700
     57 H201        5.3110   -6.8070   -3.3120 hc        1 THT      0.039700
     58 H202        6.7680   -6.3340   -3.7670 hc        1 THT      0.039700
     59 H211        7.7750   -7.7290   -2.2450 hc        1 THT      0.038700
     60 H212        6.3780   -8.0500   -1.5400 hc        1 THT      0.038700
     61 H221        6.8700   -9.8650   -2.8780 hc        1 THT      0.032700
     62 H222        5.6700   -9.0830   -3.5920 hc        1 THT      0.032700
     63 H223        7.1670   -8.9130   -4.1300 hc        1 THT      0.032700
@<TRIPOS>BOND
     1    1    2 1   
     2    1   25 1   
     3    1   26 1   
     4    1   27 1   
     5    2    3 2   
     6    2    4 1   
     7    4    5 1   
     8    4   28 1   
     9    5    6 1   
    10    5   29 1   
    11    5   30 1   
    12    6    7 1   
    13    6   31 1   
    14    6   32 1   
    15    7    8 1   
    16    8    9 2   
    17    8   10 1   
    18   10   11 1   
    19   10   33 1   
    20   10   34 1   
    21   11   12 1   
    22   11   35 1   
    23   11   36 1   
    24   12   13 1   
    25   12   37 1   
    26   12   38 1   
    27   13   14 1   
    28   13   39 1   
    29   13   40 1   
    30   14   15 1   
    31   14   41 1   
    32   14   42 1   
    33   15   16 1   
    34   15   43 1   
    35   15   44 1   
    36   16   17 1   
    37   16   45 1   
    38   16   46 1   
    39   17   18 1   
    40   17   47 1   
    41   17   48 1   
    42   18   19 1   
    43   18   49 1   
    44   18   50 1   
    45   19   20 1   
    46   19   51 1   
    47   19   52 1   
    48   20   21 1   
    49   20   53 1   
    50   20   54 1   
    51   21   22 1   
    52   21   55 1   
    53   21   56 1   
    54   22   23 1   
    55   22   57 1   
    56   22   58 1   
    57   23   24 1   
    58   23   59 1   
    59   23   60 1   
    60   24   61 1   
    61   24   62 1   
    62   24   63 1   
@<TRIPOS>SUBSTRUCTURE
     1 THT         1 TEMP              0 ****  ****    0 ROOT
