@<TRIPOS>MOLECULE
THU
   30    31     1     0     0
SMALL
bcc


@<TRIPOS>ATOM
      1 N1          0.3900    0.1340   -0.3910 n         1 THU     -0.473800
      2 C2          1.3470   -0.8040    0.0560 c         1 THU      0.816500
      3 O2          2.0030   -1.5050   -0.7440 o         1 THU     -0.637500
      4 N3          1.6230   -0.9070    1.4360 n         1 THU     -0.597500
      5 C4          0.8100   -0.3510    2.4210 c         1 THU      0.706500
      6 O4          1.1160   -0.4770    3.6170 o         1 THU     -0.601500
      7 C5         -0.4400    0.3640    1.9640 c3        1 THU     -0.177400
      8 C6         -0.2780    0.9750    0.5760 c3        1 THU      0.086000
      9 C1'        -0.2410   -0.1140   -1.6780 c3        1 THU      0.302500
     10 C2'        -0.5210    1.1720   -2.4860 c3        1 THU     -0.148400
     11 C3'        -2.0450    1.3330   -2.5050 c3        1 THU      0.118100
     12 O3'        -2.5560    1.4150   -3.8230 oh        1 THU     -0.586800
     13 C4'        -2.6050    0.0640   -1.8310 c3        1 THU      0.097100
     14 O4'        -1.5000   -0.7950   -1.5170 os        1 THU     -0.441600
     15 C5'        -3.5680   -0.7340   -2.7110 c3        1 THU      0.141400
     16 O5'        -4.1400   -1.8000   -1.9850 oh        1 THU     -0.598800
     17 HN3         2.4160   -1.4540    1.6970 hn        1 THU      0.351500
     18 H51        -0.6820    1.1740    2.7010 hc        1 THU      0.093700
     19 H52        -1.2810   -0.3800    1.9770 hc        1 THU      0.093700
     20 H61        -1.2980    1.2500    0.1810 h1        1 THU      0.057200
     21 H62         0.3270    1.9250    0.6680 h1        1 THU      0.057200
     22 H1'         0.4140   -0.8370   -2.2550 h2        1 THU      0.125700
     23 H2'1       -0.1320    1.0320   -3.5260 hc        1 THU      0.076700
     24 H2'2       -0.0250    2.0690   -2.0450 hc        1 THU      0.076700
     25 H3'        -2.3590    2.2460   -1.9280 h1        1 THU      0.045700
     26 HO3'       -2.1750    2.2090   -4.2190 ho        1 THU      0.409000
     27 H4'        -3.1060    0.3280   -0.8590 h1        1 THU      0.062700
     28 H5'1       -3.0330   -1.1110   -3.6210 h1        1 THU      0.065700
     29 H5'2       -4.4290   -0.0820   -3.0170 h1        1 THU      0.065700
     30 HO5'       -3.4150   -2.3810   -1.7190 ho        1 THU      0.411000
@<TRIPOS>BOND
     1    1    2 1   
     2    1    8 1   
     3    1    9 1   
     4    2    3 2   
     5    2    4 1   
     6    4    5 1   
     7    4   17 1   
     8    5    6 2   
     9    5    7 1   
    10    7    8 1   
    11    7   18 1   
    12    7   19 1   
    13    8   20 1   
    14    8   21 1   
    15    9   10 1   
    16    9   14 1   
    17    9   22 1   
    18   10   11 1   
    19   10   23 1   
    20   10   24 1   
    21   11   12 1   
    22   11   13 1   
    23   11   25 1   
    24   12   26 1   
    25   13   14 1   
    26   13   15 1   
    27   13   27 1   
    28   15   16 1   
    29   15   28 1   
    30   15   29 1   
    31   16   30 1   
@<TRIPOS>SUBSTRUCTURE
     1 THU         1 TEMP              0 ****  ****    0 ROOT
