@<TRIPOS>MOLECULE
THU
   30    31     1     0     0
SMALL
bcc


@<TRIPOS>ATOM
      1 N1          0.3950    0.1900   -0.4070 n         1 THU     -0.473800
      2 C2          1.3950   -0.7110    0.0190 c         1 THU      0.816500
      3 O2          2.0730   -1.3740   -0.7960 o         1 THU     -0.637500
      4 N3          1.6910   -0.8170    1.3950 ns        1 THU     -0.597500
      5 C4          0.8650   -0.3070    2.3940 c         1 THU      0.706500
      6 O4          1.1890   -0.4340    3.5860 o         1 THU     -0.601500
      7 C5         -0.4190    0.3590    1.9580 c3        1 THU     -0.177400
      8 C6         -0.2980    0.9910    0.5750 c3        1 THU      0.086000
      9 C1'        -0.2380   -0.0700   -1.6910 c3        1 THU      0.302500
     10 C2'        -0.5820    1.2120   -2.4810 c3        1 THU     -0.148400
     11 C3'        -2.1110    1.3070   -2.4830 c3        1 THU      0.118100
     12 O3'        -2.6380    1.3830   -3.7950 oh        1 THU     -0.586800
     13 C4'        -2.6090    0.0090   -1.8190 c3        1 THU      0.097100
     14 O4'        -1.4660   -0.8060   -1.5260 os        1 THU     -0.441600
     15 C5'        -3.5470   -0.8200   -2.6980 c3        1 THU      0.141400
     16 O5'        -4.0640   -1.9170   -1.9790 oh        1 THU     -0.598800
     17 HN3         2.5090   -1.3320    1.6410 hn        1 THU      0.351500
     18 H51        -1.2270   -0.4210    1.9710 hc        1 THU      0.093700
     19 H52        -0.6880    1.1490    2.7070 hc        1 THU      0.093700
     20 H61        -1.3330    1.2260    0.1940 h1        1 THU      0.057200
     21 H62         0.2660    1.9650    0.6720 h1        1 THU      0.057200
     22 H1'         0.4410   -0.7570   -2.2820 h2        1 THU      0.125700
     23 H2'1       -0.1970    1.1010   -3.5260 hc        1 THU      0.076700
     24 H2'2       -0.1200    2.1250   -2.0340 hc        1 THU      0.076700
     25 H3'        -2.4570    2.2000   -1.8920 h1        1 THU      0.045700
     26 HO3'       -2.2960    2.1960   -4.1850 ho        1 THU      0.409000
     27 H4'        -3.1110    0.2400   -0.8390 h1        1 THU      0.062700
     28 H5'1       -4.4370   -0.2020   -2.9880 h1        1 THU      0.065700
     29 H5'2       -3.0050   -1.1630   -3.6180 h1        1 THU      0.065700
     30 HO5'       -3.3130   -2.4700   -1.7270 ho        1 THU      0.411000
@<TRIPOS>BOND
     1    1    2 1   
     2    1    8 1   
     3    1    9 1   
     4    2    3 2   
     5    2    4 1   
     6    4    5 1   
     7    4   17 1   
     8    5    6 2   
     9    5    7 1   
    10    7    8 1   
    11    7   18 1   
    12    7   19 1   
    13    8   20 1   
    14    8   21 1   
    15    9   10 1   
    16    9   14 1   
    17    9   22 1   
    18   10   11 1   
    19   10   23 1   
    20   10   24 1   
    21   11   12 1   
    22   11   13 1   
    23   11   25 1   
    24   12   26 1   
    25   13   14 1   
    26   13   15 1   
    27   13   27 1   
    28   15   16 1   
    29   15   28 1   
    30   15   29 1   
    31   16   30 1   
@<TRIPOS>SUBSTRUCTURE
     1 THU         1 TEMP              0 ****  ****    0 ROOT
