@<TRIPOS>MOLECULE
THU
   30    31     1     0     0
SMALL
bcc


@<TRIPOS>ATOM
      1 N1         -0.9100   -0.5920   -0.0350 n         1 THU     -0.473800
      2 C2         -1.9340   -0.7380   -0.9970 c         1 THU      0.816500
      3 O2         -1.8450   -1.5620   -1.9330 o         1 THU     -0.637500
      4 N3         -3.1200    0.0140   -0.8630 n         1 THU     -0.597500
      5 C4         -3.2400    1.1070   -0.0070 c         1 THU      0.706500
      6 O4         -4.3160    1.7210    0.0630 o         1 THU     -0.601500
      7 C5         -2.0140    1.5050    0.7800 c3        1 THU     -0.177400
      8 C6         -1.1050    0.3160    1.0710 c3        1 THU      0.086000
      9 C1'         0.4420   -0.9470   -0.4370 c3        1 THU      0.302500
     10 C2'         1.2700   -1.6040    0.6890 c3        1 THU     -0.148400
     11 C3'         2.3490   -0.5840    1.0670 c3        1 THU      0.118100
     12 O3'         3.6530   -1.1250    0.9600 oh        1 THU     -0.586800
     13 C4'         2.2030    0.5700    0.0550 c3        1 THU      0.097100
     14 O4'         1.1750    0.2130   -0.8780 os        1 THU     -0.441600
     15 C5'         3.4710    0.8560   -0.7500 c3        1 THU      0.141400
     16 O5'         3.3040    2.0030   -1.5530 oh        1 THU     -0.598800
     17 HN3        -3.8810   -0.2360   -1.4580 hn        1 THU      0.351500
     18 H51        -2.3410    1.9690    1.7470 hc        1 THU      0.093700
     19 H52        -1.4690    2.2880    0.1870 hc        1 THU      0.093700
     20 H61        -1.5520   -0.2810    1.9200 h1        1 THU      0.057200
     21 H62        -0.1010    0.7020    1.4110 h1        1 THU      0.057200
     22 H1'         0.3720   -1.6150   -1.3490 h2        1 THU      0.125700
     23 H2'1        0.6450   -1.8790    1.5720 hc        1 THU      0.076700
     24 H2'2        1.7390   -2.5380    0.2890 hc        1 THU      0.076700
     25 H3'         2.1910   -0.2020    2.1130 h1        1 THU      0.045700
     26 HO3'        3.7060   -1.8510    1.5940 ho        1 THU      0.409000
     27 H4'         1.8650    1.5060    0.5790 h1        1 THU      0.062700
     28 H5'1        3.7370   -0.0360   -1.3750 h1        1 THU      0.065700
     29 H5'2        4.3160    1.0970   -0.0510 h1        1 THU      0.065700
     30 HO5'        2.5860    1.8140   -2.1710 ho        1 THU      0.411000
@<TRIPOS>BOND
     1    1    2 1   
     2    1    8 1   
     3    1    9 1   
     4    2    3 2   
     5    2    4 1   
     6    4    5 1   
     7    4   17 1   
     8    5    6 2   
     9    5    7 1   
    10    7    8 1   
    11    7   18 1   
    12    7   19 1   
    13    8   20 1   
    14    8   21 1   
    15    9   10 1   
    16    9   14 1   
    17    9   22 1   
    18   10   11 1   
    19   10   23 1   
    20   10   24 1   
    21   11   12 1   
    22   11   13 1   
    23   11   25 1   
    24   12   26 1   
    25   13   14 1   
    26   13   15 1   
    27   13   27 1   
    28   15   16 1   
    29   15   28 1   
    30   15   29 1   
    31   16   30 1   
@<TRIPOS>SUBSTRUCTURE
     1 THU         1 TEMP              0 ****  ****    0 ROOT
