@<TRIPOS>MOLECULE
THU
   30    31     1     0     0
SMALL
bcc


@<TRIPOS>ATOM
      1 N1          0.3940    0.1430   -0.4000 n         1 THU     -0.473800
      2 C2          1.3540   -0.7890    0.0520 c         1 THU      0.816500
      3 O2          2.0070   -1.4980   -0.7440 o         1 THU     -0.637500
      4 N3          1.6380   -0.8760    1.4310 n         1 THU     -0.597500
      5 C4          0.8290   -0.3090    2.4140 c         1 THU      0.706500
      6 O4          1.1420   -0.4210    3.6100 o         1 THU     -0.601500
      7 C5         -0.4240    0.3990    1.9560 c3        1 THU     -0.177400
      8 C6         -0.2700    0.9940    0.5600 c3        1 THU      0.086000
      9 C1'        -0.2430   -0.1200   -1.6810 c3        1 THU      0.302500
     10 C2'        -0.5290    1.1560   -2.5030 c3        1 THU     -0.148400
     11 C3'        -2.0530    1.3160   -2.5160 c3        1 THU      0.118100
     12 O3'        -2.5700    1.3830   -3.8320 oh        1 THU     -0.586800
     13 C4'        -2.6080    0.0550   -1.8250 c3        1 THU      0.097100
     14 O4'        -1.5020   -0.8000   -1.5060 os        1 THU     -0.441600
     15 C5'        -3.5750   -0.7540   -2.6910 c3        1 THU      0.141400
     16 O5'        -4.1430   -1.8120   -1.9500 oh        1 THU     -0.598800
     17 HN3         2.4330   -1.4180    1.6940 hn        1 THU      0.351500
     18 H51        -0.6630    1.2170    2.6850 hc        1 THU      0.093700
     19 H52        -1.2640   -0.3460    1.9820 hc        1 THU      0.093700
     20 H61         0.3340    1.9460    0.6380 h1        1 THU      0.057200
     21 H62        -1.2930    1.2630    0.1670 h1        1 THU      0.057200
     22 H1'         0.4080   -0.8490   -2.2530 h2        1 THU      0.125700
     23 H2'1       -0.1440    1.0050   -3.5430 hc        1 THU      0.076700
     24 H2'2       -0.0310    2.0590   -2.0750 hc        1 THU      0.076700
     25 H3'        -2.3640    2.2360   -1.9480 h1        1 THU      0.045700
     26 HO3'       -2.1920    2.1720   -4.2390 ho        1 THU      0.409000
     27 H4'        -3.1050    0.3300   -0.8540 h1        1 THU      0.062700
     28 H5'1       -3.0430   -1.1410   -3.5990 h1        1 THU      0.065700
     29 H5'2       -4.4380   -0.1060   -3.0010 h1        1 THU      0.065700
     30 HO5'       -3.4170   -2.3890   -1.6810 ho        1 THU      0.411000
@<TRIPOS>BOND
     1    1    2 1   
     2    1    8 1   
     3    1    9 1   
     4    2    3 2   
     5    2    4 1   
     6    4    5 1   
     7    4   17 1   
     8    5    6 2   
     9    5    7 1   
    10    7    8 1   
    11    7   18 1   
    12    7   19 1   
    13    8   20 1   
    14    8   21 1   
    15    9   10 1   
    16    9   14 1   
    17    9   22 1   
    18   10   11 1   
    19   10   23 1   
    20   10   24 1   
    21   11   12 1   
    22   11   13 1   
    23   11   25 1   
    24   12   26 1   
    25   13   14 1   
    26   13   15 1   
    27   13   27 1   
    28   15   16 1   
    29   15   28 1   
    30   15   29 1   
    31   16   30 1   
@<TRIPOS>SUBSTRUCTURE
     1 THU         1 TEMP              0 ****  ****    0 ROOT
