@<TRIPOS>MOLECULE
THV
   54    55     1     0     0
SMALL
bcc


@<TRIPOS>ATOM
      1 O2B         0.0000    0.0000    0.0000 o         1 THV     -0.609833
      2 PB          1.6110    0.0000    0.0000 p5        1 THV      0.804900
      3 O3B         2.1470    0.0000    1.5180 o         1 THV     -0.609833
      4 O1B         2.1040    1.2080   -0.6970 o         1 THV     -0.609833
      5 O3A         2.1470   -1.3140   -0.7590 os        1 THV     -0.469800
      6 PA          3.7050   -1.0650   -1.0760 p5        1 THV      0.886800
      7 O1A         3.8460   -0.0300   -2.3000 o         1 THV     -0.676500
      8 O2A         4.3700   -0.5050    0.1230 o         1 THV     -0.676500
      9 O5G         4.4030   -2.4620   -1.4710 os        1 THV     -0.487200
     10 C5B         5.7990   -2.1970   -1.6240 c3        1 THV      0.244400
     11 C5A         6.5240   -3.4900   -2.0020 c3        1 THV      0.054800
     12 C5          7.9960   -3.2120   -2.1630 cc        1 THV      0.020400
     13 C4          8.9610   -3.2690   -1.2470 cd        1 THV     -0.125200
     14 C4A         8.6260   -3.6530    0.1710 c3        1 THV      0.041100
     15 S1          8.8890   -2.7240   -3.6300 ss        1 THV     -0.384200
     16 C2         10.5190   -2.6270   -2.9080 cc        1 THV      0.117600
     17 C8         11.6830   -2.3030   -3.4810 c2        1 THV     -0.188100
     18 O9         12.5160   -1.4110   -2.8760 oh        1 THV     -0.489100
     19 C9         12.0730   -2.9250   -4.7980 c3        1 THV      0.050500
     20 C10        11.0280   -2.5720   -5.8580 c3        1 THV     -0.010600
     21 C11        13.4390   -2.3880   -5.2300 c3        1 THV     -0.010600
     22 N3         10.2540   -2.9840   -1.5870 na        1 THV     -0.050200
     23 C35        11.3270   -3.0410   -0.5910 c3        1 THV      0.216100
     24 C5'        11.8040   -4.4630   -0.4480 ca        1 THV     -0.499900
     25 C6'        11.2280   -5.3120    0.4760 ca        1 THV      0.407200
     26 N1'        11.6740   -6.5580    0.5750 nb        1 THV     -0.653000
     27 C2'        12.6530   -6.9910   -0.1920 ca        1 THV      0.448300
     28 C2A        13.1250   -8.4150   -0.0430 c3        1 THV      0.003600
     29 N3'        13.2300   -6.2160   -1.0870 nb        1 THV     -0.689000
     30 C4'        12.8350   -4.9570   -1.2490 ca        1 THV      0.526200
     31 N4'        13.4450   -4.1440   -2.1910 nv        1 THV     -0.608500
     32 H5B1        6.1990   -1.8180   -0.6910 h1        1 THV      0.011700
     33 H5B2        5.9440   -1.4600   -2.4050 h1        1 THV      0.011700
     34 H5A1        6.1250   -3.8690   -2.9350 hc        1 THV      0.009700
     35 H5A2        6.3790   -4.2280   -1.2220 hc        1 THV      0.009700
     36 H4A1        9.2670   -3.1090    0.8540 hc        1 THV      0.022700
     37 H4A2        8.7800   -4.7170    0.3030 hc        1 THV      0.022700
     38 H4A3        7.5900   -3.4100    0.3760 hc        1 THV      0.022700
     39 H9         12.2890   -0.5370   -3.1460 ho        1 THV      0.361000
     40 HA         12.1270   -4.0010   -4.6880 hc        1 THV      0.019700
     41 H101       11.4880   -2.5880   -6.8390 hc        1 THV     -0.001133
     42 H102       10.2220   -3.2950   -5.8260 hc        1 THV     -0.001133
     43 H103       10.6330   -1.5830   -5.6610 hc        1 THV     -0.001133
     44 H111       13.3440   -1.3470   -5.5170 hc        1 THV     -0.001133
     45 H112       13.8040   -2.9630   -6.0730 hc        1 THV     -0.001133
     46 H113       14.1380   -2.4720   -4.4070 hc        1 THV     -0.001133
     47 H351       12.1500   -2.4140   -0.9110 h1        1 THV      0.033200
     48 H352       10.9530   -2.6870    0.3620 h1        1 THV      0.033200
     49 H6'        10.5530   -4.9180    1.2270 h4        1 THV     -0.021900
     50 H2A1       14.1990   -8.4270    0.0910 hc        1 THV     -0.013967
     51 H2A2       12.8650   -8.9760   -0.9320 hc        1 THV     -0.013967
     52 H2A3       12.6480   -8.8640    0.8200 hc        1 THV     -0.013967
     53 H4'1       13.8600   -3.2780   -1.9090 hn        1 THV      0.270800
     54 H4'2       13.5490   -4.4640   -3.1340 hn        1 THV      0.270800
@<TRIPOS>BOND
     1    1    2 1   
     2    2    3 1   
     3    2    4 1   
     4    2    5 1   
     5    5    6 1   
     6    6    7 1   
     7    6    8 1   
     8    6    9 1   
     9    9   10 1   
    10   10   11 1   
    11   10   32 1   
    12   10   33 1   
    13   11   12 1   
    14   11   34 1   
    15   11   35 1   
    16   12   13 2   
    17   12   15 1   
    18   13   14 1   
    19   13   22 1   
    20   14   36 1   
    21   14   37 1   
    22   14   38 1   
    23   15   16 1   
    24   16   17 2   
    25   16   22 1   
    26   17   18 1   
    27   17   19 1   
    28   18   39 1   
    29   19   20 1   
    30   19   21 1   
    31   19   40 1   
    32   20   41 1   
    33   20   42 1   
    34   20   43 1   
    35   21   44 1   
    36   21   45 1   
    37   21   46 1   
    38   22   23 1   
    39   23   24 1   
    40   23   47 1   
    41   23   48 1   
    42   24   25 ar  
    43   24   30 ar  
    44   25   26 ar  
    45   25   49 1   
    46   26   27 ar  
    47   27   28 1   
    48   27   29 ar  
    49   28   50 1   
    50   28   51 1   
    51   28   52 1   
    52   29   30 ar  
    53   30   31 1   
    54   31   53 1   
    55   31   54 1   
@<TRIPOS>SUBSTRUCTURE
     1 THV         1 TEMP              0 ****  ****    0 ROOT
