@<TRIPOS>MOLECULE
THW
   55    57     1     0     0
SMALL
bcc


@<TRIPOS>ATOM
      1 C10         0.0000    0.0000    0.0000 ca        1 THW     -0.110500
      2 C12         1.3810    0.0000    0.0000 ca        1 THW     -0.104000
      3 C14         2.0350    0.0000    1.2070 ca        1 THW     -0.163000
      4 C13         1.3200    0.0510    2.4040 ca        1 THW     -0.104000
      5 C11        -0.0610    0.0620    2.4400 ca        1 THW     -0.110500
      6 C9         -0.6900    0.0310    1.2100 ca        1 THW      0.031200
      7 C8         -2.1860    0.0350    1.1570 ce        1 THW     -0.155100
      8 O9         -2.6790    1.1910    1.7850 oh        1 THW     -0.482100
      9 C2         -3.0270   -1.0630    0.5460 cd        1 THW      0.050600
     10 S1         -2.6280   -2.5710   -0.1390 ss        1 THW     -0.158200
     11 C5         -4.2320   -3.1860   -0.4090 cc        1 THW      0.021400
     12 C5A        -4.5440   -4.6090   -0.9620 c3        1 THW      0.066800
     13 C5B        -4.0820   -4.8080   -2.3930 c3        1 THW      0.267400
     14 O5G        -4.4640   -6.1700   -2.6240 os        1 THW     -0.474200
     15 PA         -3.8130   -6.8220   -3.9370 p5        1 THW      0.979800
     16 O1A        -3.8320   -5.8970   -5.0470 o         1 THW     -0.718500
     17 O2A        -4.4610   -8.1670   -4.0910 o         1 THW     -0.718500
     18 O3A        -2.2470   -7.0990   -3.6170 os        1 THW     -0.486800
     19 PB         -1.5450   -8.0360   -2.4540 p5        1 THW      0.822900
     20 O1B        -0.2290   -8.4070   -3.0830 o         1 THW     -0.666500
     21 O2B        -1.2520   -7.1340   -1.2230 o         1 THW     -0.666500
     22 O3B        -2.4720   -9.2640   -2.3090 o         1 THW     -0.666500
     23 C4         -5.0340   -2.1350   -0.0160 cd        1 THW     -0.200200
     24 C4A        -6.5780   -2.1760   -0.0460 c3        1 THW      0.092100
     25 N3         -4.3970   -1.0550    0.4730 na        1 THW     -0.038200
     26 C35        -5.1340    0.1380    0.7800 c3        1 THW      0.205100
     27 C5'        -5.3650    0.9600   -0.6280 ca        1 THW     -0.387900
     28 C6'        -6.6910    1.2290   -1.0670 ca        1 THW      0.439200
     29 N1'        -6.9770    1.9230   -2.1980 nb        1 THW     -0.717000
     30 C2'        -6.0160    2.4550   -2.9810 ca        1 THW      0.521300
     31 C2A        -6.3610    3.2160   -4.2770 c3        1 THW      0.004600
     32 N3'        -4.7490    2.1980   -2.6860 nb        1 THW     -0.657000
     33 C4'        -4.4110    1.4780   -1.5600 ca        1 THW      0.500200
     34 N4'        -3.0870    1.4050   -1.3450 nv        1 THW     -0.644500
     35 H10        -0.5440   -0.0120   -0.9370 ha        1 THW      0.107000
     36 H12         1.9350   -0.0320   -0.9310 ha        1 THW      0.081000
     37 H14         3.1180   -0.0030    1.2290 ha        1 THW      0.080000
     38 H13         1.8670    0.0750    3.3380 ha        1 THW      0.081000
     39 H11        -0.6150    0.0940    3.3710 ha        1 THW      0.107000
     40 H9         -2.6740    1.0670    2.7190 ho        1 THW      0.345000
     41 H5A1       -4.0520   -5.3410   -0.3330 hc        1 THW      0.027200
     42 H5A2       -5.6140   -4.7730   -0.9160 hc        1 THW      0.027200
     43 H5B1       -4.6040   -4.1390   -3.0660 h1        1 THW     -0.007300
     44 H5B2       -3.0080   -4.6870   -2.4750 h1        1 THW     -0.007300
     45 H4A1       -6.9670   -1.8390    0.9070 hc        1 THW      0.005033
     46 H4A2       -6.9410   -1.5260   -0.8340 hc        1 THW      0.005033
     47 H4A3       -6.9090   -3.1900   -0.2330 hc        1 THW      0.005033
     48 H351       -4.5710    0.7500    1.4740 h1        1 THW      0.037700
     49 H352       -6.0920   -0.1230    1.2140 h1        1 THW      0.037700
     50 H6'        -7.5150    0.8300   -0.4870 h4        1 THW     -0.046900
     51 H2A1       -5.6450    4.0160   -4.4270 hc        1 THW     -0.005633
     52 H2A2       -6.3230    2.5340   -5.1170 hc        1 THW     -0.005633
     53 H2A3       -7.3570    3.6340   -4.1960 hc        1 THW     -0.005633
     54 H4'1       -2.5440    0.7020   -1.8060 hn        1 THW      0.280300
     55 H4'2       -2.6340    2.1000   -0.7850 hn        1 THW      0.280300
@<TRIPOS>BOND
     1    1    2 ar  
     2    1    6 ar  
     3    1   35 1   
     4    2    3 ar  
     5    2   36 1   
     6    3    4 ar  
     7    3   37 1   
     8    4    5 ar  
     9    4   38 1   
    10    5    6 ar  
    11    5   39 1   
    12    6    7 1   
    13    7    8 1   
    14    7    9 2   
    15    8   40 1   
    16    9   10 1   
    17    9   25 1   
    18   10   11 1   
    19   11   12 1   
    20   11   23 2   
    21   12   13 1   
    22   12   41 1   
    23   12   42 1   
    24   13   14 1   
    25   13   43 1   
    26   13   44 1   
    27   14   15 1   
    28   15   16 1   
    29   15   17 1   
    30   15   18 1   
    31   18   19 1   
    32   19   20 1   
    33   19   21 1   
    34   19   22 1   
    35   23   24 1   
    36   23   25 1   
    37   24   45 1   
    38   24   46 1   
    39   24   47 1   
    40   25   26 1   
    41   26   27 1   
    42   26   48 1   
    43   26   49 1   
    44   27   28 ar  
    45   27   33 ar  
    46   28   29 ar  
    47   28   50 1   
    48   29   30 ar  
    49   30   31 1   
    50   30   32 ar  
    51   31   51 1   
    52   31   52 1   
    53   31   53 1   
    54   32   33 ar  
    55   33   34 1   
    56   34   54 1   
    57   34   55 1   
@<TRIPOS>SUBSTRUCTURE
     1 THW         1 TEMP              0 ****  ****    0 ROOT
