@<TRIPOS>MOLECULE
THW
   55    57     1     0     0
SMALL
bcc


@<TRIPOS>ATOM
      1 C10        -0.0990    0.2880    0.6090 ca        1 THW     -0.243000
      2 C12         1.1600    0.8560    0.6360 ca        1 THW     -0.091500
      3 C14         1.5380    1.7320    1.6600 ca        1 THW     -0.291000
      4 C13         0.6180    2.0190    2.6700 ca        1 THW     -0.091500
      5 C11        -0.6480    1.4620    2.6600 ca        1 THW     -0.243000
      6 C9         -1.0590    0.5780    1.6210 ca        1 THW      0.090200
      7 C8         -2.3670    0.0700    1.5830 ce        1 THW     -0.250100
      8 O9         -3.2370    0.4490    2.6070 oh        1 THW     -0.535100
      9 C2         -2.8460   -0.9570    0.7020 cd        1 THW     -0.051500
     10 S1         -1.9620   -2.3870    0.3550 ss        1 THW     -0.195200
     11 C5         -3.2600   -3.1200   -0.5620 cc        1 THW     -0.028000
     12 C5A        -3.1160   -4.3670   -1.0400 c2        1 THW     -0.216200
     13 C5B        -4.0670   -5.1630   -1.8590 c3        1 THW      0.223600
     14 O5G        -3.5600   -6.4440   -2.0970 os        1 THW     -0.580200
     15 PA         -4.6390   -7.3440   -3.0020 p5        1 THW      1.593800
     16 O1A        -4.6530   -6.7070   -4.3380 o         1 THW     -0.892500
     17 O2A        -5.8630   -7.4630   -2.1810 o         1 THW     -0.892500
     18 O3A        -3.8500   -8.7590   -3.1040 os        1 THW     -0.826800
     19 PB         -3.1880  -10.2520   -3.2430 p5        1 THW      1.596800
     20 O1B        -4.0990  -11.1330   -4.0060 o         1 THW     -0.890500
     21 O2B        -1.9990   -9.7940   -4.2820 oh        1 THW     -0.810400
     22 O3B        -2.5460  -10.7100   -1.9940 o         1 THW     -0.890500
     23 C4         -4.3300   -2.1470   -0.6170 cc        1 THW     -0.086400
     24 C4A        -5.6230   -2.3730   -1.2830 c3        1 THW     -0.069400
     25 N3         -4.0530   -0.9720    0.0680 na        1 THW      0.030700
     26 C35        -5.0670    0.0530    0.2510 c3        1 THW      0.070600
     27 C5'        -5.2040    1.0480   -0.8580 ca        1 THW     -0.385900
     28 C6'        -6.3070    0.9990   -1.7170 ca        1 THW      0.465200
     29 N1'        -6.5300    1.8810   -2.7140 nb        1 THW     -0.777000
     30 C2'        -5.5720    2.8460   -2.8790 ca        1 THW      0.668300
     31 C2A        -5.7680    3.8080   -4.0290 c3        1 THW     -0.126400
     32 N3'        -4.4580    3.0130   -2.1200 nb        1 THW     -0.807000
     33 C4'        -4.2640    2.1230   -1.0740 ca        1 THW      0.715200
     34 N4'        -3.2240    2.3370   -0.2110 nh        1 THW     -0.939500
     35 H10        -0.3790   -0.4160   -0.1900 ha        1 THW      0.124500
     36 H12         1.8820    0.6130   -0.1570 ha        1 THW      0.082500
     37 H14         2.5390    2.1770    1.6720 ha        1 THW      0.084000
     38 H13         0.9060    2.6990    3.4860 ha        1 THW      0.082500
     39 H11        -1.3680    1.6970    3.4560 ha        1 THW      0.124500
     40 H9         -3.1330   -0.2170    3.3040 ho        1 THW      0.354000
     41 H5A1       -2.1820   -8.9760   -4.7240 ho        1 THW      0.424000
     42 H5A2       -2.1820   -4.9130   -0.8160 ha        1 THW      0.132000
     43 H5B1       -5.0570   -5.2710   -1.3240 h1        1 THW      0.024200
     44 H5B2       -4.2470   -4.6650   -2.8570 h1        1 THW      0.024200
     45 H4A1       -5.8730   -1.5360   -1.9850 hc        1 THW      0.025033
     46 H4A2       -5.5890   -3.3190   -1.8760 hc        1 THW      0.025033
     47 H4A3       -6.4600   -2.4580   -0.5400 hc        1 THW      0.025033
     48 H351       -4.8480    0.6030    1.2140 h1        1 THW      0.078700
     49 H352       -6.0600   -0.4730    0.3780 h1        1 THW      0.078700
     50 H6'        -7.0680    0.2030   -1.6080 h4        1 THW      0.023100
     51 H2A1       -5.0690    4.6760   -3.9580 hc        1 THW      0.043367
     52 H2A2       -5.5750    3.2670   -4.9870 hc        1 THW      0.043367
     53 H2A3       -6.8170    4.1900   -4.0350 hc        1 THW      0.043367
     54 H4'1       -2.5010    2.9610   -0.4810 hn        1 THW      0.457300
     55 H4'2       -2.9700    1.6000    0.4350 hn        1 THW      0.457300
@<TRIPOS>BOND
     1    1    2 ar  
     2    1    6 ar  
     3    1   35 1   
     4    2    3 ar  
     5    2   36 1   
     6    3    4 ar  
     7    3   37 1   
     8    4    5 ar  
     9    4   38 1   
    10    5    6 ar  
    11    5   39 1   
    12    6    7 1   
    13    7    8 1   
    14    7    9 2   
    15    8   40 1   
    16    9   10 1   
    17    9   25 1   
    18   10   11 1   
    19   11   12 2   
    20   11   23 1   
    21   12   13 1   
    22   12   42 1   
    23   13   14 1   
    24   13   43 1   
    25   13   44 1   
    26   14   15 1   
    27   15   16 1   
    28   15   17 1   
    29   15   18 1   
    30   18   19 1   
    31   19   20 1   
    32   19   21 1   
    33   19   22 1   
    34   21   41 1   
    35   23   24 1   
    36   23   25 2   
    37   24   45 1   
    38   24   46 1   
    39   24   47 1   
    40   25   26 1   
    41   26   27 1   
    42   26   48 1   
    43   26   49 1   
    44   27   28 ar  
    45   27   33 ar  
    46   28   29 ar  
    47   28   50 1   
    48   29   30 ar  
    49   30   31 1   
    50   30   32 ar  
    51   31   51 1   
    52   31   52 1   
    53   31   53 1   
    54   32   33 ar  
    55   33   34 1   
    56   34   54 1   
    57   34   55 1   
@<TRIPOS>SUBSTRUCTURE
     1 THW         1 TEMP              0 ****  ****    0 ROOT
