@<TRIPOS>MOLECULE
THW
   55    57     1     0     0
SMALL
bcc


@<TRIPOS>ATOM
      1 C10        77.1020    5.9080    6.7660 ca        1 THW     -0.241000
      2 C12        77.6070    7.1940    6.7360 ca        1 THW     -0.092500
      3 C14        78.8290    7.4770    6.1150 ca        1 THW     -0.287000
      4 C13        79.5310    6.4350    5.5080 ca        1 THW     -0.092500
      5 C11        79.0420    5.1400    5.5290 ca        1 THW     -0.241000
      6 C9         77.8090    4.8260    6.1700 ca        1 THW      0.090200
      7 C8         77.3580    3.4980    6.2490 ce        1 THW     -0.258100
      8 O9         78.1450    2.5120    5.6490 oh        1 THW     -0.537100
      9 C2         76.0730    3.0700    6.7230 cd        1 THW     -0.046500
     10 S1         74.5960    3.8400    6.2990 ss        1 THW     -0.137200
     11 C5         73.6050    2.6660    7.1110 cc        1 THW     -0.047000
     12 C5A        72.2620    2.6530    7.1300 c2        1 THW     -0.232200
     13 C5B        71.3840    3.6230    6.4050 c3        1 THW      0.238600
     14 O5G        70.1250    3.0810    6.1710 os        1 THW     -0.588200
     15 PA         68.8070    3.8220    6.8730 p5        1 THW      1.598800
     16 O1A        69.1920    5.2410    7.0520 o         1 THW     -0.888500
     17 O2A        68.3890    2.9620    7.9980 o         1 THW     -0.888500
     18 O3A        67.7380    3.7320    5.6510 os        1 THW     -0.827800
     19 PB         66.5540    3.6360    4.5240 p5        1 THW      1.595800
     20 O1B        65.3020    4.2130    5.0610 o         1 THW     -0.892500
     21 O2B        67.2030    4.7730    3.5290 oh        1 THW     -0.810400
     22 O3B        66.5530    2.3490    3.7990 o         1 THW     -0.892500
     23 C4         74.5040    1.7210    7.7460 cc        1 THW     -0.112400
     24 C4A        74.0380    0.5470    8.4990 c3        1 THW     -0.054400
     25 N3         75.8450    1.9950    7.5320 na        1 THW      0.027700
     26 C35        76.8830    1.0780    7.9670 c3        1 THW      0.071600
     27 C5'        77.3350    1.2330    9.3840 ca        1 THW     -0.384900
     28 C6'        76.9500    0.3020   10.3540 ca        1 THW      0.462200
     29 N1'        77.3470    0.3430   11.6440 nb        1 THW     -0.782000
     30 C2'        78.1500    1.4010   11.9830 ca        1 THW      0.667300
     31 C2A        78.5640    1.5000   13.4350 c3        1 THW     -0.125400
     32 N3'        78.5960    2.3740   11.1490 nb        1 THW     -0.807000
     33 C4'        78.2080    2.2990    9.8200 ca        1 THW      0.716200
     34 N4'        78.7280    3.1930    8.9260 nh        1 THW     -0.937500
     35 H10        76.1280    5.7000    7.2370 ha        1 THW      0.125500
     36 H12        77.0370    8.0110    7.2030 ha        1 THW      0.084500
     37 H14        79.2200    8.5000    6.0970 ha        1 THW      0.085000
     38 H13        80.4860    6.6460    5.0060 ha        1 THW      0.084500
     39 H11        79.6020    4.3250    5.0520 ha        1 THW      0.125500
     40 H9         77.8310    2.4420    4.7360 ho        1 THW      0.355000
     41 H5A1       71.7110    1.8840    7.6930 ha        1 THW      0.136000
     42 H5A2       67.8100    5.3520    3.9700 ho        1 THW      0.423000
     43 H5B1       71.8590    3.8670    5.4070 h1        1 THW      0.026700
     44 H5B2       71.2960    4.5800    6.9990 h1        1 THW      0.026700
     45 H4A1       72.9230    0.5620    8.5670 hc        1 THW      0.014367
     46 H4A2       74.4520    0.5350    9.5410 hc        1 THW      0.014367
     47 H4A3       74.3430   -0.4150    8.0050 hc        1 THW      0.014367
     48 H351       77.7740    1.1910    7.2800 h1        1 THW      0.077200
     49 H352       76.4850    0.0280    7.8360 h1        1 THW      0.077200
     50 H6'        76.2770   -0.5350   10.0900 h4        1 THW      0.019100
     51 H2A1       77.6800    1.8220   14.0390 hc        1 THW      0.043367
     52 H2A2       79.3850    2.2430   13.5740 hc        1 THW      0.043367
     53 H2A3       78.9110    0.5050   13.8040 hc        1 THW      0.043367
     54 H4'1       78.3110    3.2590    8.0050 hn        1 THW      0.458800
     55 H4'2       79.1750    4.0080    9.2720 hn        1 THW      0.458800
@<TRIPOS>BOND
     1    1    2 ar  
     2    1    6 ar  
     3    1   35 1   
     4    2    3 ar  
     5    2   36 1   
     6    3    4 ar  
     7    3   37 1   
     8    4    5 ar  
     9    4   38 1   
    10    5    6 ar  
    11    5   39 1   
    12    6    7 1   
    13    7    8 1   
    14    7    9 2   
    15    8   40 1   
    16    9   10 1   
    17    9   25 1   
    18   10   11 1   
    19   11   12 2   
    20   11   23 1   
    21   12   13 1   
    22   12   41 1   
    23   13   14 1   
    24   13   43 1   
    25   13   44 1   
    26   14   15 1   
    27   15   16 1   
    28   15   17 1   
    29   15   18 1   
    30   18   19 1   
    31   19   20 1   
    32   19   21 1   
    33   19   22 1   
    34   21   42 1   
    35   23   24 1   
    36   23   25 2   
    37   24   45 1   
    38   24   46 1   
    39   24   47 1   
    40   25   26 1   
    41   26   27 1   
    42   26   48 1   
    43   26   49 1   
    44   27   28 ar  
    45   27   33 ar  
    46   28   29 ar  
    47   28   50 1   
    48   29   30 ar  
    49   30   31 1   
    50   30   32 ar  
    51   31   51 1   
    52   31   52 1   
    53   31   53 1   
    54   32   33 ar  
    55   33   34 1   
    56   34   54 1   
    57   34   55 1   
@<TRIPOS>SUBSTRUCTURE
     1 THW         1 TEMP              0 ****  ****    0 ROOT
