@<TRIPOS>MOLECULE
THY
   57    58     1     0     0
SMALL
bcc


@<TRIPOS>ATOM
      1 O2B         0.0000    0.0000    0.0000 o         1 THY     -0.647833
      2 PB          1.6100    0.0000    0.0000 p5        1 THY      0.823900
      3 O3B         2.1460    0.0000    1.5180 o         1 THY     -0.647833
      4 O1B         2.1040   -1.2080   -0.6980 o         1 THY     -0.647833
      5 O3A         2.1460    1.3140   -0.7590 os        1 THY     -0.476800
      6 PA          3.5460    1.7150   -1.4470 p5        1 THY      0.934800
      7 O1A         4.6650    1.2150   -0.6180 o         1 THY     -0.698500
      8 O2A         3.6290    1.0590   -2.9150 o         1 THY     -0.698500
      9 O5G         3.6430    3.3180   -1.5700 os        1 THY     -0.503200
     10 C5B         4.8110    3.9930   -2.0450 c3        1 THY      0.308400
     11 C5A         4.5670    5.5030   -2.0340 c3        1 THY      0.031800
     12 C5          5.7970    6.2140   -2.5350 cc        1 THY     -0.020600
     13 C4          6.0310    6.5130   -3.7870 cd        1 THY     -0.107200
     14 C4A         5.0600    6.1630   -4.8850 c3        1 THY      0.059100
     15 S1          7.1220    6.7670   -1.5180 ss        1 THY     -0.289200
     16 C2          7.9700    7.4010   -2.9240 cc        1 THY      0.094600
     17 C8          9.1570    8.0180   -2.9060 c2        1 THY     -0.181100
     18 O9         10.0880    7.7320   -3.8580 oh        1 THY     -0.484100
     19 C9          9.4640    9.0300   -1.8320 c3        1 THY      0.044500
     20 C11         9.3750    8.3600   -0.4590 c3        1 THY     -0.038100
     21 C10        10.8760    9.5820   -2.0400 c3        1 THY     -0.028400
     22 C12        11.1420   10.6970   -1.0260 c3        1 THY     -0.002100
     23 N3          7.2100    7.1620   -4.0410 na        1 THY     -0.044200
     24 C35         7.6230    7.5660   -5.3870 c3        1 THY      0.219100
     25 C5'         6.9520    8.8660   -5.7480 ca        1 THY     -0.489900
     26 C6'         5.8570    8.8890   -6.5900 ca        1 THY      0.426200
     27 N1'         5.2920   10.0500   -6.8860 nb        1 THY     -0.657000
     28 C2'         5.7590   11.1770   -6.3900 ca        1 THY      0.448300
     29 C2A         5.0830   12.4740   -6.7550 c3        1 THY      0.001600
     30 N3'         6.8000   11.2040   -5.5830 nb        1 THY     -0.656000
     31 C4'         7.4180   10.0800   -5.2360 ca        1 THY      0.511200
     32 N4'         8.5100   10.1100   -4.3830 nv        1 THY     -0.654500
     33 H5B1        5.0290    3.6690   -3.0560 h1        1 THY     -0.023800
     34 H5B2        5.6500    3.7580   -1.4020 h1        1 THY     -0.023800
     35 H5A1        4.3490    5.8260   -1.0230 hc        1 THY      0.018200
     36 H5A2        3.7270    5.7370   -2.6770 hc        1 THY      0.018200
     37 H4A1        4.3540    6.9750   -5.0140 hc        1 THY      0.021700
     38 H4A2        4.5260    5.2590   -4.6200 hc        1 THY      0.021700
     39 H4A3        5.6020    6.0050   -5.8090 hc        1 THY      0.021700
     40 H9         10.5000    6.9080   -3.6570 ho        1 THY      0.367000
     41 HA          8.7490    9.8420   -1.8850 hc        1 THY      0.029700
     42 H111        8.4350    8.6240    0.0110 hc        1 THY      0.013700
     43 H112       10.1960    8.6970    0.1620 hc        1 THY      0.013700
     44 H113        9.4290    7.2850   -0.5780 hc        1 THY      0.013700
     45 H101       10.9650    9.9780   -3.0440 hc        1 THY      0.014700
     46 H102       11.5990    8.7870   -1.9000 hc        1 THY      0.014700
     47 H121       10.1990   11.1070   -0.6860 hc        1 THY     -0.006967
     48 H122       11.6870   10.2940   -0.1810 hc        1 THY     -0.006967
     49 H123       11.7280   11.4780   -1.4950 hc        1 THY     -0.006967
     50 H351        7.3360    6.8010   -6.0980 h1        1 THY      0.035700
     51 H352        8.6980    7.6960   -5.4110 h1        1 THY      0.035700
     52 H6'         5.4650    7.9670   -7.0040 h4        1 THY     -0.028900
     53 H2A1        5.8320   13.2400   -6.9140 hc        1 THY     -0.011633
     54 H2A2        4.4220   12.7760   -5.9510 hc        1 THY     -0.011633
     55 H2A3        4.5070   12.3380   -7.6630 hc        1 THY     -0.011633
     56 H4'1        9.4250    9.9140   -4.7370 hn        1 THY      0.281300
     57 H4'2        8.3940   10.4110   -3.4350 hn        1 THY      0.281300
@<TRIPOS>BOND
     1    1    2 1   
     2    2    3 1   
     3    2    4 1   
     4    2    5 1   
     5    5    6 1   
     6    6    7 1   
     7    6    8 1   
     8    6    9 1   
     9    9   10 1   
    10   10   11 1   
    11   10   33 1   
    12   10   34 1   
    13   11   12 1   
    14   11   35 1   
    15   11   36 1   
    16   12   13 2   
    17   12   15 1   
    18   13   14 1   
    19   13   23 1   
    20   14   37 1   
    21   14   38 1   
    22   14   39 1   
    23   15   16 1   
    24   16   17 2   
    25   16   23 1   
    26   17   18 1   
    27   17   19 1   
    28   18   40 1   
    29   19   20 1   
    30   19   21 1   
    31   19   41 1   
    32   20   42 1   
    33   20   43 1   
    34   20   44 1   
    35   21   22 1   
    36   21   45 1   
    37   21   46 1   
    38   22   47 1   
    39   22   48 1   
    40   22   49 1   
    41   23   24 1   
    42   24   25 1   
    43   24   50 1   
    44   24   51 1   
    45   25   26 ar  
    46   25   31 ar  
    47   26   27 ar  
    48   26   52 1   
    49   27   28 ar  
    50   28   29 1   
    51   28   30 ar  
    52   29   53 1   
    53   29   54 1   
    54   29   55 1   
    55   30   31 ar  
    56   31   32 1   
    57   32   56 1   
    58   32   57 1   
@<TRIPOS>SUBSTRUCTURE
     1 THY         1 TEMP              0 ****  ****    0 ROOT
