@<TRIPOS>MOLECULE
THZ
   37    38     1     0     0
SMALL
bcc


@<TRIPOS>ATOM
      1 C           0.8780    2.2030    0.1990 c         1 THZ      0.473800
      2 N          -1.1230    3.3070    1.2200 n3        1 THZ     -0.890800
      3 O           1.2890    3.2810   -0.2390 o         1 THZ     -0.517100
      4 S1          2.6830    0.6570   -1.2850 ss        1 THZ      0.056900
      5 CA         -0.4980    2.0540    0.8570 c3        1 THZ      0.089500
      6 CB         -1.3730    1.2040   -0.0800 c3        1 THZ     -0.066400
      7 CD         -3.4460   -0.1390   -0.3380 c3        1 THZ      0.181800
      8 NE         -4.6670   -0.6250    0.2750 nh        1 THZ     -0.795200
      9 CG         -2.6480    0.7640    0.6060 c3        1 THZ     -0.085400
     10 CZ         -5.5560   -1.3940   -0.5550 c2        1 THZ      0.745100
     11 N11         1.7780    0.0670    1.0790 nc        1 THZ     -0.497100
     12 C17         1.7100    0.9770    0.1130 cd        1 THZ      0.265200
     13 C21         2.6520   -0.9560    0.6950 ca        1 THZ      0.073400
     14 C31         2.9800   -2.0950    1.4630 ca        1 THZ     -0.067000
     15 C41         3.8570   -3.0240    0.9370 ca        1 THZ     -0.132000
     16 C51         4.4230   -2.8500   -0.3410 ca        1 THZ     -0.110000
     17 C61         4.1180   -1.7410   -1.1100 ca        1 THZ     -0.093000
     18 C71         3.2350   -0.7800   -0.6060 ca        1 THZ     -0.100100
     19 NH1        -5.1990   -1.7580   -1.7630 n2        1 THZ     -0.873100
     20 NH2        -6.8250   -1.6980    0.0480 nh        1 THZ     -0.933800
     21 H          -0.4990    3.8530    1.7830 hn        1 THZ      0.358800
     22 H2         -1.3660    3.8340    0.4030 hn        1 THZ      0.358800
     23 HA         -0.3450    1.4770    1.8210 h1        1 THZ      0.104700
     24 HB         -1.6180    1.7830   -1.0090 hc        1 THZ      0.052200
     25 HBA        -0.7830    0.3000   -0.3880 hc        1 THZ      0.052200
     26 HD         -2.8210   -1.0370   -0.6090 h1        1 THZ      0.053200
     27 HDA        -3.6490    0.4310   -1.2910 h1        1 THZ      0.053200
     28 HNE        -5.1520    0.1050    0.7630 hn        1 THZ      0.389800
     29 HG         -2.3970    0.2130    1.5500 hc        1 THZ      0.057200
     30 HGA        -3.2570    1.6610    0.8920 hc        1 THZ      0.057200
     31 H31         2.5370   -2.2290    2.4620 ha        1 THZ      0.153000
     32 H41         4.1230   -3.9170    1.5220 ha        1 THZ      0.139000
     33 H51         5.1180   -3.6110   -0.7280 ha        1 THZ      0.139000
     34 H61         4.5640   -1.6100   -2.1070 ha        1 THZ      0.143000
     35 HNH1       -5.8340   -2.3650   -2.2330 hn        1 THZ      0.389400
     36 HNH2       -6.8580   -1.6030    1.0400 hn        1 THZ      0.388800
     37 HNHA       -7.2020   -2.5710   -0.2510 hn        1 THZ      0.388800
@<TRIPOS>BOND
     1    1    3 2   
     2    1    5 1   
     3    1   12 1   
     4    2    5 1   
     5    2   21 1   
     6    2   22 1   
     7    4   12 1   
     8    4   18 1   
     9    5    6 1   
    10    5   23 1   
    11    6    9 1   
    12    6   24 1   
    13    6   25 1   
    14    7    8 1   
    15    7    9 1   
    16    7   26 1   
    17    7   27 1   
    18    8   10 1   
    19    8   28 1   
    20    9   29 1   
    21    9   30 1   
    22   10   19 2   
    23   10   20 1   
    24   11   12 2   
    25   11   13 1   
    26   13   14 ar  
    27   13   18 ar  
    28   14   15 ar  
    29   14   31 1   
    30   15   16 ar  
    31   15   32 1   
    32   16   17 ar  
    33   16   33 1   
    34   17   18 ar  
    35   17   34 1   
    36   19   35 1   
    37   20   36 1   
    38   20   37 1   
@<TRIPOS>SUBSTRUCTURE
     1 THZ         1 TEMP              0 ****  ****    0 ROOT
