@<TRIPOS>MOLECULE
THZ
   37    33     1     0     0
SMALL
bcc


@<TRIPOS>ATOM
      1 C          -1.3130    0.1500   -0.1100 c1        1 THZ      0.245000
      2 N           0.6560    1.3440   -0.7960 n3        1 THZ     -0.335000
      3 O          -1.9270    0.7990    0.7030 o         1 THZ     -0.259000
      4 S1         -3.6180   -0.6360   -1.1820 ss        1 THZ      0.515000
      5 CA          0.2100    0.1850   -0.1200 c3        1 THZ     -0.038000
      6 CB          0.7320    0.1990    1.3190 c3        1 THZ     -0.151000
      7 CD          2.6910    0.8430    2.7340 c3        1 THZ     -0.072000
      8 NE          4.0000    1.4310    2.6640 n3        1 THZ     -0.309000
      9 CG          2.2340    0.4320    1.3130 c3        1 THZ     -0.159000
     10 CZ          4.4730    2.2050    3.7190 c2        1 THZ      0.128000
     11 N11        -1.6490   -1.4430   -2.2910 n2        1 THZ     -0.083000
     12 C17        -2.0730   -0.6170   -1.2140 c1        1 THZ     -0.324000
     13 C21        -2.9390   -2.0380   -3.0090 c1        1 THZ     -0.064000
     14 C31        -3.0740   -2.7960   -4.1500 c1        1 THZ     -0.100250
     15 C41        -4.3510   -3.0870   -4.6530 c1        1 THZ     -0.100250
     16 C51        -5.4970   -2.6050   -3.9930 c1        1 THZ     -0.100250
     17 C61        -5.3630   -1.8380   -2.8370 c1        1 THZ     -0.100250
     18 C71        -4.0940   -1.5480   -2.3370 c1        1 THZ     -0.329000
     19 NH1         5.0460    1.6150    4.7820 n1        1 THZ     -0.290000
     20 NH2         4.3530    3.6110    3.6690 n3        1 THZ     -0.346000
     21 H          -0.0510    1.7510   -1.2020 hn        1 THZ      0.164000
     22 H2          1.2880    1.1010   -1.4420 hn        1 THZ      0.164000
     23 HA          0.5640   -0.6440   -0.6000 h1        1 THZ      0.123000
     24 HB          0.2770    0.9460    1.8380 hc        1 THZ      0.092500
     25 HBA         0.5300   -0.6990    1.7650 hc        1 THZ      0.092500
     26 HD          2.7190    0.0710    3.2970 h1        1 THZ      0.070000
     27 HDA         2.0400    1.5110    3.1140 h1        1 THZ      0.070000
     28 HNE         4.5460    1.2500    1.9500 hn        1 THZ      0.181000
     29 HG          2.7060   -0.4130    1.0380 hc        1 THZ      0.099000
     30 HGA         2.4440    1.1150    0.7060 hc        1 THZ      0.099000
     31 H31        -2.2910   -3.1280   -4.6020 ha        1 THZ      0.144000
     32 H41        -4.4440   -3.6190   -5.4510 ha        1 THZ      0.144000
     33 H51        -6.3590   -2.8040   -4.3320 ha        1 THZ      0.144000
     34 H61        -6.1700   -1.4990   -2.3720 ha        1 THZ      0.144000
     35 HNH1        5.1250    0.7010    4.8130 DU        1 THZ      0.166000
     36 HNH2        4.8370    4.1260    4.2330 hn        1 THZ      0.187000
     37 HNHA        3.7410    4.0260    3.0380 hn        1 THZ      0.187000
@<TRIPOS>BOND
     1    1    3 1   
     2    1    5 1   
     3    2    5 1   
     4    2   21 1   
     5    2   22 1   
     6    4   12 1   
     7    4   18 1   
     8    5    6 1   
     9    5   23 1   
    10    6    9 1   
    11    6   24 1   
    12    6   25 1   
    13    7    8 1   
    14    7    9 1   
    15    7   26 1   
    16    7   27 1   
    17    8   10 1   
    18    8   28 1   
    19    9   29 1   
    20    9   30 1   
    21   10   19 1   
    22   10   20 1   
    23   11   12 1   
    24   11   13 1   
    25   13   18 1   
    26   14   15 1   
    27   14   31 1   
    28   15   32 1   
    29   16   17 1   
    30   16   33 1   
    31   17   34 1   
    32   20   36 1   
    33   20   37 1   
@<TRIPOS>SUBSTRUCTURE
     1 THZ         1 TEMP              0 ****  ****    0 ROOT
