@<TRIPOS>MOLECULE
TI1
   55    55     1     0     0
SMALL
bcc


@<TRIPOS>ATOM
      1 SG          1.1100    1.2060   -0.8820 sh        1 TI1     -0.349900
      2 CA1         2.2620    0.1780   -0.0020 c3        1 TI1     -0.061600
      3 CB1         2.0240    0.0530    1.4900 c3        1 TI1     -0.081400
      4 CG1         2.3340    1.3510    2.2080 c3        1 TI1     -0.086400
      5 CD1         2.0320    1.2270    3.6870 c3        1 TI1     -0.079400
      6 CE1         2.3460    2.5180    4.4150 c3        1 TI1     -0.079400
      7 CF1         2.0450    2.4030    5.8870 c3        1 TI1     -0.096100
      8 C1          2.2220   -1.1810   -0.6530 c         1 TI1      0.552100
      9 O1          1.9860   -2.2630   -0.1440 o         1 TI1     -0.400100
     10 N2          2.4740   -1.1460   -2.1520 ny        1 TI1     -0.680800
     11 CA2         2.8980   -2.4520   -2.7530 c3        1 TI1      0.034500
     12 CB2         2.3960   -2.6150   -4.1920 c3        1 TI1     -0.049100
     13 CG2         0.9090   -2.5740   -4.2450 ca        1 TI1     -0.155300
     14 CD3         0.2520   -1.4070   -4.6540 ca        1 TI1     -0.129000
     15 CD4         0.1620   -3.7100   -3.9150 ca        1 TI1     -0.129000
     16 CE3        -1.1400   -1.3770   -4.7260 ca        1 TI1     -0.113500
     17 CE4        -1.2300   -3.6760   -3.9870 ca        1 TI1     -0.113500
     18 CZ2        -1.8820   -2.5110   -4.3910 ca        1 TI1     -0.100000
     19 C2          4.4330   -2.6020   -2.6460 c         1 TI1      0.636100
     20 O2          4.9030   -3.4010   -1.8270 o         1 TI1     -0.500100
     21 N3          5.2240   -1.8190   -3.4760 ns        1 TI1     -0.540900
     22 CA3         6.4620   -1.2770   -2.9570 c3        1 TI1      0.009700
     23 CB3         7.3780   -0.7450   -4.0550 c3        1 TI1     -0.113100
     24 C3          6.1770   -0.1600   -1.9420 c         1 TI1      0.623100
     25 O3          7.1790    0.4450   -1.2710 oh        1 TI1     -0.530100
     26 OXT         5.0450    0.2490   -1.6340 o         1 TI1     -0.595000
     27 HS          0.0470    1.1260   -0.0840 hs        1 TI1      0.255800
     28 HA1         3.2830    0.6410   -0.1730 h1        1 TI1      0.168700
     29 HB11        2.6810   -0.7640    1.8990 hc        1 TI1      0.074200
     30 HB12        0.9620   -0.2540    1.6840 hc        1 TI1      0.074200
     31 HG11        1.7270    2.1850    1.7650 hc        1 TI1      0.057200
     32 HG12        3.4160    1.6140    2.0650 hc        1 TI1      0.057200
     33 HD11        2.6360    0.3910    4.1270 hc        1 TI1      0.046700
     34 HD12        0.9500    0.9680    3.8330 hc        1 TI1      0.046700
     35 HE11        1.7440    3.3540    3.9700 hc        1 TI1      0.043200
     36 HE12        3.4280    2.7750    4.2690 hc        1 TI1      0.043200
     37 HF11        2.6540    1.5910    6.3530 hc        1 TI1      0.040033
     38 HF12        0.9650    2.1720    6.0540 hc        1 TI1      0.040033
     39 HF13        2.2840    3.3640    6.4040 hc        1 TI1      0.040033
     40 HN2         3.1870   -0.4190   -2.3300 hn        1 TI1      0.480800
     41 HA2         2.4430   -3.2850   -2.1230 hx        1 TI1      0.157700
     42 HB21        2.7700   -3.6120   -4.5580 hc        1 TI1      0.088200
     43 HB22        2.8240   -1.8270   -4.8670 hc        1 TI1      0.088200
     44 HD3         0.8300   -0.5210   -4.9580 ha        1 TI1      0.137000
     45 HD4         0.6730   -4.6360   -3.6100 ha        1 TI1      0.137000
     46 HE3        -1.6530   -0.4620   -5.0600 ha        1 TI1      0.154000
     47 HE4        -1.8140   -4.5750   -3.7330 ha        1 TI1      0.154000
     48 HZ2        -2.9820   -2.4880   -4.4550 ha        1 TI1      0.156000
     49 HN3         4.7800   -1.2750   -4.1810 hn        1 TI1      0.313500
     50 HA3         6.9930   -2.1090   -2.3940 h1        1 TI1      0.126700
     51 HB31        8.3360   -0.3930   -3.6010 hc        1 TI1      0.071367
     52 HB32        7.6140   -1.5560   -4.7870 hc        1 TI1      0.071367
     53 HB33        6.9070    0.1070   -4.6040 hc        1 TI1      0.071367
     54 H22         1.5880   -0.8470   -2.6000 hn        1 TI1      0.480800
     55 H32         8.0380    0.0780   -1.5370 ho        1 TI1      0.452000
@<TRIPOS>BOND
     1    1    2 1   
     2    1   27 1   
     3    2    3 1   
     4    2    8 1   
     5    2   28 1   
     6    3    4 1   
     7    3   29 1   
     8    3   30 1   
     9    4    5 1   
    10    4   31 1   
    11    4   32 1   
    12    5    6 1   
    13    5   33 1   
    14    5   34 1   
    15    6    7 1   
    16    6   35 1   
    17    6   36 1   
    18    7   37 1   
    19    7   38 1   
    20    7   39 1   
    21    8    9 2   
    22    8   10 1   
    23   10   11 1   
    24   10   40 1   
    25   10   54 1   
    26   11   12 1   
    27   11   19 1   
    28   11   41 1   
    29   12   13 1   
    30   12   42 1   
    31   12   43 1   
    32   13   14 ar  
    33   13   15 ar  
    34   14   16 ar  
    35   14   44 1   
    36   15   17 ar  
    37   15   45 1   
    38   16   18 ar  
    39   16   46 1   
    40   17   18 ar  
    41   17   47 1   
    42   18   48 1   
    43   19   20 2   
    44   19   21 1   
    45   21   22 1   
    46   21   49 1   
    47   22   23 1   
    48   22   24 1   
    49   22   50 1   
    50   23   51 1   
    51   23   52 1   
    52   23   53 1   
    53   24   25 1   
    54   24   26 2   
    55   25   55 1   
@<TRIPOS>SUBSTRUCTURE
     1 TI1         1 TEMP              0 ****  ****    0 ROOT
