@<TRIPOS>MOLECULE
TI1
   53    53     1     0     0
SMALL
bcc


@<TRIPOS>ATOM
      1 SG         -2.3970    1.6340    1.9280 sh        1 TI1     -0.392900
      2 CA1        -0.9820    0.5790    1.6870 c3        1 TI1     -0.047600
      3 CB1        -0.7240   -0.3630    2.8440 c3        1 TI1     -0.062400
      4 CG1        -0.2130    0.3760    4.0630 c3        1 TI1     -0.089400
      5 CD1        -0.0420   -0.5660    5.2350 c3        1 TI1     -0.074400
      6 CE1         0.4920    0.1640    6.4490 c3        1 TI1     -0.081400
      7 CF1         0.6620   -0.7650    7.6240 c3        1 TI1     -0.090100
      8 C1         -1.1590   -0.2350    0.4090 c         1 TI1      0.664100
      9 O1         -1.8740   -1.2590    0.3910 o         1 TI1     -0.630100
     10 N2         -0.5320    0.2540   -0.7250 n         1 TI1     -0.535900
     11 CA2        -0.2260   -0.6110   -1.8400 c3        1 TI1      0.009700
     12 CB2        -0.5290    0.0290   -3.2060 c3        1 TI1     -0.042100
     13 CG2        -1.9870    0.0900   -3.4940 ca        1 TI1     -0.064300
     14 CD3        -2.7620    1.1510   -3.0090 ca        1 TI1     -0.117500
     15 CD4        -2.5970   -0.9050   -4.2670 ca        1 TI1     -0.117500
     16 CE3        -4.1240    1.2140   -3.2960 ca        1 TI1     -0.135000
     17 CE4        -3.9590   -0.8380   -4.5550 ca        1 TI1     -0.135000
     18 CZ2        -4.7250    0.2230   -4.0720 ca        1 TI1     -0.141000
     19 C2          1.2770   -1.0190   -1.8180 c         1 TI1      0.615100
     20 O2          1.5740   -2.2250   -1.7600 o         1 TI1     -0.595100
     21 N3          2.2260   -0.0030   -1.9220 n         1 TI1     -0.495900
     22 CA3         3.3290    0.0090   -0.9650 c3        1 TI1     -0.065300
     23 CB3         4.6090    0.5600   -1.5810 c3        1 TI1     -0.073100
     24 C3          2.9960    0.8470    0.3190 c         1 TI1      0.901600
     25 O3          1.8910    1.4710    0.3710 o         1 TI1     -0.842300
     26 OXT         3.8490    0.8460    1.2420 o         1 TI1     -0.842300
     27 HS         -3.3490    0.7150    1.9560 hs        1 TI1      0.205800
     28 HA1        -0.1070    1.2930    1.5960 h1        1 TI1      0.161700
     29 HB11        0.0410   -1.1230    2.5240 hc        1 TI1      0.054200
     30 HB12       -1.6630   -0.9250    3.0890 hc        1 TI1      0.054200
     31 HG11       -0.9320    1.1950    4.3330 hc        1 TI1      0.058700
     32 HG12        0.7710    0.8590    3.8180 hc        1 TI1      0.058700
     33 HD11        0.6640   -1.3910    4.9530 hc        1 TI1      0.035700
     34 HD12       -1.0260   -1.0430    5.4850 hc        1 TI1      0.035700
     35 HE11       -0.2090    0.9950    6.7240 hc        1 TI1      0.041200
     36 HE12        1.4790    0.6340    6.1940 hc        1 TI1      0.041200
     37 HF11        1.0570   -0.2080    8.5070 hc        1 TI1      0.025700
     38 HF12       -0.3150   -1.2280    7.9060 hc        1 TI1      0.025700
     39 HF13        1.3780   -1.5860    7.3750 hc        1 TI1      0.025700
     40 HN2         0.1210    1.0070   -0.5700 hn        1 TI1      0.351500
     41 HA2        -0.8310   -1.5630   -1.7420 h1        1 TI1      0.109700
     42 HB21       -0.0950    1.0640   -3.2570 hc        1 TI1      0.057200
     43 HB22       -0.0120   -0.5930   -3.9870 hc        1 TI1      0.057200
     44 HD3        -2.2920    1.9250   -2.3830 ha        1 TI1      0.138000
     45 HD4        -1.9970   -1.7470   -4.6430 ha        1 TI1      0.138000
     46 HE3        -4.7270    2.0460   -2.9050 ha        1 TI1      0.122000
     47 HE4        -4.4300   -1.6260   -5.1590 ha        1 TI1      0.122000
     48 HZ2        -5.7990    0.2740   -4.2960 ha        1 TI1      0.118000
     49 HN3         1.8190    0.9140   -1.9780 hn        1 TI1      0.278500
     50 HA3         3.5200   -1.0520   -0.6310 h1        1 TI1      0.072700
     51 HB31        4.4540    1.5920   -1.9780 hc        1 TI1      0.030033
     52 HB32        5.3830    0.6020   -0.7750 hc        1 TI1      0.030033
     53 HB33        4.9730   -0.0910   -2.4100 hc        1 TI1      0.030033
@<TRIPOS>BOND
     1    1    2 1   
     2    1   27 1   
     3    2    3 1   
     4    2    8 1   
     5    2   28 1   
     6    3    4 1   
     7    3   29 1   
     8    3   30 1   
     9    4    5 1   
    10    4   31 1   
    11    4   32 1   
    12    5    6 1   
    13    5   33 1   
    14    5   34 1   
    15    6    7 1   
    16    6   35 1   
    17    6   36 1   
    18    7   37 1   
    19    7   38 1   
    20    7   39 1   
    21    8    9 2   
    22    8   10 1   
    23   10   11 1   
    24   10   40 1   
    25   11   12 1   
    26   11   19 1   
    27   11   41 1   
    28   12   13 1   
    29   12   42 1   
    30   12   43 1   
    31   13   14 ar  
    32   13   15 ar  
    33   14   16 ar  
    34   14   44 1   
    35   15   17 ar  
    36   15   45 1   
    37   16   18 ar  
    38   16   46 1   
    39   17   18 ar  
    40   17   47 1   
    41   18   48 1   
    42   19   20 2   
    43   19   21 1   
    44   21   22 1   
    45   21   49 1   
    46   22   23 1   
    47   22   24 1   
    48   22   50 1   
    49   23   51 1   
    50   23   52 1   
    51   23   53 1   
    52   24   25 1   
    53   24   26 1   
@<TRIPOS>SUBSTRUCTURE
     1 TI1         1 TEMP              0 ****  ****    0 ROOT
