@<TRIPOS>MOLECULE
TI1
   55    55     1     0     0
SMALL
bcc


@<TRIPOS>ATOM
      1 SG          0.6840    1.5190   -0.2950 sh        1 TI1     -0.327900
      2 CA1         1.8460    0.2970    0.2530 c3        1 TI1     -0.063600
      3 CB1         1.8150   -0.0220    1.7360 c3        1 TI1     -0.081400
      4 CG1         2.3400    1.1370    2.5580 c3        1 TI1     -0.086400
      5 CD1         2.2400    0.8280    4.0380 c3        1 TI1     -0.079400
      6 CE1         2.7720    1.9770    4.8690 c3        1 TI1     -0.079400
      7 CF1         2.6730    1.6780    6.3430 c3        1 TI1     -0.096100
      8 C1          1.6160   -0.9530   -0.5560 c         1 TI1      0.551100
      9 O1          1.4110   -2.0920   -0.1700 o         1 TI1     -0.412100
     10 N2          1.6240   -0.7490   -2.0600 n4        1 TI1     -0.668800
     11 CA2         2.6890   -1.5570   -2.7460 c3        1 TI1      0.049500
     12 CB2         2.3940   -1.7000   -4.2500 c3        1 TI1     -0.049100
     13 CG2         1.0080   -2.1820   -4.4940 ca        1 TI1     -0.167300
     14 CD3         0.0050   -1.2770   -4.8670 ca        1 TI1     -0.128000
     15 CD4         0.7080   -3.5460   -4.3970 ca        1 TI1     -0.128000
     16 CE3        -1.2840   -1.7340   -5.1340 ca        1 TI1     -0.114000
     17 CE4        -0.5840   -3.9980   -4.6630 ca        1 TI1     -0.114000
     18 CZ2        -1.5810   -3.0940   -5.0300 ca        1 TI1     -0.095000
     19 C2          4.0740   -0.8970   -2.5500 c         1 TI1      0.647100
     20 O2          4.1560    0.2260   -2.0000 o         1 TI1     -0.639100
     21 N3          5.1690   -1.5910   -2.9680 n         1 TI1     -0.519900
     22 CA3         6.5010   -1.0150   -2.8850 c3        1 TI1      0.011700
     23 CB3         7.5980   -2.0650   -3.0200 c3        1 TI1     -0.110100
     24 C3          6.6940    0.0530   -3.9680 c         1 TI1      0.597100
     25 O3          6.2930    1.3260   -3.7160 oh        1 TI1     -0.563100
     26 OXT         7.1760   -0.1320   -5.0820 o         1 TI1     -0.452000
     27 HS         -0.2940    1.3470    0.5920 hs        1 TI1      0.251800
     28 HA1         2.8660    0.7110   -0.0180 h1        1 TI1      0.163700
     29 HB11        2.4460   -0.9330    1.9300 hc        1 TI1      0.073200
     30 HB12        0.7680   -0.2780    2.0500 hc        1 TI1      0.073200
     31 HG11        1.7540    2.0660    2.3250 hc        1 TI1      0.057700
     32 HG12        3.4100    1.3400    2.2880 hc        1 TI1      0.057700
     33 HD11        1.1710    0.6290    4.3130 hc        1 TI1      0.047200
     34 HD12        2.8210   -0.1040    4.2700 hc        1 TI1      0.047200
     35 HE11        3.8420    2.1740    4.5950 hc        1 TI1      0.044200
     36 HE12        2.1930    2.9090    4.6330 hc        1 TI1      0.044200
     37 HF11        3.0700    2.5370    6.9370 hc        1 TI1      0.041033
     38 HF12        3.2640    0.7670    6.6020 hc        1 TI1      0.041033
     39 HF13        1.6110    1.5050    6.6410 hc        1 TI1      0.041033
     40 HN2         1.7780    0.2530   -2.2580 hn        1 TI1      0.481800
     41 HA2         2.6800   -2.5830   -2.2640 hx        1 TI1      0.134700
     42 HB21        3.1290   -2.4380   -4.6730 hc        1 TI1      0.094200
     43 HB22        2.5670   -0.7180   -4.7680 hc        1 TI1      0.094200
     44 HD3         0.2420   -0.2090   -4.9920 ha        1 TI1      0.138000
     45 HD4         1.4950   -4.2670   -4.1270 ha        1 TI1      0.138000
     46 HE3        -2.0660   -1.0210   -5.4410 ha        1 TI1      0.157500
     47 HE4        -0.8130   -5.0740   -4.5930 ha        1 TI1      0.157500
     48 HZ2        -2.5990   -3.4540   -5.2500 ha        1 TI1      0.159000
     49 HN3         5.0720   -2.4490   -3.4640 hn        1 TI1      0.341500
     50 HA3         6.5920   -0.5100   -1.8730 h1        1 TI1      0.093700
     51 HB31        8.5860   -1.5600   -2.8770 hc        1 TI1      0.073367
     52 HB32        7.5890   -2.5240   -4.0390 hc        1 TI1      0.073367
     53 HB33        7.4860   -2.8640   -2.2490 hc        1 TI1      0.073367
     54 H22         0.7100   -1.0310   -2.4520 hn        1 TI1      0.481800
     55 H32         5.9010    1.3920   -2.8300 ho        1 TI1      0.445000
@<TRIPOS>BOND
     1    1    2 1   
     2    1   27 1   
     3    2    3 1   
     4    2    8 1   
     5    2   28 1   
     6    3    4 1   
     7    3   29 1   
     8    3   30 1   
     9    4    5 1   
    10    4   31 1   
    11    4   32 1   
    12    5    6 1   
    13    5   33 1   
    14    5   34 1   
    15    6    7 1   
    16    6   35 1   
    17    6   36 1   
    18    7   37 1   
    19    7   38 1   
    20    7   39 1   
    21    8    9 2   
    22    8   10 1   
    23   10   11 1   
    24   10   40 1   
    25   10   54 1   
    26   11   12 1   
    27   11   19 1   
    28   11   41 1   
    29   12   13 1   
    30   12   42 1   
    31   12   43 1   
    32   13   14 ar  
    33   13   15 ar  
    34   14   16 ar  
    35   14   44 1   
    36   15   17 ar  
    37   15   45 1   
    38   16   18 ar  
    39   16   46 1   
    40   17   18 ar  
    41   17   47 1   
    42   18   48 1   
    43   19   20 2   
    44   19   21 1   
    45   21   22 1   
    46   21   49 1   
    47   22   23 1   
    48   22   24 1   
    49   22   50 1   
    50   23   51 1   
    51   23   52 1   
    52   23   53 1   
    53   24   25 1   
    54   24   26 2   
    55   25   55 1   
@<TRIPOS>SUBSTRUCTURE
     1 TI1         1 TEMP              0 ****  ****    0 ROOT
