@<TRIPOS>MOLECULE
TI1
   55    55     1     0     0
SMALL
bcc


@<TRIPOS>ATOM
      1 SG          1.1210    1.2150   -0.8790 sh        1 TI1     -0.350900
      2 CA1         2.2700    0.1820   -0.0020 c3        1 TI1     -0.061600
      3 CB1         2.0380    0.0600    1.4920 c3        1 TI1     -0.081400
      4 CG1         2.3570    1.3580    2.2060 c3        1 TI1     -0.086400
      5 CD1         2.0590    1.2380    3.6860 c3        1 TI1     -0.079400
      6 CE1         2.3830    2.5280    4.4110 c3        1 TI1     -0.079400
      7 CF1         2.0870    2.4180    5.8840 c3        1 TI1     -0.096100
      8 C1          2.2200   -1.1780   -0.6510 c         1 TI1      0.552100
      9 O1          1.9810   -2.2580   -0.1390 o         1 TI1     -0.400100
     10 N2          2.4670   -1.1470   -2.1510 n4        1 TI1     -0.680800
     11 CA2         2.8810   -2.4560   -2.7510 c3        1 TI1      0.034500
     12 CB2         2.3730   -2.6190   -4.1880 c3        1 TI1     -0.049100
     13 CG2         0.8870   -2.5700   -4.2350 ca        1 TI1     -0.155300
     14 CD3         0.2330   -1.4000   -4.6440 ca        1 TI1     -0.129000
     15 CD4         0.1340   -3.7010   -3.9000 ca        1 TI1     -0.129000
     16 CE3        -1.1580   -1.3630   -4.7100 ca        1 TI1     -0.113500
     17 CE4        -1.2580   -3.6600   -3.9660 ca        1 TI1     -0.113500
     18 CZ2        -1.9050   -2.4920   -4.3700 ca        1 TI1     -0.100000
     19 C2          4.4160   -2.6150   -2.6500 c         1 TI1      0.636100
     20 O2          4.8850   -3.4140   -1.8310 o         1 TI1     -0.500100
     21 N3          5.2090   -1.8370   -3.4850 n         1 TI1     -0.540900
     22 CA3         6.4500   -1.3000   -2.9700 c3        1 TI1      0.009700
     23 CB3         7.3650   -0.7750   -4.0740 c3        1 TI1     -0.113100
     24 C3          6.1760   -0.1800   -1.9560 c         1 TI1      0.623100
     25 O3          7.1840    0.4200   -1.2900 oh        1 TI1     -0.530100
     26 OXT         5.0480    0.2350   -1.6450 o         1 TI1     -0.595000
     27 HS          0.0600    1.1420   -0.0770 hs        1 TI1      0.255800
     28 HA1         3.2930    0.6390   -0.1780 h1        1 TI1      0.168700
     29 HB11        0.9750   -0.2410    1.6900 hc        1 TI1      0.074200
     30 HB12        2.6910   -0.7600    1.8990 hc        1 TI1      0.074200
     31 HG11        1.7530    2.1950    1.7640 hc        1 TI1      0.057200
     32 HG12        3.4390    1.6150    2.0590 hc        1 TI1      0.057200
     33 HD11        0.9770    0.9850    3.8360 hc        1 TI1      0.046700
     34 HD12        2.6610    0.3990    4.1260 hc        1 TI1      0.046700
     35 HE11        3.4670    2.7790    4.2610 hc        1 TI1      0.043200
     36 HE12        1.7850    3.3680    3.9670 hc        1 TI1      0.043200
     37 HF11        1.0070    2.1930    6.0550 hc        1 TI1      0.040033
     38 HF12        2.3330    3.3780    6.3990 hc        1 TI1      0.040033
     39 HF13        2.6930    1.6030    6.3490 hc        1 TI1      0.040033
     40 HN2         3.1830   -0.4240   -2.3330 hn        1 TI1      0.480800
     41 HA2         2.4250   -3.2860   -2.1180 hx        1 TI1      0.157700
     42 HB21        2.8020   -1.8340   -4.8650 hc        1 TI1      0.088200
     43 HB22        2.7410   -3.6180   -4.5530 hc        1 TI1      0.088200
     44 HD3         0.8150   -0.5170   -4.9510 ha        1 TI1      0.137000
     45 HD4         0.6420   -4.6300   -3.5950 ha        1 TI1      0.137000
     46 HE3        -1.6680   -0.4450   -5.0440 ha        1 TI1      0.154000
     47 HE4        -1.8450   -4.5560   -3.7090 ha        1 TI1      0.154000
     48 HZ2        -3.0050   -2.4630   -4.4300 ha        1 TI1      0.156000
     49 HN3         4.7640   -1.2910   -4.1880 hn        1 TI1      0.313500
     50 HA3         6.9790   -2.1340   -2.4090 h1        1 TI1      0.126700
     51 HB31        7.5940   -1.5890   -4.8050 hc        1 TI1      0.071367
     52 HB32        8.3270   -0.4270   -3.6240 hc        1 TI1      0.071367
     53 HB33        6.8970    0.0780   -4.6220 hc        1 TI1      0.071367
     54 H22         1.5800   -0.8440   -2.5950 hn        1 TI1      0.480800
     55 H32         8.0400    0.0490   -1.5600 ho        1 TI1      0.452000
@<TRIPOS>BOND
     1    1    2 1   
     2    1   27 1   
     3    2    3 1   
     4    2    8 1   
     5    2   28 1   
     6    3    4 1   
     7    3   29 1   
     8    3   30 1   
     9    4    5 1   
    10    4   31 1   
    11    4   32 1   
    12    5    6 1   
    13    5   33 1   
    14    5   34 1   
    15    6    7 1   
    16    6   35 1   
    17    6   36 1   
    18    7   37 1   
    19    7   38 1   
    20    7   39 1   
    21    8    9 2   
    22    8   10 1   
    23   10   11 1   
    24   10   40 1   
    25   10   54 1   
    26   11   12 1   
    27   11   19 1   
    28   11   41 1   
    29   12   13 1   
    30   12   42 1   
    31   12   43 1   
    32   13   14 ar  
    33   13   15 ar  
    34   14   16 ar  
    35   14   44 1   
    36   15   17 ar  
    37   15   45 1   
    38   16   18 ar  
    39   16   46 1   
    40   17   18 ar  
    41   17   47 1   
    42   18   48 1   
    43   19   20 2   
    44   19   21 1   
    45   21   22 1   
    46   21   49 1   
    47   22   23 1   
    48   22   24 1   
    49   22   50 1   
    50   23   51 1   
    51   23   52 1   
    52   23   53 1   
    53   24   25 1   
    54   24   26 2   
    55   25   55 1   
@<TRIPOS>SUBSTRUCTURE
     1 TI1         1 TEMP              0 ****  ****    0 ROOT
