@<TRIPOS>MOLECULE
TI2
   64    66     1     0     0
SMALL
bcc


@<TRIPOS>ATOM
      1 SG          0.1420   -0.4950   -0.0340 sh        1 TI2     -0.350900
      2 CA1         1.9090   -0.3360    0.0460 c3        1 TI2     -0.061600
      3 CB1         2.4680    0.3780    1.2680 c3        1 TI2     -0.019100
      4 CG1         2.2090    1.8420    1.2090 ca        1 TI2     -0.126300
      5 CD1         1.4170    2.4560    2.1840 ca        1 TI2     -0.116500
      6 CD2         2.7930    2.6160    0.1980 ca        1 TI2     -0.116500
      7 CE1         1.2060    3.8340    2.1460 ca        1 TI2     -0.122000
      8 CE2         2.5760    3.9920    0.1630 ca        1 TI2     -0.122000
      9 CZ1         1.7830    4.6020    1.1350 ca        1 TI2     -0.107000
     10 C1          2.4570   -1.7360   -0.0330 c         1 TI2      0.561100
     11 O1          3.1740   -2.3360    0.7510 o         1 TI2     -0.431100
     12 N2          2.0250   -2.4850   -1.2800 n4        1 TI2     -0.717800
     13 CA2         2.7220   -3.7750   -1.5280 c3        1 TI2      0.065500
     14 CB2         2.0210   -4.5870   -2.6350 c3        1 TI2     -0.051100
     15 CG2         0.6290   -4.9180   -2.2290 ca        1 TI2     -0.165300
     16 CD3        -0.4380   -4.1300   -2.6800 ca        1 TI2     -0.124000
     17 CD4         0.3770   -6.0370   -1.4270 ca        1 TI2     -0.124000
     18 CE3        -1.7450   -4.4570   -2.3230 ca        1 TI2     -0.113000
     19 CE4        -0.9320   -6.3600   -1.0720 ca        1 TI2     -0.113000
     20 CZ2        -1.9940   -5.5710   -1.5180 ca        1 TI2     -0.093000
     21 C2          4.2200   -3.6650   -1.8430 c         1 TI2      0.520100
     22 O2          5.0750   -4.1420   -1.1100 o         1 TI2     -0.376100
     23 N3          4.6650   -3.0520   -3.1190 n4        1 TI2     -0.664800
     24 CA3         5.2230   -1.6550   -2.9180 c3        1 TI2     -0.007500
     25 CB3         6.1140   -1.2430   -4.0890 c3        1 TI2     -0.041100
     26 CG3         7.1950   -2.2290   -4.3460 ca        1 TI2     -0.190300
     27 CD5         7.0510   -3.1840   -5.3630 ca        1 TI2     -0.095000
     28 CE5         8.0590   -4.1020   -5.6260 ca        1 TI2     -0.179000
     29 CD6         8.3800   -2.1890   -3.6020 ca        1 TI2     -0.095000
     30 CE6         9.4030   -3.1000   -3.8490 ca        1 TI2     -0.179000
     31 CZ3         9.2400   -4.0600   -4.8600 ca        1 TI2      0.154100
     32 OH         10.1890   -5.0000   -5.1590 oh        1 TI2     -0.480100
     33 C3          4.0230   -0.6610   -2.8040 c         1 TI2      0.897600
     34 O3          4.1360    0.3160   -2.0440 o         1 TI2     -0.773300
     35 OXT         2.9670   -1.0010   -3.4380 o         1 TI2     -0.773300
     36 HS         -0.1890   -0.2160    1.2250 hs        1 TI2      0.259800
     37 HA1         2.2370    0.2420   -0.8810 h1        1 TI2      0.192700
     38 HB11        2.0330   -0.0700    2.2010 hc        1 TI2      0.075200
     39 HB12        3.5810    0.2060    1.3050 hc        1 TI2      0.075200
     40 HD1         0.9660    1.8580    2.9900 ha        1 TI2      0.142500
     41 HD2         3.4260    2.1370   -0.5700 ha        1 TI2      0.142500
     42 HE1         0.5850    4.3140    2.9170 ha        1 TI2      0.145000
     43 HE2         3.0350    4.5970   -0.6340 ha        1 TI2      0.145000
     44 HZ1         1.6150    5.6900    1.1060 ha        1 TI2      0.145000
     45 HN2         2.1150   -1.8390   -2.1150 hn        1 TI2      0.505300
     46 HA2         2.6740   -4.3710   -0.5550 hx        1 TI2      0.157700
     47 HB21        2.0100   -4.0140   -3.6020 hc        1 TI2      0.087700
     48 HB22        2.6110   -5.5310   -2.7910 hc        1 TI2      0.087700
     49 HD3        -0.2540   -3.2690   -3.3420 ha        1 TI2      0.141000
     50 HD4         1.2080   -6.6720   -1.0860 ha        1 TI2      0.141000
     51 HE3        -2.5830   -3.8410   -2.6870 ha        1 TI2      0.158000
     52 HE4        -1.1280   -7.2450   -0.4460 ha        1 TI2      0.158000
     53 HZ2        -3.0280   -5.8320   -1.2430 ha        1 TI2      0.159000
     54 HN3         5.4020   -3.6330   -3.5530 hn        1 TI2      0.477800
     55 HA3         5.8230   -1.6630   -1.9640 hx        1 TI2      0.114700
     56 HB31        5.4860   -1.0910   -5.0090 hc        1 TI2      0.100700
     57 HB32        6.5460   -0.2400   -3.8150 hc        1 TI2      0.100700
     58 HD5         6.1470   -3.1830   -5.9930 ha        1 TI2      0.139000
     59 HE5         7.9620   -4.8480   -6.4290 ha        1 TI2      0.160500
     60 HD6         8.5120   -1.4230   -2.8210 ha        1 TI2      0.139000
     61 HE6        10.3350   -3.0600   -3.2670 ha        1 TI2      0.160500
     62 HO         10.9790   -4.8230   -4.6230 ho        1 TI2      0.435000
     63 H22         1.0120   -2.6920   -1.1760 hn        1 TI2      0.505300
     64 H32         3.8660   -2.9500   -3.7710 hn        1 TI2      0.477800
@<TRIPOS>BOND
     1    1    2 1   
     2    1   36 1   
     3    2    3 1   
     4    2   10 1   
     5    2   37 1   
     6    3    4 1   
     7    3   38 1   
     8    3   39 1   
     9    4    5 ar  
    10    4    6 ar  
    11    5    7 ar  
    12    5   40 1   
    13    6    8 ar  
    14    6   41 1   
    15    7    9 ar  
    16    7   42 1   
    17    8    9 ar  
    18    8   43 1   
    19    9   44 1   
    20   10   11 2   
    21   10   12 1   
    22   12   13 1   
    23   12   45 1   
    24   12   63 1   
    25   13   14 1   
    26   13   21 1   
    27   13   46 1   
    28   14   15 1   
    29   14   47 1   
    30   14   48 1   
    31   15   16 ar  
    32   15   17 ar  
    33   16   18 ar  
    34   16   49 1   
    35   17   19 ar  
    36   17   50 1   
    37   18   20 ar  
    38   18   51 1   
    39   19   20 ar  
    40   19   52 1   
    41   20   53 1   
    42   21   22 2   
    43   21   23 1   
    44   23   24 1   
    45   23   54 1   
    46   23   64 1   
    47   24   25 1   
    48   24   33 1   
    49   24   55 1   
    50   25   26 1   
    51   25   56 1   
    52   25   57 1   
    53   26   27 ar  
    54   26   29 ar  
    55   27   28 ar  
    56   27   58 1   
    57   28   31 ar  
    58   28   59 1   
    59   29   30 ar  
    60   29   60 1   
    61   30   31 ar  
    62   30   61 1   
    63   31   32 1   
    64   32   62 1   
    65   33   34 1   
    66   33   35 1   
@<TRIPOS>SUBSTRUCTURE
     1 TI2         1 TEMP              0 ****  ****    0 ROOT
