@<TRIPOS>MOLECULE
TI2
   62    58     1     0     0
SMALL
bcc


@<TRIPOS>ATOM
      1 SG         -0.7170    2.4150    4.7840 sh        1 TI2     -0.046000
      2 CA1        -0.4910    2.3560    3.0270 c3        1 TI2     -0.210000
      3 CB1         0.6540    3.2620    2.6350 c3        1 TI2     -0.120000
      4 CG1         0.2330    4.7090    2.8040 c2        1 TI2     -0.081000
      5 CD1         0.8010    5.4820    3.8060 c2        1 TI2     -0.123000
      6 CD2        -0.6360    5.2880    1.8920 c1        1 TI2     -0.119000
      7 CE1         0.5000    6.8320    3.8950 c1        1 TI2     -0.137000
      8 CE2        -0.9370    6.6380    1.9810 c1        1 TI2     -0.137000
      9 CZ1        -0.3690    7.4100    2.9820 c1        1 TI2     -0.137000
     10 C1         -0.1760    0.9340    2.6060 c2        1 TI2      0.301000
     11 O1          0.8190    0.3810    3.0320 o         1 TI2     -0.390000
     12 N2         -1.0650    0.2350    1.7460 n         1 TI2     -0.333000
     13 CA2        -0.6330   -0.9470    1.0890 c3        1 TI2     -0.015000
     14 CB2        -1.8370   -1.7600    0.6700 c3        1 TI2     -0.142000
     15 CG2        -2.1600   -2.7750    1.7460 c2        1 TI2     -0.089000
     16 CD3        -3.3300   -2.6550    2.4820 c2        1 TI2     -0.130000
     17 CD4        -1.3470   -3.8840    1.9160 c1        1 TI2     -0.120000
     18 CE3        -3.6840   -3.6430    3.3870 c1        1 TI2     -0.147000
     19 CE4        -1.7020   -4.8720    2.8220 c1        1 TI2     -0.137000
     20 CZ2        -2.8710   -4.7510    3.5570 c1        1 TI2     -0.137000
     21 C2          0.1780   -0.5760   -0.1370 c2        1 TI2      0.274000
     22 O2          0.3600    0.5930   -0.4140 o         1 TI2     -0.404000
     23 N3          0.7190   -1.5970   -0.9670 n         1 TI2     -0.294000
     24 CA3         1.0260   -1.3190   -2.3270 c3        1 TI2     -0.092000
     25 CB3         1.5230   -2.5800   -3.0010 c3        1 TI2     -0.106000
     26 CG3         2.0660   -2.2390   -4.3750 c2        1 TI2     -0.084000
     27 CD5         3.4120   -2.4230   -4.6540 c2        1 TI2     -0.107000
     28 CE5         3.9010   -2.1490   -5.9220 c1        1 TI2     -0.172000
     29 CD6         1.2100   -1.7810   -5.3640 c1        1 TI2     -0.084000
     30 CE6         1.6990   -1.5070   -6.6320 c1        1 TI2     -0.215000
     31 CZ3         3.0440   -1.6910   -6.9110 c1        1 TI2      0.050000
     32 OH          3.5450   -1.3930   -8.1930 oh        1 TI2     -0.271000
     33 C3         -0.2150   -0.8260   -3.0330 c2        1 TI2      0.327000
     34 O3         -0.2300    0.3200   -3.5550 o         1 TI2     -0.568500
     35 OXT        -1.2370   -1.5600   -3.0980 o         1 TI2     -0.568500
     36 HS         -1.8510    2.6230    5.0270 hs        1 TI2      0.074000
     37 HA1        -1.3070    2.6530    2.5830 h1        1 TI2      0.146000
     38 HB11        1.4260    3.0780    3.2070 hc        1 TI2      0.109000
     39 HB12        0.8940    3.0990    1.7010 hc        1 TI2      0.109000
     40 HD1         1.4130    5.0750    4.4480 ha        1 TI2      0.152000
     41 HD2        -1.0250    4.7480    1.1780 ha        1 TI2      0.146000
     42 HE1         0.9000    7.3760    4.6000 ha        1 TI2      0.125000
     43 HE2        -1.5490    7.0460    1.3390 ha        1 TI2      0.124500
     44 HZ1        -0.5810    8.3620    3.0450 ha        1 TI2      0.124500
     45 HN2        -1.9230    0.5250    1.6450 hn        1 TI2      0.243000
     46 HA2        -0.0790   -1.4750    1.6980 h1        1 TI2      0.137000
     47 HB21       -2.6030   -1.1650    0.5420 hc        1 TI2      0.120000
     48 HB22       -1.6410   -2.2240   -0.1690 hc        1 TI2      0.120000
     49 HD3        -3.9030   -1.8740    2.3620 ha        1 TI2      0.147000
     50 HD4        -0.5240   -3.9700    1.3990 ha        1 TI2      0.203000
     51 HE3        -4.5210   -3.5710    3.8860 ha        1 TI2      0.118000
     52 HE4        -1.1290   -5.6530    2.9420 ha        1 TI2      0.124500
     53 HZ2        -3.1200   -5.4470    4.1950 ha        1 TI2      0.124500
     54 HN3         0.8990   -2.4200   -0.6190 hn        1 TI2      0.223000
     55 HA3         1.7210   -0.6310   -2.3700 h1        1 TI2      0.123000
     56 HB31        2.2340   -2.9810   -2.4600 hc        1 TI2      0.090000
     57 HB32        0.7840   -3.2150   -3.0900 hc        1 TI2      0.090000
     58 HD5         4.0090   -2.7760   -3.9670 ha        1 TI2      0.124000
     59 HE5         4.8480   -2.2840   -6.1200 ha        1 TI2      0.131000
     60 HD6         0.2560   -1.6850   -5.1770 ha        1 TI2      0.203000
     61 HE6         1.1000   -1.1640   -7.3220 ha        1 TI2      0.123000
     62 HO          3.2210   -1.9760   -8.7800 ho        1 TI2      0.207000
@<TRIPOS>BOND
     1    1    2 1   
     2    1   36 1   
     3    2    3 1   
     4    2   10 1   
     5    2   37 1   
     6    3    4 1   
     7    3   38 1   
     8    3   39 1   
     9    4    5 1   
    10    4    6 1   
    11    5    7 1   
    12    5   40 1   
    13    6   41 1   
    14    7   42 1   
    15    8    9 1   
    16    8   43 1   
    17    9   44 1   
    18   10   11 1   
    19   10   12 1   
    20   12   13 1   
    21   12   45 1   
    22   13   14 1   
    23   13   21 1   
    24   13   46 1   
    25   14   15 1   
    26   14   47 1   
    27   14   48 1   
    28   15   16 1   
    29   15   17 1   
    30   16   18 1   
    31   16   49 1   
    32   17   50 1   
    33   18   51 1   
    34   19   20 1   
    35   19   52 1   
    36   20   53 1   
    37   21   22 1   
    38   21   23 1   
    39   23   24 1   
    40   23   54 1   
    41   24   25 1   
    42   24   33 1   
    43   24   55 1   
    44   25   26 1   
    45   25   56 1   
    46   25   57 1   
    47   26   27 1   
    48   26   29 1   
    49   27   28 1   
    50   27   58 1   
    51   28   59 1   
    52   29   60 1   
    53   30   31 1   
    54   30   61 1   
    55   31   32 1   
    56   32   62 1   
    57   33   34 1   
    58   33   35 1   
@<TRIPOS>SUBSTRUCTURE
     1 TI2         1 TEMP              0 ****  ****    0 ROOT
