@<TRIPOS>MOLECULE
TI2
   64    66     1     0     0
SMALL
bcc


@<TRIPOS>ATOM
      1 SG          0.8480    0.6040   -0.6080 sh        1 TI2     -0.363900
      2 CA1         1.9930   -0.7200   -0.2420 c3        1 TI2     -0.050600
      3 CB1         2.5690   -0.6380    1.1650 c3        1 TI2     -0.025100
      4 CG1         3.6710    0.3600    1.2380 ca        1 TI2     -0.126300
      5 CD1         3.5060    1.5400    1.9720 ca        1 TI2     -0.120000
      6 CD2         4.8950    0.1030    0.6080 ca        1 TI2     -0.120000
      7 CE1         4.5560    2.4540    2.0710 ca        1 TI2     -0.121000
      8 CE2         5.9410    1.0180    0.7080 ca        1 TI2     -0.121000
      9 CZ1         5.7720    2.1950    1.4390 ca        1 TI2     -0.106000
     10 C1          1.2350   -2.0030   -0.4340 c         1 TI2      0.564100
     11 O1          1.1940   -2.9820    0.2930 o         1 TI2     -0.401100
     12 N2          0.4300   -2.0880   -1.7160 n4        1 TI2     -0.685800
     13 CA2         0.9750   -3.1080   -2.6730 c3        1 TI2      0.068500
     14 CB2        -0.0620   -3.4920   -3.7440 c3        1 TI2     -0.046100
     15 CG2        -1.3180   -3.9870   -3.1240 ca        1 TI2     -0.158300
     16 CD3        -2.4080   -3.1230   -2.9550 ca        1 TI2     -0.130000
     17 CD4        -1.4320   -5.3280   -2.7370 ca        1 TI2     -0.130000
     18 CE3        -3.5950   -3.5950   -2.3980 ca        1 TI2     -0.113500
     19 CE4        -2.6210   -5.7960   -2.1790 ca        1 TI2     -0.113500
     20 CZ2        -3.7020   -4.9310   -2.0070 ca        1 TI2     -0.098000
     21 C2          2.2380   -2.5940   -3.3550 c         1 TI2      0.667100
     22 O2          2.6680   -1.4410   -3.3130 o         1 TI2     -0.531000
     23 N3          4.9320   -3.0520   -2.2480 n3        1 TI2     -0.921800
     24 CA3         5.1860   -2.7660   -3.6480 c3        1 TI2      0.098500
     25 CB3         6.5910   -3.1450   -4.1600 c3        1 TI2     -0.058100
     26 CG3         7.6380   -2.3770   -3.4390 ca        1 TI2     -0.151300
     27 CD5         8.1460   -2.8460   -2.2190 ca        1 TI2     -0.090000
     28 CE5         9.1350   -2.1450   -1.5410 ca        1 TI2     -0.181500
     29 CD6         8.1480   -1.1940   -3.9860 ca        1 TI2     -0.090000
     30 CE6         9.1410   -0.4770   -3.3250 ca        1 TI2     -0.181500
     31 CZ3         9.6310   -0.9530   -2.0990 ca        1 TI2      0.140100
     32 OH         10.5950   -0.2960   -1.3760 oh        1 TI2     -0.487100
     33 C3          4.1650   -3.4350   -4.5460 c         1 TI2      0.658100
     34 O3          4.2930   -3.9600   -5.6360 o         1 TI2     -0.400000
     35 OXT         2.8240   -3.5550   -4.1000 os        1 TI2     -0.459200
     36 HS          1.7040    1.5240   -1.0560 hs        1 TI2      0.276800
     37 HA1         2.8400   -0.7110   -0.9920 h1        1 TI2      0.149700
     38 HB11        1.7500   -0.3750    1.8880 hc        1 TI2      0.085700
     39 HB12        2.9660   -1.6500    1.4610 hc        1 TI2      0.085700
     40 HD1         2.5520    1.7450    2.4820 ha        1 TI2      0.132000
     41 HD2         5.0370   -0.8320    0.0450 ha        1 TI2      0.132000
     42 HE1         4.4220    3.3780    2.6540 ha        1 TI2      0.147500
     43 HE2         6.9040    0.8080    0.2190 ha        1 TI2      0.147500
     44 HZ1         6.6010    2.9150    1.5230 ha        1 TI2      0.149000
     45 HN2         0.4240   -1.1470   -2.1600 hn        1 TI2      0.483300
     46 HA2         1.2400   -4.0320   -2.0690 hx        1 TI2      0.147700
     47 HB21        0.4140   -4.2930   -4.3770 hc        1 TI2      0.102200
     48 HB22       -0.2670   -2.6140   -4.4130 hc        1 TI2      0.102200
     49 HD3        -2.3470   -2.0800   -3.3020 ha        1 TI2      0.137000
     50 HD4        -0.5880   -6.0180   -2.8880 ha        1 TI2      0.137000
     51 HE3        -4.4550   -2.9160   -2.2790 ha        1 TI2      0.155000
     52 HE4        -2.7080   -6.8540   -1.8830 ha        1 TI2      0.155000
     53 HZ2        -4.6440   -5.3040   -1.5730 ha        1 TI2      0.157000
     54 HN3         5.1880   -3.9980   -2.0320 hn        1 TI2      0.371300
     55 HA3         5.0380   -1.6490   -3.8010 h1        1 TI2      0.114700
     56 HB31        6.6360   -2.9320   -5.2620 hc        1 TI2      0.077200
     57 HB32        6.7560   -4.2470   -4.0300 hc        1 TI2      0.077200
     58 HD5         7.7740   -3.7940   -1.8000 ha        1 TI2      0.135000
     59 HE5         9.5450   -2.5090   -0.5880 ha        1 TI2      0.153500
     60 HD6         7.7700   -0.8290   -4.9540 ha        1 TI2      0.135000
     61 HE6         9.5450    0.4470   -3.7630 ha        1 TI2      0.153500
     62 HO         10.9260    0.4420   -1.9090 ho        1 TI2      0.429000
     63 H22        -0.5430   -2.3600   -1.4950 hn        1 TI2      0.483300
     64 H32         5.4870   -2.4340   -1.6830 hn        1 TI2      0.371300
@<TRIPOS>BOND
     1    1    2 1   
     2    1   36 1   
     3    2    3 1   
     4    2   10 1   
     5    2   37 1   
     6    3    4 1   
     7    3   38 1   
     8    3   39 1   
     9    4    5 ar  
    10    4    6 ar  
    11    5    7 ar  
    12    5   40 1   
    13    6    8 ar  
    14    6   41 1   
    15    7    9 ar  
    16    7   42 1   
    17    8    9 ar  
    18    8   43 1   
    19    9   44 1   
    20   10   11 2   
    21   10   12 1   
    22   12   13 1   
    23   12   45 1   
    24   12   63 1   
    25   13   14 1   
    26   13   21 1   
    27   13   46 1   
    28   14   15 1   
    29   14   47 1   
    30   14   48 1   
    31   15   16 ar  
    32   15   17 ar  
    33   16   18 ar  
    34   16   49 1   
    35   17   19 ar  
    36   17   50 1   
    37   18   20 ar  
    38   18   51 1   
    39   19   20 ar  
    40   19   52 1   
    41   20   53 1   
    42   21   22 2   
    43   21   35 1   
    44   23   24 1   
    45   23   54 1   
    46   23   64 1   
    47   24   25 1   
    48   24   33 1   
    49   24   55 1   
    50   25   26 1   
    51   25   56 1   
    52   25   57 1   
    53   26   27 ar  
    54   26   29 ar  
    55   27   28 ar  
    56   27   58 1   
    57   28   31 ar  
    58   28   59 1   
    59   29   30 ar  
    60   29   60 1   
    61   30   31 ar  
    62   30   61 1   
    63   31   32 1   
    64   32   62 1   
    65   33   34 2   
    66   33   35 1   
@<TRIPOS>SUBSTRUCTURE
     1 TI2         1 TEMP              0 ****  ****    0 ROOT
