@<TRIPOS>MOLECULE
TI2
   62    64     1     0     0
SMALL
bcc


@<TRIPOS>ATOM
      1 SG         -1.0260    2.6630    5.1440 sh        1 TI2     -0.414900
      2 CA1        -0.8470    1.1670    4.1850 c3        1 TI2     -0.033600
      3 CB1        -2.2470    0.7820    3.7310 c3        1 TI2     -0.034100
      4 CG1        -2.5090   -0.6800    3.8460 ca        1 TI2     -0.101300
      5 CD1        -2.6090   -1.2740    5.1110 ca        1 TI2     -0.128000
      6 CD2        -2.6860   -1.4660    2.7010 ca        1 TI2     -0.128000
      7 CE1        -2.8810   -2.6340    5.2300 ca        1 TI2     -0.129500
      8 CE2        -2.9570   -2.8300    2.8260 ca        1 TI2     -0.129500
      9 CZ1        -3.0550   -3.4150    4.0870 ca        1 TI2     -0.134000
     10 C1          0.1420    1.2850    3.0290 c         1 TI2      0.657100
     11 O1          0.9030    2.2730    2.9260 o         1 TI2     -0.636100
     12 N2          0.2160    0.2160    2.1690 n         1 TI2     -0.524900
     13 CA2         0.9220    0.2960    0.9070 c3        1 TI2      0.013700
     14 CB2         2.2380   -0.5160    0.9100 c3        1 TI2     -0.059100
     15 CG2         3.3720    0.2980    0.3920 ca        1 TI2     -0.094300
     16 CD3         3.7760    1.4580    1.0640 ca        1 TI2     -0.126000
     17 CD4         4.0570   -0.1100   -0.7600 ca        1 TI2     -0.126000
     18 CE3         4.8640    2.1940    0.6000 ca        1 TI2     -0.143500
     19 CE4         5.1460    0.6320   -1.2190 ca        1 TI2     -0.143500
     20 CZ2         5.5530    1.7800   -0.5400 ca        1 TI2     -0.143000
     21 C2          0.0300   -0.2030   -0.2680 c         1 TI2      0.635100
     22 O2         -1.1420   -0.5880   -0.0530 o         1 TI2     -0.652100
     23 N3          0.5790   -0.0990   -1.5280 n         1 TI2     -0.479900
     24 CA3         0.1330   -0.9850   -2.5940 c3        1 TI2     -0.064300
     25 CB3         0.0040   -0.2560   -3.9370 c3        1 TI2     -0.034100
     26 CG3        -1.1350    0.6990   -3.9810 ca        1 TI2     -0.074300
     27 CD5        -0.9140    2.0800   -3.9560 ca        1 TI2     -0.094500
     28 CE5        -1.9810    2.9750   -4.0170 ca        1 TI2     -0.186000
     29 CD6        -2.4510    0.2200   -4.0610 ca        1 TI2     -0.094500
     30 CE6        -3.5300    1.0950   -4.1230 ca        1 TI2     -0.186000
     31 CZ3        -3.2870    2.4770   -4.1020 ca        1 TI2      0.095100
     32 OH         -4.3910    3.3040   -4.1780 oh        1 TI2     -0.513100
     33 C3          1.1030   -2.2070   -2.8050 c         1 TI2      0.906600
     34 O3          0.7710   -3.0390   -3.6870 o         1 TI2     -0.831300
     35 OXT         2.1390   -2.2840   -2.0830 o         1 TI2     -0.831300
     36 HS          0.0380    3.3500    4.7360 hs        1 TI2      0.252800
     37 HA1        -0.4460    0.3860    4.8880 h1        1 TI2      0.098700
     38 HB11       -2.9960    1.3290    4.3720 hc        1 TI2      0.075200
     39 HB12       -2.4170    1.1250    2.6740 hc        1 TI2      0.075200
     40 HD1        -2.4730   -0.6580    6.0130 ha        1 TI2      0.153000
     41 HD2        -2.6010   -1.0180    1.6940 ha        1 TI2      0.153000
     42 HE1        -2.9570   -3.0930    6.2260 ha        1 TI2      0.133000
     43 HE2        -3.0840   -3.4410    1.9190 ha        1 TI2      0.133000
     44 HZ1        -3.2660   -4.4900    4.1810 ha        1 TI2      0.126000
     45 HN2        -0.4900   -0.4890    2.2220 hn        1 TI2      0.333500
     46 HA2         1.1670    1.3870    0.7140 h1        1 TI2      0.098700
     47 HB21        2.4900   -0.8480    1.9530 hc        1 TI2      0.083200
     48 HB22        2.1180   -1.4480    0.2880 hc        1 TI2      0.083200
     49 HD3         3.2170    1.7920    1.9550 ha        1 TI2      0.174500
     50 HD4         3.7210   -1.0140   -1.3090 ha        1 TI2      0.174500
     51 HE3         5.1760    3.1040    1.1310 ha        1 TI2      0.123000
     52 HE4         5.6800    0.3070   -2.1240 ha        1 TI2      0.123000
     53 HZ2         6.4120    2.3600   -0.9050 ha        1 TI2      0.114000
     54 HN3         1.5780    0.0170   -1.5410 hn        1 TI2      0.306500
     55 HA3        -0.8760   -1.4070   -2.3150 h1        1 TI2      0.078700
     56 HB31        0.9620    0.2740   -4.1780 hc        1 TI2      0.064200
     57 HB32       -0.1450   -1.0580   -4.7140 hc        1 TI2      0.064200
     58 HD5         0.1140    2.4660   -3.8790 ha        1 TI2      0.138500
     59 HE5        -1.8000    4.0580   -3.9920 ha        1 TI2      0.128000
     60 HD6        -2.6260   -0.8670   -4.0660 ha        1 TI2      0.138500
     61 HE6        -4.5620    0.7260   -4.1830 ha        1 TI2      0.128000
     62 HO         -4.0790    4.2130   -4.0760 ho        1 TI2      0.407000
@<TRIPOS>BOND
     1    1    2 1   
     2    1   36 1   
     3    2    3 1   
     4    2   10 1   
     5    2   37 1   
     6    3    4 1   
     7    3   38 1   
     8    3   39 1   
     9    4    5 ar  
    10    4    6 ar  
    11    5    7 ar  
    12    5   40 1   
    13    6    8 ar  
    14    6   41 1   
    15    7    9 ar  
    16    7   42 1   
    17    8    9 ar  
    18    8   43 1   
    19    9   44 1   
    20   10   11 2   
    21   10   12 1   
    22   12   13 1   
    23   12   45 1   
    24   13   14 1   
    25   13   21 1   
    26   13   46 1   
    27   14   15 1   
    28   14   47 1   
    29   14   48 1   
    30   15   16 ar  
    31   15   17 ar  
    32   16   18 ar  
    33   16   49 1   
    34   17   19 ar  
    35   17   50 1   
    36   18   20 ar  
    37   18   51 1   
    38   19   20 ar  
    39   19   52 1   
    40   20   53 1   
    41   21   22 2   
    42   21   23 1   
    43   23   24 1   
    44   23   54 1   
    45   24   25 1   
    46   24   33 1   
    47   24   55 1   
    48   25   26 1   
    49   25   56 1   
    50   25   57 1   
    51   26   27 ar  
    52   26   29 ar  
    53   27   28 ar  
    54   27   58 1   
    55   28   31 ar  
    56   28   59 1   
    57   29   30 ar  
    58   29   60 1   
    59   30   31 ar  
    60   30   61 1   
    61   31   32 1   
    62   32   62 1   
    63   33   34 1   
    64   33   35 1   
@<TRIPOS>SUBSTRUCTURE
     1 TI2         1 TEMP              0 ****  ****    0 ROOT
