@<TRIPOS>MOLECULE
TI2
   64    66     1     0     0
SMALL
bcc


@<TRIPOS>ATOM
      1 SG          0.5760    0.5370   -0.3750 sh        1 TI2     -0.402900
      2 CA1         2.0420   -0.4460   -0.1260 c3        1 TI2     -0.046600
      3 CB1         2.5120   -0.5310    1.3200 c3        1 TI2     -0.033100
      4 CG1         2.9610    0.7930    1.8270 ca        1 TI2     -0.136300
      5 CD1         2.2170    1.4600    2.8070 ca        1 TI2     -0.122000
      6 CD2         4.1530    1.3590    1.3580 ca        1 TI2     -0.122000
      7 CE1         2.6580    2.6860    3.3050 ca        1 TI2     -0.116500
      8 CE2         4.5890    2.5850    1.8570 ca        1 TI2     -0.116500
      9 CZ1         3.8410    3.2500    2.8300 ca        1 TI2     -0.101000
     10 C1          1.7310   -1.8230   -0.6500 c         1 TI2      0.563100
     11 O1          1.9560   -2.8970   -0.1180 o         1 TI2     -0.401100
     12 N2          1.0410   -1.8430   -1.9990 ny        1 TI2     -0.674800
     13 CA2         1.3570   -3.0460   -2.8410 c3        1 TI2      0.063500
     14 CB2         0.1890   -3.4140   -3.7720 c3        1 TI2     -0.047100
     15 CG2        -1.0640   -3.6410   -3.0080 ca        1 TI2     -0.157300
     16 CD3        -2.0390   -2.6370   -2.9400 ca        1 TI2     -0.129500
     17 CD4        -1.2960   -4.8720   -2.3830 ca        1 TI2     -0.129500
     18 CE3        -3.2270   -2.8610   -2.2470 ca        1 TI2     -0.114500
     19 CE4        -2.4850   -5.0920   -1.6900 ca        1 TI2     -0.114500
     20 CZ2        -3.4500   -4.0870   -1.6190 ca        1 TI2     -0.100000
     21 C2          2.6050   -2.7880   -3.6810 c         1 TI2      0.666100
     22 O2          3.1430   -1.6950   -3.8500 o         1 TI2     -0.523000
     23 N3          5.3020   -3.3990   -2.6800 n8        1 TI2     -0.919800
     24 CA3         5.4780   -3.3340   -4.1190 c3        1 TI2      0.098500
     25 CB3         6.7970   -3.9260   -4.6570 c3        1 TI2     -0.057100
     26 CG3         7.9660   -3.2120   -4.0830 ca        1 TI2     -0.150300
     27 CD5         8.5100   -3.6200   -2.8560 ca        1 TI2     -0.089000
     28 CE5         9.6100   -2.9690   -2.3130 ca        1 TI2     -0.181500
     29 CD6         8.5490   -2.1440   -4.7720 ca        1 TI2     -0.089000
     30 CE6         9.6530   -1.4780   -4.2460 ca        1 TI2     -0.181500
     31 CZ3        10.1800   -1.8910   -3.0140 ca        1 TI2      0.141100
     32 OH         11.2570   -1.2800   -2.4210 oh        1 TI2     -0.487100
     33 C3          4.3310   -4.0110   -4.8440 c         1 TI2      0.659100
     34 O3          4.3250   -4.7060   -5.8430 o         1 TI2     -0.404000
     35 OXT         3.0210   -3.9080   -4.3110 os        1 TI2     -0.458200
     36 HS          0.5700    1.2480    0.7640 hs        1 TI2      0.302800
     37 HA1         2.8720   -0.0050   -0.7510 h1        1 TI2      0.139700
     38 HB11        3.3650   -1.2640    1.3780 hc        1 TI2      0.084700
     39 HB12        1.6840   -0.9420    1.9600 hc        1 TI2      0.084700
     40 HD1         1.2930    1.0110    3.2030 ha        1 TI2      0.132500
     41 HD2         4.7530    0.8310    0.6030 ha        1 TI2      0.132500
     42 HE1         2.0720    3.2040    4.0800 ha        1 TI2      0.149500
     43 HE2         5.5280    3.0250    1.4870 ha        1 TI2      0.149500
     44 HZ1         4.1890    4.2170    3.2260 ha        1 TI2      0.152000
     45 HN2         1.3060   -0.9900   -2.5170 hn        1 TI2      0.483800
     46 HA2         1.5600   -3.9200   -2.1440 hx        1 TI2      0.156700
     47 HB21        0.0450   -2.6130   -4.5460 hc        1 TI2      0.102700
     48 HB22        0.5000   -4.3520   -4.3160 hc        1 TI2      0.102700
     49 HD3        -1.8900   -1.6830   -3.4690 ha        1 TI2      0.138500
     50 HD4        -0.5440   -5.6750   -2.4530 ha        1 TI2      0.138500
     51 HE3        -3.9960   -2.0730   -2.2060 ha        1 TI2      0.154500
     52 HE4        -2.6660   -6.0660   -1.2070 ha        1 TI2      0.154500
     53 HZ2        -4.3940   -4.2660   -1.0780 ha        1 TI2      0.156000
     54 HN3         5.5100   -4.3210   -2.3430 hn        1 TI2      0.371800
     55 HA3         5.4270   -2.2400   -4.4220 h1        1 TI2      0.115700
     56 HB31        6.8480   -5.0210   -4.4100 hc        1 TI2      0.076700
     57 HB32        6.7930   -3.8400   -5.7770 hc        1 TI2      0.076700
     58 HD5         8.0740   -4.4790   -2.3240 ha        1 TI2      0.134500
     59 HE5        10.0490   -3.2850   -1.3560 ha        1 TI2      0.153000
     60 HD6         8.1400   -1.8290   -5.7450 ha        1 TI2      0.134500
     61 HE6        10.1130   -0.6440   -4.7960 ha        1 TI2      0.153000
     62 HO         11.6030   -0.6120   -3.0320 ho        1 TI2      0.429000
     63 H22         0.0180   -1.8220   -1.8330 hn        1 TI2      0.483800
     64 H32         5.9300   -2.7500   -2.2430 hn        1 TI2      0.371800
@<TRIPOS>BOND
     1    1    2 1   
     2    1   36 1   
     3    2    3 1   
     4    2   10 1   
     5    2   37 1   
     6    3    4 1   
     7    3   38 1   
     8    3   39 1   
     9    4    5 ar  
    10    4    6 ar  
    11    5    7 ar  
    12    5   40 1   
    13    6    8 ar  
    14    6   41 1   
    15    7    9 ar  
    16    7   42 1   
    17    8    9 ar  
    18    8   43 1   
    19    9   44 1   
    20   10   11 2   
    21   10   12 1   
    22   12   13 1   
    23   12   45 1   
    24   12   63 1   
    25   13   14 1   
    26   13   21 1   
    27   13   46 1   
    28   14   15 1   
    29   14   47 1   
    30   14   48 1   
    31   15   16 ar  
    32   15   17 ar  
    33   16   18 ar  
    34   16   49 1   
    35   17   19 ar  
    36   17   50 1   
    37   18   20 ar  
    38   18   51 1   
    39   19   20 ar  
    40   19   52 1   
    41   20   53 1   
    42   21   22 2   
    43   21   35 1   
    44   23   24 1   
    45   23   54 1   
    46   23   64 1   
    47   24   25 1   
    48   24   33 1   
    49   24   55 1   
    50   25   26 1   
    51   25   56 1   
    52   25   57 1   
    53   26   27 ar  
    54   26   29 ar  
    55   27   28 ar  
    56   27   58 1   
    57   28   31 ar  
    58   28   59 1   
    59   29   30 ar  
    60   29   60 1   
    61   30   31 ar  
    62   30   61 1   
    63   31   32 1   
    64   32   62 1   
    65   33   34 2   
    66   33   35 1   
@<TRIPOS>SUBSTRUCTURE
     1 TI2         1 TEMP              0 ****  ****    0 ROOT
