@<TRIPOS>MOLECULE
TI3
   53    55     1     0     0
SMALL
bcc


@<TRIPOS>ATOM
      1 SG          0.9490    1.3540   -1.1430 sh        1 TI3     -0.362900
      2 CA1         2.1960    0.6260   -0.1040 c3        1 TI3     -0.047600
      3 CB1         1.4910    0.1310    1.1500 c3        1 TI3     -0.016100
      4 CG1         1.4630    1.1610    2.2250 ca        1 TI3     -0.090300
      5 CD1         0.2580    1.7650    2.6000 ca        1 TI3     -0.119000
      6 CD2         2.6460    1.5140    2.8860 ca        1 TI3     -0.119000
      7 CE1         0.2380    2.7110    3.6240 ca        1 TI3     -0.129000
      8 CE2         2.6220    2.4600    3.9090 ca        1 TI3     -0.129000
      9 CZ1         1.4180    3.0600    4.2790 ca        1 TI3     -0.126000
     10 C1          2.9310   -0.5220   -0.7810 c         1 TI3      0.643100
     11 O1          4.1500   -0.6930   -0.5890 o         1 TI3     -0.594100
     12 N2          2.1750   -1.4110   -1.5370 n         1 TI3     -0.526900
     13 CA2         2.8150   -2.3950   -2.3560 c3        1 TI3      0.016000
     14 C2          2.9400   -2.0090   -3.8370 c         1 TI3      0.646100
     15 O2          2.5900   -0.8880   -4.2680 o         1 TI3     -0.641100
     16 N3          3.4300   -2.9520   -4.7170 n         1 TI3     -0.465800
     17 CD3         3.9790   -4.2490   -4.3260 c3        1 TI3      0.154000
     18 CA3         3.7530   -2.6190   -6.0970 c3        1 TI3      0.016700
     19 CB3         4.7930   -3.6520   -6.5790 c3        1 TI3     -0.086400
     20 CG3         4.9020   -4.7060   -5.4840 c3        1 TI3     -0.085400
     21 CG4         2.9230   -5.2860   -4.0390 ca        1 TI3     -0.121300
     22 CD5         2.8810   -5.8990   -2.7810 ca        1 TI3     -0.116000
     23 CD4         1.9980   -5.6570   -5.0210 ca        1 TI3     -0.116000
     24 CE5         1.9280   -6.8800   -2.5130 ca        1 TI3     -0.129000
     25 CE4         1.0420   -6.6340   -4.7460 ca        1 TI3     -0.129000
     26 CZ3         1.0070   -7.2470   -3.4940 ca        1 TI3     -0.120000
     27 C3          2.5170   -2.6270   -6.9960 c         1 TI3      0.622100
     28 O3          2.2160   -3.4950   -7.8160 o         1 TI3     -0.503000
     29 OXT         1.6540   -1.5800   -6.9440 oh        1 TI3     -0.579100
     30 HS          1.7190    1.9000   -2.0710 hs        1 TI3      0.217800
     31 HA1         2.9710    1.3920    0.1680 h1        1 TI3      0.112700
     32 HB11        2.0290   -0.7790    1.5370 hc        1 TI3      0.070200
     33 HB12        0.4460   -0.1890    0.8860 hc        1 TI3      0.070200
     34 HD1        -0.6750    1.4970    2.0820 ha        1 TI3      0.136500
     35 HD2         3.5960    1.0400    2.5960 ha        1 TI3      0.136500
     36 HE1        -0.7130    3.1830    3.9130 ha        1 TI3      0.133000
     37 HE2         3.5540    2.7330    4.4240 ha        1 TI3      0.133000
     38 HZ1         1.4000    3.8060    5.0870 ha        1 TI3      0.132000
     39 HN2         1.9100   -0.9600   -6.2400 ho        1 TI3      0.459000
     40 HA21        3.8540   -2.5910   -1.9570 h1        1 TI3      0.097700
     41 HA22        2.2150   -3.3520   -2.2940 h1        1 TI3      0.097700
     42 HD3         4.6020   -4.1030   -3.3920 h1        1 TI3      0.058700
     43 HA3         4.1800   -1.5720   -6.1360 h1        1 TI3      0.086700
     44 HB31        5.7750   -3.1440   -6.7460 hc        1 TI3      0.074700
     45 HB32        4.4670   -4.1120   -7.5460 hc        1 TI3      0.074700
     46 HG31        5.9530   -4.7930   -5.1140 hc        1 TI3      0.066200
     47 HG32        4.5810   -5.7080   -5.8630 hc        1 TI3      0.066200
     48 HD5         3.6040   -5.6120   -2.0020 ha        1 TI3      0.143500
     49 HD4         2.0250   -5.1730   -6.0130 ha        1 TI3      0.143500
     50 HE5         1.9030   -7.3620   -1.5250 ha        1 TI3      0.138000
     51 HE4         0.3160   -6.9190   -5.5220 ha        1 TI3      0.138000
     52 HZ3         0.2540   -8.0200   -3.2800 ha        1 TI3      0.136000
     53 H22         1.2910   -1.0730   -1.8650 hn        1 TI3      0.332500
@<TRIPOS>BOND
     1    1    2 1   
     2    1   30 1   
     3    2    3 1   
     4    2   10 1   
     5    2   31 1   
     6    3    4 1   
     7    3   32 1   
     8    3   33 1   
     9    4    5 ar  
    10    4    6 ar  
    11    5    7 ar  
    12    5   34 1   
    13    6    8 ar  
    14    6   35 1   
    15    7    9 ar  
    16    7   36 1   
    17    8    9 ar  
    18    8   37 1   
    19    9   38 1   
    20   10   11 2   
    21   10   12 1   
    22   12   13 1   
    23   12   53 1   
    24   13   14 1   
    25   13   40 1   
    26   13   41 1   
    27   14   15 2   
    28   14   16 1   
    29   16   17 1   
    30   16   18 1   
    31   17   20 1   
    32   17   21 1   
    33   17   42 1   
    34   18   19 1   
    35   18   27 1   
    36   18   43 1   
    37   19   20 1   
    38   19   44 1   
    39   19   45 1   
    40   20   46 1   
    41   20   47 1   
    42   21   22 ar  
    43   21   23 ar  
    44   22   24 ar  
    45   22   48 1   
    46   23   25 ar  
    47   23   49 1   
    48   24   26 ar  
    49   24   50 1   
    50   25   26 ar  
    51   25   51 1   
    52   26   52 1   
    53   27   28 2   
    54   27   29 1   
    55   29   39 1   
@<TRIPOS>SUBSTRUCTURE
     1 TI3         1 TEMP              0 ****  ****    0 ROOT
