@<TRIPOS>MOLECULE
TI3
   53    55     1     0     0
SMALL
bcc


@<TRIPOS>ATOM
      1 SG          0.1560   -0.7840    0.7750 sh        1 TI3     -0.372900
      2 CA1         1.8280   -0.2290    0.4860 c3        1 TI3     -0.041600
      3 CB1         2.5540    0.1240    1.7710 c3        1 TI3     -0.040100
      4 CG1         2.0950    1.4250    2.3310 ca        1 TI3     -0.102300
      5 CD1         1.3340    1.4640    3.5050 ca        1 TI3     -0.126500
      6 CD2         2.4460    2.6260    1.7000 ca        1 TI3     -0.126500
      7 CE1         0.9260    2.6870    4.0370 ca        1 TI3     -0.127000
      8 CE2         2.0350    3.8460    2.2330 ca        1 TI3     -0.127000
      9 CZ1         1.2740    3.8780    3.4020 ca        1 TI3     -0.125000
     10 C1          2.5710   -1.3160   -0.2760 c         1 TI3      0.675100
     11 O1          3.7330   -1.6500    0.0260 o         1 TI3     -0.597100
     12 N2          1.8920   -1.9350   -1.3150 n         1 TI3     -0.536900
     13 CA2         2.5690   -2.7880   -2.2410 c3        1 TI3      0.024000
     14 C2          2.8070   -2.1530   -3.6190 c         1 TI3      0.646100
     15 O2          2.4700   -0.9780   -3.8840 o         1 TI3     -0.640100
     16 N3          3.3850   -2.9310   -4.6020 n         1 TI3     -0.466800
     17 CD3         3.9180   -4.2760   -4.3940 c3        1 TI3      0.155000
     18 CA3         3.8100   -2.3680   -5.8750 c3        1 TI3      0.016700
     19 CB3         4.9010   -3.3020   -6.4400 c3        1 TI3     -0.086400
     20 CG3         4.9360   -4.5280   -5.5350 c3        1 TI3     -0.085400
     21 CG4         2.8560   -5.3460   -4.3730 ca        1 TI3     -0.122300
     22 CD5         2.7150   -6.1540   -3.2410 ca        1 TI3     -0.116000
     23 CD4         2.0250   -5.5500   -5.4800 ca        1 TI3     -0.116000
     24 CE5         1.7550   -7.1660   -3.2200 ca        1 TI3     -0.129500
     25 CE4         1.0630   -6.5590   -5.4530 ca        1 TI3     -0.129500
     26 CZ3         0.9280   -7.3690   -4.3240 ca        1 TI3     -0.119000
     27 C3          2.6500   -2.2260   -6.8610 c         1 TI3      0.621100
     28 O3          2.4290   -2.9420   -7.8380 o         1 TI3     -0.504000
     29 OXT         1.7690   -1.2050   -6.7040 oh        1 TI3     -0.579100
     30 HS         -0.2500    0.2210    1.5400 hs        1 TI3      0.225800
     31 HA1         1.7950    0.6790   -0.1770 h1        1 TI3      0.097700
     32 HB11        2.4100   -0.7020    2.5180 hc        1 TI3      0.082200
     33 HB12        3.6600    0.1810    1.5580 hc        1 TI3      0.082200
     34 HD1         1.0630    0.5270    4.0140 ha        1 TI3      0.136000
     35 HD2         3.0530    2.6020    0.7830 ha        1 TI3      0.136000
     36 HE1         0.3300    2.7100    4.9620 ha        1 TI3      0.135000
     37 HE2         2.3150    4.7840    1.7320 ha        1 TI3      0.135000
     38 HZ1         0.9520    4.8420    3.8230 ha        1 TI3      0.134000
     39 HN2         1.0330   -1.5310   -1.6220 hn        1 TI3      0.332500
     40 HA21        3.5700   -3.0870   -1.8090 h1        1 TI3      0.098200
     41 HA22        1.9480   -3.7210   -2.3940 h1        1 TI3      0.098200
     42 HD3         4.4630   -4.2910   -3.4030 h1        1 TI3      0.059700
     43 HA3         4.2220   -1.3290   -5.7030 h1        1 TI3      0.085700
     44 HB31        4.6620   -3.5900   -7.4950 hc        1 TI3      0.074200
     45 HB32        5.8850   -2.7720   -6.4350 hc        1 TI3      0.074200
     46 HG31        4.6600   -5.4500   -6.1040 hc        1 TI3      0.065700
     47 HG32        5.9550   -4.6780   -5.1030 hc        1 TI3      0.065700
     48 HD5         3.3620   -5.9980   -2.3640 ha        1 TI3      0.144000
     49 HD4         2.1300   -4.9110   -6.3730 ha        1 TI3      0.144000
     50 HE5         1.6500   -7.8020   -2.3290 ha        1 TI3      0.138500
     51 HE4         0.4100   -6.7140   -6.3250 ha        1 TI3      0.138500
     52 HZ3         0.1690   -8.1650   -4.3050 ha        1 TI3      0.135000
     53 H22         1.9560   -0.7130   -5.8860 ho        1 TI3      0.459000
@<TRIPOS>BOND
     1    1    2 1   
     2    1   30 1   
     3    2    3 1   
     4    2   10 1   
     5    2   31 1   
     6    3    4 1   
     7    3   32 1   
     8    3   33 1   
     9    4    5 ar  
    10    4    6 ar  
    11    5    7 ar  
    12    5   34 1   
    13    6    8 ar  
    14    6   35 1   
    15    7    9 ar  
    16    7   36 1   
    17    8    9 ar  
    18    8   37 1   
    19    9   38 1   
    20   10   11 2   
    21   10   12 1   
    22   12   13 1   
    23   12   39 1   
    24   13   14 1   
    25   13   40 1   
    26   13   41 1   
    27   14   15 2   
    28   14   16 1   
    29   16   17 1   
    30   16   18 1   
    31   17   20 1   
    32   17   21 1   
    33   17   42 1   
    34   18   19 1   
    35   18   27 1   
    36   18   43 1   
    37   19   20 1   
    38   19   44 1   
    39   19   45 1   
    40   20   46 1   
    41   20   47 1   
    42   21   22 ar  
    43   21   23 ar  
    44   22   24 ar  
    45   22   48 1   
    46   23   25 ar  
    47   23   49 1   
    48   24   26 ar  
    49   24   50 1   
    50   25   26 ar  
    51   25   51 1   
    52   26   52 1   
    53   27   28 2   
    54   27   29 1   
    55   29   53 1   
@<TRIPOS>SUBSTRUCTURE
     1 TI3         1 TEMP              0 ****  ****    0 ROOT
