@<TRIPOS>MOLECULE
TI3
   52    54     1     0     0
SMALL
bcc


@<TRIPOS>ATOM
      1 SG          2.9010    1.9700    4.9510 sh        1 TI3     -0.417900
      2 CA1         1.9640    1.1450    3.6760 c3        1 TI3     -0.038600
      3 CB1         0.4890    1.5130    3.7920 c3        1 TI3     -0.041100
      4 CG1        -0.4060    0.3420    3.5720 ca        1 TI3     -0.116300
      5 CD1        -0.4850   -0.6740    4.5350 ca        1 TI3     -0.132500
      6 CD2        -1.1940    0.2580    2.4190 ca        1 TI3     -0.132500
      7 CE1        -1.3370   -1.7580    4.3410 ca        1 TI3     -0.126500
      8 CE2        -2.0440   -0.8330    2.2230 ca        1 TI3     -0.126500
      9 CZ1        -2.1160   -1.8390    3.1840 ca        1 TI3     -0.146000
     10 C1          2.4620    1.4190    2.2620 c         1 TI3      0.657100
     11 O1          3.3510    2.2640    2.0290 o         1 TI3     -0.620100
     12 N2          1.9230    0.6250    1.2580 n         1 TI3     -0.504900
     13 CA2         1.9220    1.0840   -0.1070 c3        1 TI3     -0.005000
     14 C2          0.5890    1.7580   -0.4960 c         1 TI3      0.648100
     15 O2          0.0250    2.5090    0.3330 o         1 TI3     -0.637100
     16 N3          0.0680    1.5480   -1.7440 n         1 TI3     -0.434800
     17 CD3         0.7640    0.9230   -2.8560 c3        1 TI3      0.161000
     18 CA3        -1.2900    1.9550   -2.1080 c3        1 TI3     -0.025300
     19 CB3        -1.3170    1.9900   -3.6480 c3        1 TI3     -0.080400
     20 CG3        -0.0910    1.2180   -4.1200 c3        1 TI3     -0.078400
     21 CG4         1.0190   -0.5620   -2.7530 ca        1 TI3     -0.109300
     22 CD5         2.2070   -1.0740   -3.2890 ca        1 TI3     -0.119500
     23 CD4         0.0900   -1.4340   -2.1750 ca        1 TI3     -0.119500
     24 CE5         2.4620   -2.4430   -3.2550 ca        1 TI3     -0.143000
     25 CE4         0.3530   -2.8040   -2.1410 ca        1 TI3     -0.143000
     26 CZ3         1.5340   -3.3120   -2.6810 ca        1 TI3     -0.141000
     27 C3         -2.4400    1.0400   -1.5680 c         1 TI3      0.916600
     28 O3         -2.1940    0.1830   -0.6720 o         1 TI3     -0.834300
     29 OXT        -3.5790    1.2360   -2.0700 o         1 TI3     -0.834300
     30 HS          3.5020    2.9180    4.2390 hs        1 TI3      0.247800
     31 HA1         2.0990    0.0530    3.9090 h1        1 TI3      0.103700
     32 HB11        0.3030    1.9270    4.8210 hc        1 TI3      0.078200
     33 HB12        0.2390    2.3250    3.0520 hc        1 TI3      0.078200
     34 HD1         0.1270   -0.6090    5.4460 ha        1 TI3      0.154000
     35 HD2        -1.1590    1.0460    1.6400 ha        1 TI3      0.154000
     36 HE1        -1.3960   -2.5500    5.1000 ha        1 TI3      0.153500
     37 HE2        -2.6340   -0.8750    1.2880 ha        1 TI3      0.153500
     38 HZ1        -2.7850   -2.6980    3.0330 ha        1 TI3      0.120000
     39 HN2         1.0970    0.1150    1.5120 hn        1 TI3      0.321500
     40 HA21        2.1230    0.1840   -0.7560 h1        1 TI3      0.083700
     41 HA22        2.7430    1.8400   -0.2600 h1        1 TI3      0.083700
     42 HD3         1.7700    1.4340   -2.9580 h1        1 TI3      0.031700
     43 HA3        -1.4760    2.9790   -1.6760 h1        1 TI3      0.069700
     44 HB31       -2.2680    1.5280   -4.0140 hc        1 TI3      0.056200
     45 HB32       -1.2810    3.0460   -4.0130 hc        1 TI3      0.056200
     46 HG31       -0.3900    0.2620   -4.6150 hc        1 TI3      0.040700
     47 HG32        0.5110    1.8130   -4.8470 hc        1 TI3      0.040700
     48 HD5         2.9450   -0.3940   -3.7410 ha        1 TI3      0.167000
     49 HD4        -0.8500   -1.0350   -1.7320 ha        1 TI3      0.167000
     50 HE5         3.3970   -2.8370   -3.6790 ha        1 TI3      0.123500
     51 HE4        -0.3810   -3.4830   -1.6830 ha        1 TI3      0.123500
     52 HZ3         1.7360   -4.3920   -2.6520 ha        1 TI3      0.116000
@<TRIPOS>BOND
     1    1    2 1   
     2    1   30 1   
     3    2    3 1   
     4    2   10 1   
     5    2   31 1   
     6    3    4 1   
     7    3   32 1   
     8    3   33 1   
     9    4    5 ar  
    10    4    6 ar  
    11    5    7 ar  
    12    5   34 1   
    13    6    8 ar  
    14    6   35 1   
    15    7    9 ar  
    16    7   36 1   
    17    8    9 ar  
    18    8   37 1   
    19    9   38 1   
    20   10   11 2   
    21   10   12 1   
    22   12   13 1   
    23   12   39 1   
    24   13   14 1   
    25   13   40 1   
    26   13   41 1   
    27   14   15 2   
    28   14   16 1   
    29   16   17 1   
    30   16   18 1   
    31   17   20 1   
    32   17   21 1   
    33   17   42 1   
    34   18   19 1   
    35   18   27 1   
    36   18   43 1   
    37   19   20 1   
    38   19   44 1   
    39   19   45 1   
    40   20   46 1   
    41   20   47 1   
    42   21   22 ar  
    43   21   23 ar  
    44   22   24 ar  
    45   22   48 1   
    46   23   25 ar  
    47   23   49 1   
    48   24   26 ar  
    49   24   50 1   
    50   25   26 ar  
    51   25   51 1   
    52   26   52 1   
    53   27   28 1   
    54   27   29 1   
@<TRIPOS>SUBSTRUCTURE
     1 TI3         1 TEMP              0 ****  ****    0 ROOT
