@<TRIPOS>MOLECULE
TI3
   53    55     1     0     0
SMALL
bcc


@<TRIPOS>ATOM
      1 SG          0.1570   -0.8280    0.7940 sh        1 TI3     -0.372900
      2 CA1         1.8570   -0.3350    0.5630 c3        1 TI3     -0.041600
      3 CB1         2.5740   -0.0820    1.8770 c3        1 TI3     -0.040100
      4 CG1         2.1620    1.2080    2.4960 ca        1 TI3     -0.102300
      5 CD1         1.3810    1.2220    3.6570 ca        1 TI3     -0.126500
      6 CD2         2.5780    2.4220    1.9350 ca        1 TI3     -0.126500
      7 CE1         1.0180    2.4330    4.2450 ca        1 TI3     -0.127000
      8 CE2         2.2120    3.6310    2.5230 ca        1 TI3     -0.127000
      9 CZ1         1.4310    3.6380    3.6790 ca        1 TI3     -0.125000
     10 C1          2.5660   -1.4150   -0.2410 c         1 TI3      0.675100
     11 O1          3.7050   -1.8160    0.0620 o         1 TI3     -0.597100
     12 N2          1.8790   -1.9480   -1.3230 ns        1 TI3     -0.536900
     13 CA2         2.5350   -2.7830   -2.2800 c3        1 TI3      0.024000
     14 C2          2.8270   -2.0910   -3.6190 c         1 TI3      0.646100
     15 O2          2.5470   -0.8900   -3.8300 o         1 TI3     -0.640100
     16 N3          3.3900   -2.8420   -4.6310 n         1 TI3     -0.466800
     17 CD3         3.8600   -4.2180   -4.4840 c3        1 TI3      0.155000
     18 CA3         3.8630   -2.2360   -5.8670 c3        1 TI3      0.016700
     19 CB3         4.9230   -3.1870   -6.4600 c3        1 TI3     -0.086400
     20 CG3         4.8870   -4.4570   -5.6190 c3        1 TI3     -0.085400
     21 CG4         2.7530   -5.2400   -4.5350 ca        1 TI3     -0.122300
     22 CD5         2.5550   -6.0980   -3.4480 ca        1 TI3     -0.116000
     23 CD4         1.9340   -5.3520   -5.6640 ca        1 TI3     -0.116000
     24 CE5         1.5530   -7.0660   -3.4940 ca        1 TI3     -0.129500
     25 CE4         0.9290   -6.3170   -5.7040 ca        1 TI3     -0.129500
     26 CZ3         0.7380   -7.1760   -4.6210 ca        1 TI3     -0.119000
     27 C3          2.7280   -1.9920   -6.8630 c         1 TI3      0.621100
     28 O3          2.4950   -2.6490   -7.8790 o         1 TI3     -0.504000
     29 OXT         1.8910   -0.9420   -6.6690 oh        1 TI3     -0.579100
     30 HS         -0.2190    0.1540    1.6030 hs        1 TI3      0.225800
     31 HA1         1.8770    0.6060   -0.0530 h1        1 TI3      0.097700
     32 HB11        3.6840   -0.0640    1.6860 hc        1 TI3      0.082200
     33 HB12        2.3780   -0.9380    2.5770 hc        1 TI3      0.082200
     34 HD1         1.0580    0.2730    4.1120 ha        1 TI3      0.136000
     35 HD2         3.2010    2.4180    1.0280 ha        1 TI3      0.136000
     36 HE1         0.4060    2.4350    5.1600 ha        1 TI3      0.135000
     37 HE2         2.5430    4.5800    2.0760 ha        1 TI3      0.135000
     38 HZ1         1.1440    4.5930    4.1440 ha        1 TI3      0.134000
     39 HN2         2.0840   -0.5000   -5.8240 ho        1 TI3      0.459000
     40 HA21        1.8770   -3.6790   -2.4910 h1        1 TI3      0.098200
     41 HA22        3.5140   -3.1480   -1.8470 h1        1 TI3      0.098200
     42 HD3         4.3860   -4.3070   -3.4850 h1        1 TI3      0.059700
     43 HA3         4.3160   -1.2250   -5.6350 h1        1 TI3      0.085700
     44 HB31        4.6910   -3.4110   -7.5320 hc        1 TI3      0.074200
     45 HB32        5.9280   -2.7030   -6.4120 hc        1 TI3      0.074200
     46 HG31        4.5820   -5.3360   -6.2390 hc        1 TI3      0.065700
     47 HG32        5.8910   -4.6750   -5.1780 hc        1 TI3      0.065700
     48 HD5         3.1920   -6.0150   -2.5540 ha        1 TI3      0.144000
     49 HD4         2.0840   -4.6730   -6.5220 ha        1 TI3      0.144000
     50 HE5         1.4040   -7.7410   -2.6390 ha        1 TI3      0.138500
     51 HE4         0.2860   -6.3990   -6.5940 ha        1 TI3      0.138500
     52 HZ3        -0.0540   -7.9380   -4.6550 ha        1 TI3      0.135000
     53 H22         1.0460   -1.4900   -1.6230 hn        1 TI3      0.332500
@<TRIPOS>BOND
     1    1    2 1   
     2    1   30 1   
     3    2    3 1   
     4    2   10 1   
     5    2   31 1   
     6    3    4 1   
     7    3   32 1   
     8    3   33 1   
     9    4    5 ar  
    10    4    6 ar  
    11    5    7 ar  
    12    5   34 1   
    13    6    8 ar  
    14    6   35 1   
    15    7    9 ar  
    16    7   36 1   
    17    8    9 ar  
    18    8   37 1   
    19    9   38 1   
    20   10   11 2   
    21   10   12 1   
    22   12   13 1   
    23   12   53 1   
    24   13   14 1   
    25   13   40 1   
    26   13   41 1   
    27   14   15 2   
    28   14   16 1   
    29   16   17 1   
    30   16   18 1   
    31   17   20 1   
    32   17   21 1   
    33   17   42 1   
    34   18   19 1   
    35   18   27 1   
    36   18   43 1   
    37   19   20 1   
    38   19   44 1   
    39   19   45 1   
    40   20   46 1   
    41   20   47 1   
    42   21   22 ar  
    43   21   23 ar  
    44   22   24 ar  
    45   22   48 1   
    46   23   25 ar  
    47   23   49 1   
    48   24   26 ar  
    49   24   50 1   
    50   25   26 ar  
    51   25   51 1   
    52   26   52 1   
    53   27   28 2   
    54   27   29 1   
    55   29   39 1   
@<TRIPOS>SUBSTRUCTURE
     1 TI3         1 TEMP              0 ****  ****    0 ROOT
