@<TRIPOS>MOLECULE
TI4
   34    37     1     0     0
SMALL
bcc


@<TRIPOS>ATOM
      1 C1          0.1140    0.0440   -0.1110 ca        1 TI4     -0.251300
      2 C2          1.4810    0.3570   -0.0580 ca        1 TI4      0.389200
      3 N3          2.1660    0.4770    1.0980 nb        1 TI4     -0.668000
      4 C4          1.4890    0.2830    2.2430 ca        1 TI4      0.410200
      5 C5          0.1110   -0.0430    2.3010 ca        1 TI4     -0.185600
      6 C6         -0.5750   -0.1580    1.0880 ca        1 TI4     -0.096000
      7 C7         -0.5510   -0.1680    3.6440 c3        1 TI4      0.206800
      8 N8          0.2730   -0.9260    4.6190 n3        1 TI4     -0.671600
      9 C9         -0.3310   -0.7890    5.9510 c3        1 TI4      0.143300
     10 C10        -1.7650   -1.3490    6.0000 c3        1 TI4     -0.096200
     11 C11        -2.6130   -0.5930    4.9810 c3        1 TI4     -0.072400
     12 C12        -1.9920   -0.7410    3.5920 c3        1 TI4     -0.088700
     13 C13        -1.9580   -2.2210    3.2220 c3        1 TI4     -0.072400
     14 C14        -1.1050   -2.9750    4.2380 c3        1 TI4     -0.096200
     15 C15        -1.7230   -2.8280    5.6260 c3        1 TI4     -0.071400
     16 C16         0.3020   -2.3450    4.2490 c3        1 TI4      0.143300
     17 H1         -0.4020   -0.0400   -1.0760 ha        1 TI4      0.141000
     18 H2          2.0630    0.5240   -0.9810 h4        1 TI4      0.020100
     19 H4          2.0810    0.3930    3.1710 h4        1 TI4      0.039100
     20 H6         -1.6470   -0.4040    1.0580 ha        1 TI4      0.138000
     21 H7         -0.6270    0.8920    4.0430 h1        1 TI4      0.067700
     22 H92        -0.3370    0.2990    6.2330 h1        1 TI4      0.057700
     23 H93         0.3170   -1.3400    6.6850 h1        1 TI4      0.057700
     24 H10        -2.1870   -1.2200    7.0290 hc        1 TI4      0.058700
     25 H113       -3.6560   -1.0010    4.9740 hc        1 TI4      0.044950
     26 H112       -2.6690    0.4900    5.2610 hc        1 TI4      0.044950
     27 H12        -2.6040   -0.1660    2.8520 hc        1 TI4      0.056700
     28 H133       -2.9990   -2.6340    3.2140 hc        1 TI4      0.044950
     29 H132       -1.5250   -2.3510    2.1970 hc        1 TI4      0.044950
     30 H14        -1.0320   -4.0560    3.9580 hc        1 TI4      0.058700
     31 H152       -2.7590   -3.2540    5.6310 hc        1 TI4      0.043700
     32 H153       -1.1130   -3.3920    6.3760 hc        1 TI4      0.043700
     33 H163        0.9550   -2.8870    4.9860 h1        1 TI4      0.057700
     34 H162        0.7650   -2.4330    3.2290 h1        1 TI4      0.057700
@<TRIPOS>BOND
     1    1    2 ar  
     2    1    6 ar  
     3    1   17 1   
     4    2    3 ar  
     5    2   18 1   
     6    3    4 ar  
     7    4    5 ar  
     8    4   19 1   
     9    5    6 ar  
    10    5    7 1   
    11    6   20 1   
    12    7    8 1   
    13    7   12 1   
    14    7   21 1   
    15    8    9 1   
    16    8   16 1   
    17    9   10 1   
    18    9   22 1   
    19    9   23 1   
    20   10   11 1   
    21   10   15 1   
    22   10   24 1   
    23   11   12 1   
    24   11   25 1   
    25   11   26 1   
    26   12   13 1   
    27   12   27 1   
    28   13   14 1   
    29   13   28 1   
    30   13   29 1   
    31   14   15 1   
    32   14   16 1   
    33   14   30 1   
    34   15   31 1   
    35   15   32 1   
    36   16   33 1   
    37   16   34 1   
@<TRIPOS>SUBSTRUCTURE
     1 TI4         1 TEMP              0 ****  ****    0 ROOT
