@<TRIPOS>MOLECULE
TI4
   34    37     1     0     0
SMALL
bcc


@<TRIPOS>ATOM
      1 C1          0.1130    0.0430   -0.1110 ca        1 TI4     -0.251300
      2 C2          1.4780    0.3670   -0.0560 ca        1 TI4      0.389200
      3 N3          2.1590    0.4940    1.1010 nb        1 TI4     -0.668000
      4 C4          1.4810    0.2970    2.2440 ca        1 TI4      0.410200
      5 C5          0.1060   -0.0400    2.3010 ca        1 TI4     -0.185600
      6 C6         -0.5770   -0.1620    1.0870 ca        1 TI4     -0.096000
      7 C7         -0.5580   -0.1670    3.6430 c3        1 TI4      0.206800
      8 N8          0.2700   -0.9160    4.6210 n3        1 TI4     -0.671600
      9 C9         -0.3380   -0.7810    5.9510 c3        1 TI4      0.143300
     10 C10        -1.7680   -1.3520    5.9980 c3        1 TI4     -0.096200
     11 C11        -2.6200   -0.6040    4.9760 c3        1 TI4     -0.072400
     12 C12        -1.9950   -0.7510    3.5890 c3        1 TI4     -0.088700
     13 C13        -1.9480   -2.2320    3.2220 c3        1 TI4     -0.072400
     14 C14        -1.0920   -2.9770    4.2410 c3        1 TI4     -0.096200
     15 C15        -1.7140   -2.8310    5.6270 c3        1 TI4     -0.071400
     16 C16         0.3100   -2.3360    4.2540 c3        1 TI4      0.143300
     17 H1         -0.4000   -0.0470   -1.0770 ha        1 TI4      0.141000
     18 H2          2.0610    0.5350   -0.9790 h4        1 TI4      0.020100
     19 H4          2.0700    0.4130    3.1740 h4        1 TI4      0.039100
     20 H6         -1.6460   -0.4170    1.0540 ha        1 TI4      0.138000
     21 H7         -0.6430    0.8930    4.0400 h1        1 TI4      0.067700
     22 H92        -0.3530    0.3070    6.2310 h1        1 TI4      0.057700
     23 H93         0.3130   -1.3260    6.6880 h1        1 TI4      0.057700
     24 H10        -2.1930   -1.2240    7.0260 hc        1 TI4      0.058700
     25 H113       -3.6590   -1.0200    4.9670 hc        1 TI4      0.044950
     26 H112       -2.6840    0.4790    5.2540 hc        1 TI4      0.044950
     27 H12        -2.6100   -0.1810    2.8460 hc        1 TI4      0.056700
     28 H133       -2.9860   -2.6520    3.2130 hc        1 TI4      0.044950
     29 H132       -1.5130   -2.3600    2.1980 hc        1 TI4      0.044950
     30 H14        -1.0100   -4.0580    3.9640 hc        1 TI4      0.058700
     31 H152       -1.1010   -3.3900    6.3800 hc        1 TI4      0.043700
     32 H153       -2.7460   -3.2650    5.6310 hc        1 TI4      0.043700
     33 H163        0.7760   -2.4230    3.2350 h1        1 TI4      0.057700
     34 H162        0.9650   -2.8720    4.9930 h1        1 TI4      0.057700
@<TRIPOS>BOND
     1    1    2 ar  
     2    1    6 ar  
     3    1   17 1   
     4    2    3 ar  
     5    2   18 1   
     6    3    4 ar  
     7    4    5 ar  
     8    4   19 1   
     9    5    6 ar  
    10    5    7 1   
    11    6   20 1   
    12    7    8 1   
    13    7   12 1   
    14    7   21 1   
    15    8    9 1   
    16    8   16 1   
    17    9   10 1   
    18    9   22 1   
    19    9   23 1   
    20   10   11 1   
    21   10   15 1   
    22   10   24 1   
    23   11   12 1   
    24   11   25 1   
    25   11   26 1   
    26   12   13 1   
    27   12   27 1   
    28   13   14 1   
    29   13   28 1   
    30   13   29 1   
    31   14   15 1   
    32   14   16 1   
    33   14   30 1   
    34   15   31 1   
    35   15   32 1   
    36   16   33 1   
    37   16   34 1   
@<TRIPOS>SUBSTRUCTURE
     1 TI4         1 TEMP              0 ****  ****    0 ROOT
