@<TRIPOS>MOLECULE
TI9
   25    26     1     0     0
SMALL
bcc


@<TRIPOS>ATOM
      1 C13        -0.1920    0.7200    0.7070 c3        1 TI9     -0.090400
      2 C12         1.1850    0.6030    0.0720 c3        1 TI9     -0.100400
      3 C11         1.9320   -0.4800    0.8670 c3        1 TI9      0.144800
      4 N10         1.0290   -1.1040    1.8280 n3        1 TI9     -0.792200
      5 C9         -0.2400   -0.3530    1.8290 c3        1 TI9      0.238600
      6 C8         -1.4270   -1.1690    1.7110 c1        1 TI9     -0.122100
      7 C7         -2.4230   -1.8320    1.6320 cg        1 TI9     -0.114000
      8 C5         -3.5900   -2.6040    1.5390 ca        1 TI9     -0.090300
      9 C6         -3.9630   -3.4930    2.5630 ca        1 TI9     -0.071000
     10 C1         -5.1330   -4.2360    2.4170 ca        1 TI9     -0.248300
     11 C4         -4.4320   -2.5100    0.4020 ca        1 TI9      0.416200
     12 N3         -5.5620   -3.2230    0.2560 nb        1 TI9     -0.665000
     13 C2         -5.8990   -4.0690    1.2500 ca        1 TI9      0.400200
     14 H131       -0.3480    1.7320    1.1520 hc        1 TI9      0.055200
     15 H132       -0.9990    0.5480   -0.0450 hc        1 TI9      0.055200
     16 H121        1.1050    0.3130   -1.0050 hc        1 TI9      0.049700
     17 H122        1.7370    1.5730    0.1210 hc        1 TI9      0.049700
     18 H112        2.3860   -1.2380    0.1730 h1        1 TI9      0.047200
     19 H111        2.7690   -0.0140    1.4570 h1        1 TI9      0.047200
     20 HN10        0.8730   -2.0670    1.5970 hn        1 TI9      0.359800
     21 H14        -0.2820    0.1700    2.8350 h1        1 TI9      0.083700
     22 H6         -3.3380   -3.5960    3.4620 ha        1 TI9      0.147000
     23 H1         -5.4550   -4.9390    3.1970 ha        1 TI9      0.146000
     24 H4         -4.1800   -1.8250   -0.4270 h4        1 TI9      0.029100
     25 H2         -6.8330   -4.6390    1.0970 h4        1 TI9      0.024100
@<TRIPOS>BOND
     1    1    2 1   
     2    1    5 1   
     3    1   14 1   
     4    1   15 1   
     5    2    3 1   
     6    2   16 1   
     7    2   17 1   
     8    3    4 1   
     9    3   18 1   
    10    3   19 1   
    11    4    5 1   
    12    4   20 1   
    13    5    6 1   
    14    5   21 1   
    15    6    7 3   
    16    7    8 1   
    17    8    9 ar  
    18    8   11 ar  
    19    9   10 ar  
    20    9   22 1   
    21   10   13 ar  
    22   10   23 1   
    23   11   12 ar  
    24   11   24 1   
    25   12   13 ar  
    26   13   25 1   
@<TRIPOS>SUBSTRUCTURE
     1 TI9         1 TEMP              0 ****  ****    0 ROOT
