@<TRIPOS>MOLECULE
TI9
   25    26     1     0     0
SMALL
bcc


@<TRIPOS>ATOM
      1 C13         0.1680   -0.1740   -0.0400 c3        1 TI9     -0.090400
      2 C12         1.6430   -0.3380    0.2950 c3        1 TI9     -0.099400
      3 C11         1.7670   -0.0940    1.8070 c3        1 TI9      0.144800
      4 N10         0.4410    0.0590    2.3970 n7        1 TI9     -0.792200
      5 C9         -0.5520    0.0970    1.3090 c3        1 TI9      0.238600
      6 C8         -1.6760   -0.7960    1.4820 c1        1 TI9     -0.123100
      7 C7         -2.6230   -1.5170    1.6180 cg        1 TI9     -0.113000
      8 C5         -3.7350   -2.3580    1.7780 ca        1 TI9     -0.090300
      9 C6         -4.0690   -3.3230    0.8120 ca        1 TI9     -0.073000
     10 C1         -5.1850   -4.1310    1.0250 ca        1 TI9     -0.249300
     11 C4         -4.5580   -2.2560    2.9280 ca        1 TI9      0.418200
     12 N3         -5.6340   -3.0320    3.1390 nb        1 TI9     -0.664000
     13 C2         -5.9360   -3.9500    2.2000 ca        1 TI9      0.400200
     14 H131       -0.2380   -1.0900   -0.5330 hc        1 TI9      0.054200
     15 H132        0.0030    0.6890   -0.7310 hc        1 TI9      0.054200
     16 H121        2.2690    0.3940   -0.2710 hc        1 TI9      0.049700
     17 H122        1.9990   -1.3640    0.0330 hc        1 TI9      0.049700
     18 H112        2.3440   -0.9250    2.2950 h1        1 TI9      0.047200
     19 H111        2.3240    0.8650    1.9970 h1        1 TI9      0.047200
     20 HN10        0.2450   -0.6900    3.0340 hn        1 TI9      0.360800
     21 H14        -0.9550    1.1580    1.3030 h1        1 TI9      0.084700
     22 H6         -3.4580   -3.4350   -0.0950 ha        1 TI9      0.145000
     23 H1         -5.4760   -4.8950    0.2920 ha        1 TI9      0.146000
     24 H4         -4.3340   -1.5110    3.7130 h4        1 TI9      0.031100
     25 H2         -6.8270   -4.5700    2.4050 h4        1 TI9      0.024100
@<TRIPOS>BOND
     1    1    2 1   
     2    1    5 1   
     3    1   14 1   
     4    1   15 1   
     5    2    3 1   
     6    2   16 1   
     7    2   17 1   
     8    3    4 1   
     9    3   18 1   
    10    3   19 1   
    11    4    5 1   
    12    4   20 1   
    13    5    6 1   
    14    5   21 1   
    15    6    7 3   
    16    7    8 1   
    17    8    9 ar  
    18    8   11 ar  
    19    9   10 ar  
    20    9   22 1   
    21   10   13 ar  
    22   10   23 1   
    23   11   12 ar  
    24   11   24 1   
    25   12   13 ar  
    26   13   25 1   
@<TRIPOS>SUBSTRUCTURE
     1 TI9         1 TEMP              0 ****  ****    0 ROOT
