@<TRIPOS>MOLECULE
TIA
   28    29     1     0     0
SMALL
bcc


@<TRIPOS>ATOM
      1 S1          0.7110    1.7800   -1.2970 ss        1 TIA      0.035700
      2 C2          0.2630    0.1850   -0.8380 cc        1 TIA      0.347700
      3 N3          1.2690   -0.5480   -0.3420 nd        1 TIA     -0.642000
      4 C4          2.4300    0.2130   -0.3350 cd        1 TIA      0.280800
      5 C5          2.2750    1.5110   -0.8290 cc        1 TIA     -0.220400
      6 C6          3.7440   -0.2850    0.1560 c         1 TIA      0.595600
      7 O6          4.7340    0.4770    0.1950 o         1 TIA     -0.619100
      8 N6          3.8550   -1.5880    0.5620 n         1 TIA     -0.658000
      9 C1'        -1.1140   -0.3720   -1.0150 c3        1 TIA      0.072800
     10 C2'        -1.6330   -1.0980    0.2490 c3        1 TIA      0.140100
     11 O2'        -1.5780   -2.4970    0.1090 oh        1 TIA     -0.556800
     12 C3'        -3.1030   -0.6430    0.3830 c3        1 TIA      0.119100
     13 O3'        -3.9450   -1.6850   -0.0650 oh        1 TIA     -0.556800
     14 C4'        -3.2160    0.5970   -0.5300 c3        1 TIA      0.104100
     15 O4'        -2.0210    0.6920   -1.3250 os        1 TIA     -0.417600
     16 C5'        -3.3830    1.8820    0.2520 c3        1 TIA     -0.111100
     17 H5          3.0950    2.2300   -0.8840 h4        1 TIA      0.208000
     18 HN61        3.0890   -2.2100    0.5350 hn        1 TIA      0.319500
     19 HN62        4.7310   -1.9170    0.8830 hn        1 TIA      0.319500
     20 H1'        -1.1210   -1.0770   -1.8960 h1        1 TIA      0.096700
     21 H2'        -1.0600   -0.7740    1.1610 h1        1 TIA      0.058700
     22 HO2'       -0.6390   -2.7240    0.0500 ho        1 TIA      0.412000
     23 H3'        -3.3330   -0.3830    1.4510 h1        1 TIA      0.054700
     24 HO3'       -4.8450   -1.4280    0.1730 ho        1 TIA      0.399000
     25 H4'        -4.0560    0.4650   -1.2670 h1        1 TIA      0.074700
     26 H5'1       -2.5710    1.9950    1.0090 hc        1 TIA      0.047700
     27 H5'2       -3.3410    2.7560   -0.4420 hc        1 TIA      0.047700
     28 H5'3       -4.3690    1.8780    0.7740 hc        1 TIA      0.047700
@<TRIPOS>BOND
     1    1    2 1   
     2    1    5 1   
     3    2    3 2   
     4    2    9 1   
     5    3    4 1   
     6    4    5 2   
     7    4    6 1   
     8    5   17 1   
     9    6    7 2   
    10    6    8 1   
    11    8   18 1   
    12    8   19 1   
    13    9   10 1   
    14    9   15 1   
    15    9   20 1   
    16   10   11 1   
    17   10   12 1   
    18   10   21 1   
    19   11   22 1   
    20   12   13 1   
    21   12   14 1   
    22   12   23 1   
    23   13   24 1   
    24   14   15 1   
    25   14   16 1   
    26   14   25 1   
    27   16   26 1   
    28   16   27 1   
    29   16   28 1   
@<TRIPOS>SUBSTRUCTURE
     1 TIA         1 TEMP              0 ****  ****    0 ROOT
