@<TRIPOS>MOLECULE
TIA
   29    30     1     0     0
SMALL
bcc


@<TRIPOS>ATOM
      1 S1          0.7400    1.7130   -0.0650 ss        1 TIA      0.232700
      2 C2          1.9700    0.5030   -0.1490 cc        1 TIA      0.370700
      3 N3          2.2090   -0.1220    1.0060 nd        1 TIA     -0.653000
      4 C4          1.3610    0.4070    1.9820 cd        1 TIA      0.188800
      5 C5          0.5000    1.4210    1.5240 cc        1 TIA     -0.199400
      6 C6          1.3690   -0.0420    3.3580 c         1 TIA      0.499600
      7 O6          0.6650    0.3030    4.2950 o         1 TIA     -0.418100
      8 N6          2.4100   -1.0950    3.6970 n4        1 TIA     -0.748400
      9 C1'         2.7300    0.2320   -1.4130 c3        1 TIA      0.067800
     10 C2'         2.7020   -1.2520   -1.8420 c3        1 TIA      0.091100
     11 O2'         3.9400   -1.8900   -1.6250 oh        1 TIA     -0.574800
     12 C3'         2.4510   -1.2100   -3.3700 c3        1 TIA      0.133100
     13 O3'         3.6290   -1.3830   -4.1240 oh        1 TIA     -0.574800
     14 C4'         1.9470    0.2200   -3.6510 c3        1 TIA      0.137100
     15 O4'         2.1430    1.0090   -2.4550 os        1 TIA     -0.427600
     16 C5'         0.4840    0.2580   -4.0260 c3        1 TIA     -0.114100
     17 H5         -0.2240    1.9330    2.1690 h4        1 TIA      0.222000
     18 HN61        2.3500   -1.3410    4.6910 hn        1 TIA      0.471467
     19 HN62        3.3460   -0.7320    3.4890 hn        1 TIA      0.471467
     20 H1'         3.7960    0.5850   -1.2880 h1        1 TIA      0.110700
     21 H2'         1.8780   -1.8080   -1.3210 h1        1 TIA      0.053700
     22 HO2'        4.0800   -1.9210   -0.6710 ho        1 TIA      0.413000
     23 H3'         1.6920   -1.9860   -3.6590 h1        1 TIA      0.068700
     24 HO3'        4.0600   -2.1940   -3.8170 ho        1 TIA      0.432000
     25 H4'         2.5840    0.7120   -4.4400 h1        1 TIA      0.110700
     26 H5'1        0.3450   -0.2390   -5.0170 hc        1 TIA      0.054367
     27 H5'2       -0.1420   -0.2670   -3.2670 hc        1 TIA      0.054367
     28 H5'3        0.1390    1.3170   -4.1030 hc        1 TIA      0.054367
     29 H63         2.2510   -1.9310    3.1260 hn        1 TIA      0.471467
@<TRIPOS>BOND
     1    1    2 1   
     2    1    5 1   
     3    2    3 2   
     4    2    9 1   
     5    3    4 1   
     6    4    5 2   
     7    4    6 1   
     8    5   17 1   
     9    6    7 2   
    10    6    8 1   
    11    8   18 1   
    12    8   19 1   
    13    8   29 1   
    14    9   10 1   
    15    9   15 1   
    16    9   20 1   
    17   10   11 1   
    18   10   12 1   
    19   10   21 1   
    20   11   22 1   
    21   12   13 1   
    22   12   14 1   
    23   12   23 1   
    24   13   24 1   
    25   14   15 1   
    26   14   16 1   
    27   14   25 1   
    28   16   26 1   
    29   16   27 1   
    30   16   28 1   
@<TRIPOS>SUBSTRUCTURE
     1 TIA         1 TEMP              0 ****  ****    0 ROOT
