@<TRIPOS>MOLECULE
TIA
   29    30     1     0     0
SMALL
bcc


@<TRIPOS>ATOM
      1 S1          0.5770    1.6100   -0.0920 ss        1 TIA      0.205700
      2 C2          1.9150    0.5140   -0.1290 cc        1 TIA      0.379700
      3 N3          2.1960   -0.0460    1.0480 nd        1 TIA     -0.636000
      4 C4          1.2940    0.4320    2.0010 cd        1 TIA      0.186800
      5 C5          0.3480    1.3470    1.5060 cc        1 TIA     -0.192400
      6 C6          1.3420    0.0160    3.3870 c         1 TIA      0.500600
      7 O6          0.6140    0.3210    4.3190 o         1 TIA     -0.421100
      8 N6          2.4700   -0.9390    3.7400 nz        1 TIA     -0.747400
      9 C1'         2.7230    0.2660   -1.3690 c3        1 TIA      0.069800
     10 C2'         2.8360   -1.2330   -1.7340 c3        1 TIA      0.103100
     11 O2'         4.1390   -1.7170   -1.5310 oh        1 TIA     -0.582800
     12 C3'         2.4000   -1.3140   -3.2170 c3        1 TIA      0.083100
     13 O3'         3.5180   -1.6100   -4.0310 oh        1 TIA     -0.584800
     14 C4'         1.9170    0.0980   -3.5950 c3        1 TIA      0.138100
     15 O4'         2.1090    0.9600   -2.4530 os        1 TIA     -0.427600
     16 C5'         0.4570    0.1300   -3.9860 c3        1 TIA     -0.112100
     17 H5         -0.4270    1.8100    2.1280 h4        1 TIA      0.221000
     18 HN61        2.3850   -1.7930    3.1780 hn        1 TIA      0.472467
     19 HN62        2.4320   -1.1760    4.7370 hn        1 TIA      0.472467
     20 H1'         3.7490    0.7160   -1.2260 h1        1 TIA      0.105700
     21 H2'         2.1860   -1.8730   -1.0800 h1        1 TIA      0.091700
     22 HO2'        4.7160   -1.3220   -2.2040 ho        1 TIA      0.430000
     23 H3'         1.5900   -2.0760   -3.3570 h1        1 TIA      0.073700
     24 HO3'        3.6800   -2.5610   -3.9590 ho        1 TIA      0.425000
     25 H4'         2.5630    0.5300   -4.4110 h1        1 TIA      0.105700
     26 H5'1        0.3180   -0.4350   -4.9400 hc        1 TIA      0.055367
     27 H5'2        0.1300    1.1860   -4.1410 hc        1 TIA      0.055367
     28 H5'3       -0.1830   -0.3290   -3.1960 hc        1 TIA      0.055367
     29 H63         3.3710   -0.5000    3.5230 hn        1 TIA      0.472467
@<TRIPOS>BOND
     1    1    2 1   
     2    1    5 1   
     3    2    3 2   
     4    2    9 1   
     5    3    4 1   
     6    4    5 2   
     7    4    6 1   
     8    5   17 1   
     9    6    7 2   
    10    6    8 1   
    11    8   18 1   
    12    8   19 1   
    13    8   29 1   
    14    9   10 1   
    15    9   15 1   
    16    9   20 1   
    17   10   11 1   
    18   10   12 1   
    19   10   21 1   
    20   11   22 1   
    21   12   13 1   
    22   12   14 1   
    23   12   23 1   
    24   13   24 1   
    25   14   15 1   
    26   14   16 1   
    27   14   25 1   
    28   16   26 1   
    29   16   27 1   
    30   16   28 1   
@<TRIPOS>SUBSTRUCTURE
     1 TIA         1 TEMP              0 ****  ****    0 ROOT
