@<TRIPOS>MOLECULE
TIB
   41    36     1     0     0
SMALL
bcc


@<TRIPOS>ATOM
      1 N1         -1.7070   -1.4190   -1.5910 n2        1 TIB     -0.197000
      2 C2         -0.2750   -1.4080   -1.6620 c2        1 TIB     -0.022000
      3 C3          0.3350   -1.4000   -0.2750 c3        1 TIB     -0.006000
      4 N4          0.4960   -0.0680    0.2010 n3        1 TIB     -0.283000
      5 C5         -0.2510    0.8560   -0.5970 c3        1 TIB     -0.012000
      6 C6         -2.6860    1.2240    0.3520 c1        1 TIB     -0.115000
      7 C7         -4.0490    1.1400    0.0800 c1        1 TIB     -0.057000
      8 CL7        -5.3410    2.0310    0.8150 cl        1 TIB     -0.011000
      9 C8         -4.5010    0.4110   -1.0370 c2        1 TIB     -0.122000
     10 C9         -3.5750   -0.2350   -1.8790 c1        1 TIB      0.009000
     11 N10        -3.8840   -1.5580   -2.1260 n1        1 TIB     -0.256000
     12 C11        -2.7440   -2.2980   -1.9520 c2        1 TIB      0.110000
     13 S11        -2.6000   -3.9550   -2.1730 s         1 TIB     -0.229000
     14 C12        -2.2040   -0.1550   -1.6040 c1        1 TIB      0.008000
     15 C13        -1.7530    0.5760   -0.4940 c1        1 TIB     -0.046000
     16 C14        -0.5780   -2.1700    0.6790 c3        1 TIB     -0.213000
     17 C15         1.9060    0.2890    0.1660 c3        1 TIB     -0.024000
     18 C16         2.3340    0.7670    1.5240 c2        1 TIB     -0.181000
     19 C17         3.5700    1.3470    1.6910 c1        1 TIB     -0.111000
     20 C18         4.5030    1.5060    0.4970 c2        1 TIB     -0.185000
     21 C19         4.0040    1.8270    3.0610 c3        1 TIB     -0.181000
     22 H21         0.0170   -0.6090   -2.1460 ha        1 TIB      0.118000
     23 H22         0.0290   -2.2030   -2.1430 ha        1 TIB      0.118000
     24 H3          1.2040   -1.8350   -0.3060 h1        1 TIB      0.070000
     25 H51        -0.0730    1.7630   -0.2900 h1        1 TIB      0.088000
     26 H52         0.0260    0.7730   -1.5260 h1        1 TIB      0.088000
     27 H6         -2.3700    1.7650    1.1040 ha        1 TIB      0.153000
     28 H8         -5.4530    0.3520   -1.2260 ha        1 TIB      0.158000
     29 H10        -4.7150   -1.8890   -2.3040 DU        1 TIB      0.281000
     30 H141       -1.2920   -1.5800    0.9920 hc        1 TIB      0.086000
     31 H142       -0.0530   -2.4890    1.4510 hc        1 TIB      0.086000
     32 H143       -0.9670   -2.9340    0.2130 hc        1 TIB      0.086000
     33 H151        2.4410   -0.5050   -0.0890 h1        1 TIB      0.079000
     34 H152        2.0450    0.9960   -0.4850 h1        1 TIB      0.079000
     35 H16         1.7470    0.6670    2.2740 ha        1 TIB      0.141000
     36 H181        4.6660    0.6330    0.0930 ha        1 TIB      0.081333
     37 H182        4.0940    2.0950   -0.1570 ha        1 TIB      0.081333
     38 H183        5.3570    1.8910    0.7970 ha        1 TIB      0.081333
     39 H191        3.2300    2.2070    3.5360 hc        1 TIB      0.082000
     40 H192        4.7030    2.5210    2.9600 hc        1 TIB      0.082000
     41 H193        4.3640    1.0710    3.5740 hc        1 TIB      0.082000
@<TRIPOS>BOND
     1    1   12 1   
     2    1   14 1   
     3    2    3 1   
     4    2   22 1   
     5    2   23 1   
     6    3    4 1   
     7    3   16 1   
     8    3   24 1   
     9    4    5 1   
    10    4   17 1   
    11    5   15 1   
    12    5   25 1   
    13    5   26 1   
    14    6    7 1   
    15    6   27 1   
    16    7    9 1   
    17    9   10 1   
    18    9   28 1   
    19   11   12 1   
    20   12   13 1   
    21   14   15 1   
    22   16   30 1   
    23   16   31 1   
    24   16   32 1   
    25   17   18 1   
    26   17   33 1   
    27   17   34 1   
    28   18   19 1   
    29   18   35 1   
    30   19   21 1   
    31   20   36 1   
    32   20   37 1   
    33   20   38 1   
    34   21   39 1   
    35   21   40 1   
    36   21   41 1   
@<TRIPOS>SUBSTRUCTURE
     1 TIB         1 TEMP              0 ****  ****    0 ROOT
