@<TRIPOS>MOLECULE
TIB
   41    43     1     0     0
SMALL
bcc


@<TRIPOS>ATOM
      1 N1          1.3190    0.5870    1.4430 n         1 TIB     -0.290000
      2 C2          2.3190    0.7010    0.4180 c3        1 TIB      0.099000
      3 C3          2.1960   -0.3470   -0.7220 c3        1 TIB      0.187500
      4 N4          0.9660   -0.1100   -1.4740 n3        1 TIB     -0.758600
      5 C5         -0.1430   -0.9240   -1.0110 c3        1 TIB      0.227100
      6 C6         -2.0590   -0.8440    0.5620 ca        1 TIB     -0.131000
      7 C7         -2.6750   -0.5520    1.7810 ca        1 TIB      0.024400
      8 CL7        -4.3040   -0.9840    2.0120 cl        1 TIB     -0.088400
      9 C8         -1.9920    0.0860    2.8230 ca        1 TIB     -0.129000
     10 C9         -0.6640    0.4240    2.5910 ca        1 TIB     -0.000400
     11 N10         0.2850    1.0480    3.4130 n         1 TIB     -0.402100
     12 C11         1.5050    1.1670    2.7210 c         1 TIB      0.516400
     13 S11         2.8370    1.8120    3.3030 s         1 TIB     -0.515400
     14 C12        -0.0110    0.1350    1.3250 ca        1 TIB      0.019600
     15 C13        -0.7180   -0.5130    0.3120 ca        1 TIB     -0.054300
     16 C14         3.5020   -0.2800   -1.5100 c3        1 TIB     -0.105100
     17 C15         1.1010   -0.0810   -2.9210 c3        1 TIB      0.222000
     18 C16        -0.1080    0.4320   -3.6380 c2        1 TIB     -0.189200
     19 C17        -0.3730    0.1430   -4.9220 c2        1 TIB     -0.115400
     20 C18        -1.5550    0.7140   -5.6130 c3        1 TIB     -0.061400
     21 C19         0.4810   -0.7490   -5.7430 c3        1 TIB     -0.061400
     22 H21         3.3250    0.5720    0.9180 h1        1 TIB      0.078700
     23 H22         2.2770    1.7400   -0.0240 h1        1 TIB      0.078700
     24 H3          2.1600   -1.3780   -0.2450 h1        1 TIB      0.045700
     25 H51         0.1500   -2.0170   -0.9200 h1        1 TIB      0.051700
     26 H52        -0.9690   -0.8690   -1.7800 h1        1 TIB      0.051700
     27 H6         -2.6370   -1.3490   -0.2290 ha        1 TIB      0.151000
     28 H8         -2.4850    0.3070    3.7800 ha        1 TIB      0.158000
     29 H10         0.1400    1.3730    4.3350 hn        1 TIB      0.367500
     30 H141        4.3460   -0.5560   -0.8310 hc        1 TIB      0.048367
     31 H142        3.4910   -1.0000   -2.3620 hc        1 TIB      0.048367
     32 H143        3.6900    0.7480   -1.9020 hc        1 TIB      0.048367
     33 H151        1.9480    0.6240   -3.1740 h1        1 TIB      0.041200
     34 H152        1.3720   -1.1020   -3.3270 h1        1 TIB      0.041200
     35 H16        -0.7650    1.1100   -3.0680 ha        1 TIB      0.140000
     36 H181       -1.2250    1.3510   -6.4720 hc        1 TIB      0.042867
     37 H182       -2.1970   -0.1090   -6.0150 hc        1 TIB      0.042867
     38 H183       -2.1740    1.3420   -4.9260 hc        1 TIB      0.042867
     39 H191        0.4240   -1.8000   -5.3630 hc        1 TIB      0.042867
     40 H192        0.1580   -0.7460   -6.8130 hc        1 TIB      0.042867
     41 H193        1.5500   -0.4210   -5.6990 hc        1 TIB      0.042867
@<TRIPOS>BOND
     1    1    2 1   
     2    1   12 1   
     3    1   14 1   
     4    2    3 1   
     5    2   22 1   
     6    2   23 1   
     7    3    4 1   
     8    3   16 1   
     9    3   24 1   
    10    4    5 1   
    11    4   17 1   
    12    5   15 1   
    13    5   25 1   
    14    5   26 1   
    15    6    7 ar  
    16    6   15 ar  
    17    6   27 1   
    18    7    8 1   
    19    7    9 ar  
    20    9   10 ar  
    21    9   28 1   
    22   10   11 1   
    23   10   14 ar  
    24   11   12 1   
    25   11   29 1   
    26   12   13 2   
    27   14   15 ar  
    28   16   30 1   
    29   16   31 1   
    30   16   32 1   
    31   17   18 1   
    32   17   33 1   
    33   17   34 1   
    34   18   19 2   
    35   18   35 1   
    36   19   20 1   
    37   19   21 1   
    38   20   36 1   
    39   20   37 1   
    40   20   38 1   
    41   21   39 1   
    42   21   40 1   
    43   21   41 1   
@<TRIPOS>SUBSTRUCTURE
     1 TIB         1 TEMP              0 ****  ****    0 ROOT
