@<TRIPOS>MOLECULE
TIB
   41    43     1     0     0
SMALL
bcc


@<TRIPOS>ATOM
      1 N1          0.1380   -0.2440   -0.1200 n         1 TIB     -0.290000
      2 C2          1.4920    0.1570    0.1460 c3        1 TIB      0.099000
      3 C3          1.7990    0.4350    1.6430 c3        1 TIB      0.187500
      4 N4          1.6990   -0.8090    2.4030 n3        1 TIB     -0.758600
      5 C5          0.3940   -0.9920    3.0130 c3        1 TIB      0.227100
      6 C6         -1.8040   -2.0480    2.5630 ca        1 TIB     -0.131000
      7 C7         -2.9050   -2.3730    1.7670 ca        1 TIB      0.024400
      8 Cl7        -4.1990   -3.2380    2.4540 cl        1 TIB     -0.088400
      9 C8         -2.9790   -2.0070    0.4180 ca        1 TIB     -0.129000
     10 C9         -1.8990   -1.3040   -0.1030 ca        1 TIB     -0.000400
     11 N10        -1.6680   -0.7900   -1.3860 ns        1 TIB     -0.402100
     12 C11        -0.4170   -0.1460   -1.4200 c         1 TIB      0.516400
     13 S11         0.2170    0.5750   -2.6870 s         1 TIB     -0.515400
     14 C12        -0.7430   -0.9650    0.7100 ca        1 TIB      0.019600
     15 C13        -0.7080   -1.3350    2.0550 ca        1 TIB     -0.054300
     16 C14         3.1470    1.1510    1.6790 c3        1 TIB     -0.105100
     17 C15         2.8050   -1.0970    3.3000 c3        1 TIB      0.221000
     18 C16         2.8030   -2.4900    3.8460 c2        1 TIB     -0.189200
     19 C17         3.4320   -2.8300    4.9820 c2        1 TIB     -0.115400
     20 C18         3.4510   -4.2330    5.4630 c3        1 TIB     -0.061400
     21 C19         4.1520   -1.8510    5.8320 c3        1 TIB     -0.061400
     22 H21         2.1950   -0.6410   -0.2370 h1        1 TIB      0.078700
     23 H22         1.6810    1.1040   -0.4420 h1        1 TIB      0.078700
     24 H3          1.0300    1.1790    2.0240 h1        1 TIB      0.045700
     25 H51         0.0640   -0.0670    3.5800 h1        1 TIB      0.051700
     26 H52         0.4710   -1.8300    3.7680 h1        1 TIB      0.051700
     27 H6         -1.7920   -2.3560    3.6210 ha        1 TIB      0.151000
     28 H8         -3.8520   -2.2630   -0.1980 ha        1 TIB      0.158000
     29 H10        -2.2690   -0.8650   -2.1670 hn        1 TIB      0.367500
     30 H141        3.9460    0.5420    1.1920 hc        1 TIB      0.048367
     31 H142        3.0570    2.1180    1.1250 hc        1 TIB      0.048367
     32 H143        3.4500    1.3780    2.7290 hc        1 TIB      0.048367
     33 H151        2.8400   -0.3580    4.1570 h1        1 TIB      0.041200
     34 H152        3.7640   -0.9830    2.7130 h1        1 TIB      0.041200
     35 H16         2.2900   -3.2540    3.2380 ha        1 TIB      0.140000
     36 H181        2.8580   -4.9080    4.7980 hc        1 TIB      0.042867
     37 H182        4.5040   -4.6110    5.5000 hc        1 TIB      0.042867
     38 H183        3.0250   -4.2900    6.4960 hc        1 TIB      0.042867
     39 H191        4.7130   -2.3630    6.6520 hc        1 TIB      0.042867
     40 H192        3.4280   -1.1340    6.2980 hc        1 TIB      0.042867
     41 H193        4.8810   -1.2610    5.2230 hc        1 TIB      0.042867
@<TRIPOS>BOND
     1    1    2 1   
     2    1   12 1   
     3    1   14 1   
     4    2    3 1   
     5    2   22 1   
     6    2   23 1   
     7    3    4 1   
     8    3   16 1   
     9    3   24 1   
    10    4    5 1   
    11    4   17 1   
    12    5   15 1   
    13    5   25 1   
    14    5   26 1   
    15    6    7 ar  
    16    6   15 ar  
    17    6   27 1   
    18    7    8 1   
    19    7    9 ar  
    20    9   10 ar  
    21    9   28 1   
    22   10   11 1   
    23   10   14 ar  
    24   11   12 1   
    25   11   29 1   
    26   12   13 2   
    27   14   15 ar  
    28   16   30 1   
    29   16   31 1   
    30   16   32 1   
    31   17   18 1   
    32   17   33 1   
    33   17   34 1   
    34   18   19 2   
    35   18   35 1   
    36   19   20 1   
    37   19   21 1   
    38   20   36 1   
    39   20   37 1   
    40   20   38 1   
    41   21   39 1   
    42   21   40 1   
    43   21   41 1   
@<TRIPOS>SUBSTRUCTURE
     1 TIB         1 TEMP              0 ****  ****    0 ROOT
