@<TRIPOS>MOLECULE
TIB
   41    43     1     0     0
SMALL
bcc


@<TRIPOS>ATOM
      1 N1          0.1490   -0.2650   -0.1330 n         1 TIB     -0.290000
      2 C2          1.5070    0.1240    0.1280 c3        1 TIB      0.099000
      3 C3          1.8170    0.4190    1.6210 c3        1 TIB      0.187500
      4 N4          1.7030   -0.8130    2.3980 n3        1 TIB     -0.758600
      5 C5          0.3970   -0.9730    3.0100 c3        1 TIB      0.227100
      6 C6         -1.8140   -2.0100    2.5750 ca        1 TIB     -0.131000
      7 C7         -2.9190   -2.3320    1.7840 ca        1 TIB      0.024400
      8 CL7        -4.2230   -3.1730    2.4820 cl        1 TIB     -0.088400
      9 C8         -2.9890   -1.9840    0.4300 ca        1 TIB     -0.129000
     10 C9         -1.9010   -1.3010   -0.1010 ca        1 TIB     -0.000400
     11 N10        -1.6630   -0.8080   -1.3910 n         1 TIB     -0.402100
     12 C11        -0.4050   -0.1790   -1.4330 c         1 TIB      0.516400
     13 S11         0.2370    0.5180   -2.7110 s         1 TIB     -0.515400
     14 C12        -0.7400   -0.9650    0.7070 ca        1 TIB      0.019600
     15 C13        -0.7100   -1.3170    2.0570 ca        1 TIB     -0.054300
     16 C14         3.1740    1.1200    1.6470 c3        1 TIB     -0.105100
     17 C15         2.8070   -1.1020    3.3000 c3        1 TIB      0.222000
     18 C16         2.7880   -2.4870    3.8640 c2        1 TIB     -0.189200
     19 C17         3.4140   -2.8190    5.0040 c2        1 TIB     -0.115400
     20 C18         3.4170   -4.2160    5.5040 c3        1 TIB     -0.061400
     21 C19         4.1460   -1.8370    5.8400 c3        1 TIB     -0.061400
     22 H21         2.2000   -0.6860   -0.2430 h1        1 TIB      0.078700
     23 H22         1.7070    1.0610   -0.4730 h1        1 TIB      0.078700
     24 H3          1.0570    1.1770    1.9920 h1        1 TIB      0.045700
     25 H51         0.4640   -1.8010    3.7770 h1        1 TIB      0.051700
     26 H52         0.0770   -0.0360    3.5650 h1        1 TIB      0.051700
     27 H6         -1.8050   -2.3030    3.6380 ha        1 TIB      0.151000
     28 H8         -3.8640   -2.2390   -0.1830 ha        1 TIB      0.158000
     29 H10        -2.2660   -0.8870   -2.1710 hn        1 TIB      0.367500
     30 H141        3.0940    2.0800    1.0810 hc        1 TIB      0.048367
     31 H142        3.9660    0.4950    1.1690 hc        1 TIB      0.048367
     32 H143        3.4790    1.3580    2.6940 hc        1 TIB      0.048367
     33 H151        2.8490   -0.3520    4.1460 h1        1 TIB      0.041200
     34 H152        3.7670   -1.0070    2.7100 h1        1 TIB      0.041200
     35 H16         2.2660   -3.2530    3.2670 ha        1 TIB      0.140000
     36 H181        2.8150   -4.8920    4.8490 hc        1 TIB      0.042867
     37 H182        2.9900   -4.2530    6.5380 hc        1 TIB      0.042867
     38 H183        4.4650   -4.6050    5.5450 hc        1 TIB      0.042867
     39 H191        3.4320   -1.1050    6.2970 hc        1 TIB      0.042867
     40 H192        4.7020   -2.3440    6.6660 hc        1 TIB      0.042867
     41 H193        4.8820   -1.2640    5.2220 hc        1 TIB      0.042867
@<TRIPOS>BOND
     1    1    2 1   
     2    1   12 1   
     3    1   14 1   
     4    2    3 1   
     5    2   22 1   
     6    2   23 1   
     7    3    4 1   
     8    3   16 1   
     9    3   24 1   
    10    4    5 1   
    11    4   17 1   
    12    5   15 1   
    13    5   25 1   
    14    5   26 1   
    15    6    7 ar  
    16    6   15 ar  
    17    6   27 1   
    18    7    8 1   
    19    7    9 ar  
    20    9   10 ar  
    21    9   28 1   
    22   10   11 1   
    23   10   14 ar  
    24   11   12 1   
    25   11   29 1   
    26   12   13 2   
    27   14   15 ar  
    28   16   30 1   
    29   16   31 1   
    30   16   32 1   
    31   17   18 1   
    32   17   33 1   
    33   17   34 1   
    34   18   19 2   
    35   18   35 1   
    36   19   20 1   
    37   19   21 1   
    38   20   36 1   
    39   20   37 1   
    40   20   38 1   
    41   21   39 1   
    42   21   40 1   
    43   21   41 1   
@<TRIPOS>SUBSTRUCTURE
     1 TIB         1 TEMP              0 ****  ****    0 ROOT
