@<TRIPOS>MOLECULE
TIC
   31    33     1     0     0
SMALL
bcc


@<TRIPOS>ATOM
      1 C1          0.0510   -0.0970    0.0870 c3        1 TIC      0.176800
      2 N1          1.5050   -0.0030    0.0470 n3        1 TIC     -0.729600
      3 S1         -0.5970    2.9750    2.6930 ss        1 TIC      0.017200
      4 CL1         4.0030   -3.4860    0.5210 cl        1 TIC     -0.100400
      5 C2          2.1030    0.4220    1.3110 c3        1 TIC      0.231100
      6 C3         -0.6350    1.2160    0.4870 c3        1 TIC      0.002900
      7 C4          1.3080    1.4480    2.0320 cc        1 TIC     -0.114300
      8 C5          0.0230    1.8090    1.6620 cd        1 TIC     -0.113400
      9 C6          2.1040   -1.2360   -0.4560 c3        1 TIC      0.209100
     10 C7          3.5730   -1.1210   -0.7510 ca        1 TIC     -0.077300
     11 C8          1.7540    2.1640    3.1870 cc        1 TIC     -0.142000
     12 C9          0.7850    3.0340    3.6360 cd        1 TIC     -0.167100
     13 C10         4.4880   -2.1110   -0.3640 ca        1 TIC      0.019400
     14 C11         4.0450   -0.0230   -1.4840 ca        1 TIC     -0.103000
     15 C12         5.8430   -2.0020   -0.6990 ca        1 TIC     -0.128000
     16 C13         5.3930    0.0890   -1.8150 ca        1 TIC     -0.133000
     17 C14         6.2930   -0.9010   -1.4230 ca        1 TIC     -0.122000
     18 H1         -0.3030   -0.3740   -0.9470 h1        1 TIC      0.033700
     19 H1A        -0.2920   -0.9070    0.7950 h1        1 TIC      0.033700
     20 H2          2.2640   -0.4520    2.0140 h1        1 TIC      0.049700
     21 H2A         3.1200    0.8430    1.0570 h1        1 TIC      0.049700
     22 H3         -1.7160    0.9970    0.6950 hc        1 TIC      0.056200
     23 H3A        -0.5920    1.9380   -0.3730 hc        1 TIC      0.056200
     24 H6          1.5890   -1.4890   -1.4290 h1        1 TIC      0.049700
     25 H6A         1.9230   -2.0950    0.2550 h1        1 TIC      0.049700
     26 H8          2.7390    2.0240    3.6350 ha        1 TIC      0.154000
     27 H9          0.8760    3.6930    4.4980 h4        1 TIC      0.170000
     28 H11         3.3360    0.7610   -1.7950 ha        1 TIC      0.155000
     29 H12         6.5510   -2.7860   -0.3900 ha        1 TIC      0.146000
     30 H13         5.7460    0.9590   -2.3880 ha        1 TIC      0.136000
     31 H14         7.3580   -0.8160   -1.6840 ha        1 TIC      0.136000
@<TRIPOS>BOND
     1    1    2 1   
     2    1    6 1   
     3    1   18 1   
     4    1   19 1   
     5    2    5 1   
     6    2    9 1   
     7    3    8 1   
     8    3   12 1   
     9    4   13 1   
    10    5    7 1   
    11    5   20 1   
    12    5   21 1   
    13    6    8 1   
    14    6   22 1   
    15    6   23 1   
    16    7    8 2   
    17    7   11 1   
    18    9   10 1   
    19    9   24 1   
    20    9   25 1   
    21   10   13 ar  
    22   10   14 ar  
    23   11   12 2   
    24   11   26 1   
    25   12   27 1   
    26   13   15 ar  
    27   14   16 ar  
    28   14   28 1   
    29   15   17 ar  
    30   15   29 1   
    31   16   17 ar  
    32   16   30 1   
    33   17   31 1   
@<TRIPOS>SUBSTRUCTURE
     1 TIC         1 TEMP              0 ****  ****    0 ROOT
