@<TRIPOS>MOLECULE
TIC
   31    33     1     0     0
SMALL
bcc


@<TRIPOS>ATOM
      1 C1          1.0710   -1.8550   -1.1960 c3        1 TIC      0.176800
      2 N1          0.0920   -1.0930   -0.4290 n3        1 TIC     -0.729600
      3 S1          4.4180   -0.2870    0.5320 ss        1 TIC      0.017200
      4 CL1        -3.1840    0.9480   -2.3520 cl        1 TIC     -0.100400
      5 C2          0.5380    0.2540   -0.0760 c3        1 TIC      0.231100
      6 C3          2.4230   -2.0030   -0.4850 c3        1 TIC      0.002900
      7 C4          1.9810    0.3340    0.2660 cc        1 TIC     -0.114300
      8 C5          2.8680   -0.7110    0.0610 cd        1 TIC     -0.113400
      9 C6         -1.2100   -1.0840   -1.0880 c3        1 TIC      0.209100
     10 C7         -2.3180   -0.5290   -0.2390 ca        1 TIC     -0.077300
     11 C8          2.6260    1.4820    0.8220 cc        1 TIC     -0.142000
     12 C9          3.9710    1.2540    1.0100 cd        1 TIC     -0.167100
     13 C10        -3.2630    0.3730   -0.7480 ca        1 TIC      0.019400
     14 C11        -2.4530   -0.9620    1.0870 ca        1 TIC     -0.103000
     15 C12        -4.3160    0.8340    0.0540 ca        1 TIC     -0.128000
     16 C13        -3.4960   -0.5030    1.8870 ca        1 TIC     -0.133000
     17 C14        -4.4290    0.3960    1.3700 ca        1 TIC     -0.122000
     18 H1          0.6490   -2.8860   -1.3610 h1        1 TIC      0.033700
     19 H1A         1.2520   -1.3920   -2.2100 h1        1 TIC      0.033700
     20 H2          0.3350    0.9940   -0.9090 h1        1 TIC      0.049700
     21 H2A        -0.0790    0.5700    0.8150 h1        1 TIC      0.049700
     22 H3          2.3270   -2.7500    0.3490 hc        1 TIC      0.056200
     23 H3A         3.1640   -2.4080   -1.2230 hc        1 TIC      0.056200
     24 H6         -1.1650   -0.5260   -2.0710 h1        1 TIC      0.049700
     25 H6A        -1.4780   -2.1570   -1.3230 h1        1 TIC      0.049700
     26 H8          2.1000    2.4090    1.0580 ha        1 TIC      0.154000
     27 H9          4.6830    1.9680    1.4190 h4        1 TIC      0.170000
     28 H11        -1.7170   -1.6720    1.4990 ha        1 TIC      0.155000
     29 H12        -5.0510    1.5420   -0.3570 ha        1 TIC      0.146000
     30 H13        -3.5840   -0.8520    2.9270 ha        1 TIC      0.136000
     31 H14        -5.2550    0.7590    1.9980 ha        1 TIC      0.136000
@<TRIPOS>BOND
     1    1    2 1   
     2    1    6 1   
     3    1   18 1   
     4    1   19 1   
     5    2    5 1   
     6    2    9 1   
     7    3    8 1   
     8    3   12 1   
     9    4   13 1   
    10    5    7 1   
    11    5   20 1   
    12    5   21 1   
    13    6    8 1   
    14    6   22 1   
    15    6   23 1   
    16    7    8 2   
    17    7   11 1   
    18    9   10 1   
    19    9   24 1   
    20    9   25 1   
    21   10   13 ar  
    22   10   14 ar  
    23   11   12 2   
    24   11   26 1   
    25   12   27 1   
    26   13   15 ar  
    27   14   16 ar  
    28   14   28 1   
    29   15   17 ar  
    30   15   29 1   
    31   16   17 ar  
    32   16   30 1   
    33   17   31 1   
@<TRIPOS>SUBSTRUCTURE
     1 TIC         1 TEMP              0 ****  ****    0 ROOT
