@<TRIPOS>MOLECULE
TIC
   31    33     1     0     0
SMALL
bcc


@<TRIPOS>ATOM
      1 C1          0.0520   -0.0960    0.0760 c3        1 TIC      0.176800
      2 N1          1.5070   -0.0090    0.0440 n3        1 TIC     -0.729600
      3 S1         -0.6010    3.0440    2.5980 ss        1 TIC      0.017200
      4 CL1         3.9920   -3.4740    0.6500 cl        1 TIC     -0.100400
      5 C2          2.0990    0.4470    1.3010 c3        1 TIC      0.231100
      6 C3         -0.6310    1.2300    0.4370 c3        1 TIC      0.002900
      7 C4          1.3020    1.4940    1.9900 cc        1 TIC     -0.114300
      8 C5          0.0210    1.8510    1.6010 cd        1 TIC     -0.113400
      9 C6          2.1050   -1.2570   -0.4230 c3        1 TIC      0.209100
     10 C7          3.5760   -1.1560   -0.7100 ca        1 TIC     -0.077300
     11 C8          1.7420    2.2380    3.1290 cc        1 TIC     -0.142000
     12 C9          0.7740    3.1220    3.5490 cd        1 TIC     -0.167100
     13 C10         4.4860   -2.1320   -0.2800 ca        1 TIC      0.019400
     14 C11         4.0550   -0.0840   -1.4760 ca        1 TIC     -0.103000
     15 C12         5.8440   -2.0360   -0.6080 ca        1 TIC     -0.128000
     16 C13         5.4050    0.0140   -1.8010 ca        1 TIC     -0.133000
     17 C14         6.3010   -0.9630   -1.3670 ca        1 TIC     -0.122000
     18 H1         -0.2950   -0.3980   -0.9530 h1        1 TIC      0.033700
     19 H1A        -0.2990   -0.8860    0.8020 h1        1 TIC      0.033700
     20 H2          2.2510   -0.4100    2.0260 h1        1 TIC      0.049700
     21 H2A         3.1180    0.8570    1.0430 h1        1 TIC      0.049700
     22 H3         -0.5790    1.9290   -0.4410 hc        1 TIC      0.056200
     23 H3A        -1.7140    1.0200    0.6430 hc        1 TIC      0.056200
     24 H6          1.9140   -2.0970    0.3090 h1        1 TIC      0.049700
     25 H6A         1.5950   -1.5330   -1.3930 h1        1 TIC      0.049700
     26 H8          2.7240    2.1050    3.5870 ha        1 TIC      0.154000
     27 H9          0.8620    3.8020    4.3940 h4        1 TIC      0.170000
     28 H11         3.3500    0.6890   -1.8200 ha        1 TIC      0.155000
     29 H12         6.5490   -2.8090   -0.2660 ha        1 TIC      0.146000
     30 H13         5.7640    0.8640   -2.4010 ha        1 TIC      0.136000
     31 H14         7.3690   -0.8880   -1.6230 ha        1 TIC      0.136000
@<TRIPOS>BOND
     1    1    2 1   
     2    1    6 1   
     3    1   18 1   
     4    1   19 1   
     5    2    5 1   
     6    2    9 1   
     7    3    8 1   
     8    3   12 1   
     9    4   13 1   
    10    5    7 1   
    11    5   20 1   
    12    5   21 1   
    13    6    8 1   
    14    6   22 1   
    15    6   23 1   
    16    7    8 2   
    17    7   11 1   
    18    9   10 1   
    19    9   24 1   
    20    9   25 1   
    21   10   13 ar  
    22   10   14 ar  
    23   11   12 2   
    24   11   26 1   
    25   12   27 1   
    26   13   15 ar  
    27   14   16 ar  
    28   14   28 1   
    29   15   17 ar  
    30   15   29 1   
    31   16   17 ar  
    32   16   30 1   
    33   17   31 1   
@<TRIPOS>SUBSTRUCTURE
     1 TIC         1 TEMP              0 ****  ****    0 ROOT
