@<TRIPOS>MOLECULE
TIC
   31    33     1     0     0
SMALL
bcc


@<TRIPOS>ATOM
      1 C1          0.0510   -0.0940    0.0840 c3        1 TIC      0.176800
      2 N1          1.5060   -0.0080    0.0480 n3        1 TIC     -0.729600
      3 S1         -0.5910    3.0490    2.6070 ss        1 TIC      0.017200
      4 Cl1         3.9860   -3.4870    0.6270 cl        1 TIC     -0.100400
      5 C2          2.1020    0.4470    1.3020 c3        1 TIC      0.231100
      6 C3         -0.6300    1.2330    0.4480 c3        1 TIC      0.002900
      7 C4          1.3090    1.4960    1.9930 cc        1 TIC     -0.114300
      8 C5          0.0270    1.8540    1.6080 cd        1 TIC     -0.113400
      9 C6          2.1010   -1.2560   -0.4210 c3        1 TIC      0.209100
     10 C7          3.5710   -1.1570   -0.7130 ca        1 TIC     -0.077300
     11 C8          1.7540    2.2400    3.1300 cc        1 TIC     -0.142000
     12 C9          0.7870    3.1260    3.5530 cd        1 TIC     -0.167100
     13 C10         4.4800   -2.1400   -0.2950 ca        1 TIC      0.019400
     14 C11         4.0510   -0.0820   -1.4740 ca        1 TIC     -0.103000
     15 C12         5.8370   -2.0460   -0.6270 ca        1 TIC     -0.128000
     16 C13         5.4000    0.0150   -1.8030 ca        1 TIC     -0.133000
     17 C14         6.2950   -0.9680   -1.3800 ca        1 TIC     -0.122000
     18 H1         -0.2990   -0.8830    0.8130 h1        1 TIC      0.033700
     19 H1A        -0.3000   -0.3960   -0.9430 h1        1 TIC      0.033700
     20 H2          3.1210    0.8560    1.0410 h1        1 TIC      0.049700
     21 H2A         2.2550   -0.4090    2.0280 h1        1 TIC      0.049700
     22 H3         -0.5800    1.9320   -0.4310 hc        1 TIC      0.056200
     23 H3A        -1.7130    1.0240    0.6570 hc        1 TIC      0.056200
     24 H6          1.5870   -1.5330   -1.3890 h1        1 TIC      0.049700
     25 H6A         1.9120   -2.0960    0.3130 h1        1 TIC      0.049700
     26 H8          2.7370    2.1070    3.5860 ha        1 TIC      0.154000
     27 H9          0.8790    3.8070    4.3970 h4        1 TIC      0.170000
     28 H11         3.3460    0.6960   -1.8100 ha        1 TIC      0.155000
     29 H12         6.5410   -2.8230   -0.2930 ha        1 TIC      0.146000
     30 H13         5.7590    0.8680   -2.3990 ha        1 TIC      0.136000
     31 H14         7.3610   -0.8950   -1.6390 ha        1 TIC      0.136000
@<TRIPOS>BOND
     1    1    2 1   
     2    1    6 1   
     3    1   18 1   
     4    1   19 1   
     5    2    5 1   
     6    2    9 1   
     7    3    8 1   
     8    3   12 1   
     9    4   13 1   
    10    5    7 1   
    11    5   20 1   
    12    5   21 1   
    13    6    8 1   
    14    6   22 1   
    15    6   23 1   
    16    7    8 2   
    17    7   11 1   
    18    9   10 1   
    19    9   24 1   
    20    9   25 1   
    21   10   13 ar  
    22   10   14 ar  
    23   11   12 2   
    24   11   26 1   
    25   12   27 1   
    26   13   15 ar  
    27   14   16 ar  
    28   14   28 1   
    29   15   17 ar  
    30   15   29 1   
    31   16   17 ar  
    32   16   30 1   
    33   17   31 1   
@<TRIPOS>SUBSTRUCTURE
     1 TIC         1 TEMP              0 ****  ****    0 ROOT
