@<TRIPOS>MOLECULE
TID
   22    23     1     0     0
SMALL
bcc


@<TRIPOS>ATOM
      1 C1         -0.0390   -0.0890   -0.0430 ca        1 TID     -0.064000
      2 C2          1.3770   -0.0120   -0.0850 ca        1 TID     -0.256500
      3 C3          2.0960    0.0810    1.1410 ca        1 TID     -0.064000
      4 C4          1.4270    0.0960    2.3440 ca        1 TID     -0.136500
      5 C5          0.0190    0.0190    2.3770 ca        1 TID     -0.009600
      6 C6         -0.6970   -0.0730    1.1750 ca        1 TID     -0.136500
      7 C13        -0.7150    0.0370    3.7310 c         1 TID      0.903200
      8 O15        -1.9680   -0.0350    3.6890 o         1 TID     -0.779800
      9 O17         0.0100    0.1210    4.7530 o         1 TID     -0.779800
     10 C19         2.0900   -0.0250   -1.3010 cc        1 TID      0.572900
     11 N21         1.5280   -0.1120   -2.5860 nd        1 TID     -0.336000
     12 N22         2.3710   -0.1060   -3.5230 nd        1 TID     -0.215000
     13 C23         3.6870   -0.0140   -3.0820 cc        1 TID      0.127300
     14 S24         3.8070    0.0670   -1.3710 ss        1 TID     -0.090800
     15 N30         4.7950    0.0090   -3.9950 n4        1 TID     -0.732300
     16 H1         -0.6110   -0.1620   -0.9810 ha        1 TID      0.130500
     17 H3          3.1970    0.1410    1.1140 ha        1 TID      0.130500
     18 H4          1.9560    0.1670    3.3120 ha        1 TID      0.185500
     19 H6         -1.8000   -0.1320    1.2370 ha        1 TID      0.185500
     20 HN30        5.3160    0.8840   -3.8780 hn        1 TID      0.454467
     21 HN3A        4.4580   -0.0530   -4.9650 hn        1 TID      0.454467
     22 H303        5.4100   -0.7900   -3.8050 hn        1 TID      0.454467
@<TRIPOS>BOND
     1    1    2 ar  
     2    1    6 ar  
     3    1   16 1   
     4    2    3 ar  
     5    2   10 1   
     6    3    4 ar  
     7    3   17 1   
     8    4    5 ar  
     9    4   18 1   
    10    5    6 ar  
    11    5    7 1   
    12    6   19 1   
    13    7    8 1   
    14    7    9 1   
    15   10   11 2   
    16   10   14 1   
    17   11   12 1   
    18   12   13 2   
    19   13   14 1   
    20   13   15 1   
    21   15   20 1   
    22   15   21 1   
    23   15   22 1   
@<TRIPOS>SUBSTRUCTURE
     1 TID         1 TEMP              0 ****  ****    0 ROOT
