@<TRIPOS>MOLECULE
TID
   21    22     1     0     0
SMALL
bcc


@<TRIPOS>ATOM
      1 C1         -0.0250   -0.0740   -0.0420 ca        1 TID     -0.118000
      2 C2          1.3730    0.0430   -0.0800 ca        1 TID     -0.194500
      3 C3          2.0870    0.1400    1.1300 ca        1 TID     -0.118000
      4 C4          1.4160    0.1140    2.3440 ca        1 TID     -0.120000
      5 C5          0.0200   -0.0080    2.3840 ca        1 TID     -0.092600
      6 C6         -0.6890   -0.0990    1.1830 ca        1 TID     -0.120000
      7 C13        -0.7090   -0.0420    3.7230 c         1 TID      0.905200
      8 O15        -0.0110    0.0430    4.7710 o         1 TID     -0.822300
      9 O17        -1.9660   -0.1540    3.7040 o         1 TID     -0.822300
     10 C19         2.0980    0.0590   -1.3300 cc        1 TID      0.475900
     11 N21         1.5580    0.0890   -2.5780 nd        1 TID     -0.340000
     12 N22         2.4330    0.0650   -3.5350 nd        1 TID     -0.362000
     13 C23         3.7290    0.0310   -3.0980 cc        1 TID      0.484300
     14 S24         3.8280    0.0270   -1.3650 ss        1 TID     -0.194800
     15 N30         4.8880    0.0800   -3.8880 nh        1 TID     -0.867500
     16 H1         -0.5980   -0.1470   -0.9780 ha        1 TID      0.120500
     17 H3          3.1840    0.2390    1.1090 ha        1 TID      0.120500
     18 H4          1.9580    0.1870    3.3020 ha        1 TID      0.159000
     19 H6         -1.7860   -0.1910    1.2320 ha        1 TID      0.159000
     20 HN30        4.7040    0.4390   -4.8070 hn        1 TID      0.373300
     21 HN3A        5.3030   -0.8320   -3.9570 hn        1 TID      0.373300
@<TRIPOS>BOND
     1    1    2 ar  
     2    1    6 ar  
     3    1   16 1   
     4    2    3 ar  
     5    2   10 1   
     6    3    4 ar  
     7    3   17 1   
     8    4    5 ar  
     9    4   18 1   
    10    5    6 ar  
    11    5    7 1   
    12    6   19 1   
    13    7    8 1   
    14    7    9 1   
    15   10   11 2   
    16   10   14 1   
    17   11   12 1   
    18   12   13 2   
    19   13   14 1   
    20   13   15 1   
    21   15   20 1   
    22   15   21 1   
@<TRIPOS>SUBSTRUCTURE
     1 TID         1 TEMP              0 ****  ****    0 ROOT
