@<TRIPOS>MOLECULE
TID
   21    22     1     0     0
SMALL
bcc


@<TRIPOS>ATOM
      1 C1         -0.0240   -0.0800   -0.0350 ca        1 TID     -0.118000
      2 C2          1.3730    0.0430   -0.0800 ca        1 TID     -0.194500
      3 C3          2.0910    0.1500    1.1270 ca        1 TID     -0.118000
      4 C4          1.4250    0.1270    2.3440 ca        1 TID     -0.120000
      5 C5          0.0290    0.0000    2.3900 ca        1 TID     -0.092600
      6 C6         -0.6830   -0.1000    1.1920 ca        1 TID     -0.120000
      7 C13        -0.6940   -0.0280    3.7310 c         1 TID      0.905200
      8 O15         0.0070    0.0660    4.7770 o         1 TID     -0.822300
      9 O17        -1.9510   -0.1460    3.7180 o         1 TID     -0.822300
     10 C19         2.0930    0.0540   -1.3320 cc        1 TID      0.475900
     11 N21         1.5480    0.0760   -2.5780 nd        1 TID     -0.340000
     12 N22         2.4190    0.0490   -3.5380 nd        1 TID     -0.362000
     13 C23         3.7170    0.0210   -3.1070 cc        1 TID      0.484300
     14 S24         3.8230    0.0250   -1.3740 ss        1 TID     -0.194800
     15 N30         4.8730    0.0680   -3.9010 nv        1 TID     -0.867500
     16 H1         -0.6010   -0.1610   -0.9680 ha        1 TID      0.120500
     17 H3          3.1870    0.2530    1.1010 ha        1 TID      0.120500
     18 H4          1.9700    0.2090    3.2990 ha        1 TID      0.159000
     19 H6         -1.7800   -0.1970    1.2460 ha        1 TID      0.159000
     20 HN30        4.6850    0.4220   -4.8210 hn        1 TID      0.373300
     21 HN3A        5.2900   -0.8430   -3.9680 hn        1 TID      0.373300
@<TRIPOS>BOND
     1    1    2 ar  
     2    1    6 ar  
     3    1   16 1   
     4    2    3 ar  
     5    2   10 1   
     6    3    4 ar  
     7    3   17 1   
     8    4    5 ar  
     9    4   18 1   
    10    5    6 ar  
    11    5    7 1   
    12    6   19 1   
    13    7    8 1   
    14    7    9 1   
    15   10   11 2   
    16   10   14 1   
    17   11   12 1   
    18   12   13 2   
    19   13   14 1   
    20   13   15 1   
    21   15   20 1   
    22   15   21 1   
@<TRIPOS>SUBSTRUCTURE
     1 TID         1 TEMP              0 ****  ****    0 ROOT
