@<TRIPOS>MOLECULE
TID
   21    22     1     0     0
SMALL
bcc


@<TRIPOS>ATOM
      1 C1          0.7360    1.3620    0.0530 ca        1 TID     -0.118000
      2 C2         -0.0770    0.2230   -0.0460 ca        1 TID     -0.194500
      3 C3          0.5270   -1.0470   -0.1230 ca        1 TID     -0.118000
      4 C4          1.9090   -1.1690   -0.0940 ca        1 TID     -0.120000
      5 C5          2.7230   -0.0320    0.0090 ca        1 TID     -0.092600
      6 C6          2.1230    1.2280    0.0800 ca        1 TID     -0.120000
      7 C13         4.2400   -0.1750    0.0460 c         1 TID      0.905200
      8 O15         4.7190   -1.3410   -0.0210 o         1 TID     -0.822300
      9 O17         4.9270    0.8790    0.1420 o         1 TID     -0.822300
     10 C19        -1.5180    0.3200   -0.0630 cc        1 TID      0.475900
     11 N21        -2.2510    1.4650   -0.1160 nd        1 TID     -0.340000
     12 N22        -3.5340    1.2750   -0.0870 nd        1 TID     -0.362000
     13 C23        -3.8960   -0.0420   -0.0260 cc        1 TID      0.484300
     14 S24        -2.5150   -1.0930   -0.0020 ss        1 TID     -0.194800
     15 N30        -5.1990   -0.5630   -0.0640 nh        1 TID     -0.867500
     16 H1          0.2810    2.3620    0.1100 ha        1 TID      0.120500
     17 H3         -0.1040   -1.9460   -0.2070 ha        1 TID      0.120500
     18 H4          2.4000   -2.1550   -0.1520 ha        1 TID      0.159000
     19 H6          2.7770    2.1120    0.1580 ha        1 TID      0.159000
     20 HN30       -5.8580    0.0960   -0.4370 hn        1 TID      0.373300
     21 HN3A       -5.4890   -0.8490    0.8530 hn        1 TID      0.373300
@<TRIPOS>BOND
     1    1    2 ar  
     2    1    6 ar  
     3    1   16 1   
     4    2    3 ar  
     5    2   10 1   
     6    3    4 ar  
     7    3   17 1   
     8    4    5 ar  
     9    4   18 1   
    10    5    6 ar  
    11    5    7 1   
    12    6   19 1   
    13    7    8 1   
    14    7    9 1   
    15   10   11 2   
    16   10   14 1   
    17   11   12 1   
    18   12   13 2   
    19   13   14 1   
    20   13   15 1   
    21   15   20 1   
    22   15   21 1   
@<TRIPOS>SUBSTRUCTURE
     1 TID         1 TEMP              0 ****  ****    0 ROOT
