@<TRIPOS>MOLECULE
TIF
   71    73     1     0     0
SMALL
bcc


@<TRIPOS>ATOM
      1 C7         -4.4370   -0.8150   -0.7420 c3        1 TIF     -0.250300
      2 S8         -2.9350   -0.9740    0.1140 s6        1 TIF      1.448900
      3 C4         -5.3750   -1.9300   -0.4690 ca        1 TIF     -0.074300
      4 C5         -5.7160   -2.8350   -1.4810 ca        1 TIF     -0.115000
      5 C6         -6.6200   -3.8650   -1.2240 ca        1 TIF     -0.126000
      6 C1         -7.1930   -3.9960    0.0400 ca        1 TIF     -0.121000
      7 C2         -6.8570   -3.0960    1.0520 ca        1 TIF     -0.126000
      8 C3         -5.9540   -2.0650    0.8010 ca        1 TIF     -0.115000
      9 O22        -3.1940   -0.7660    1.4870 o         1 TIF     -0.644800
     10 O23        -2.3110   -2.1720   -0.2710 o         1 TIF     -0.644800
     11 N9         -2.0900    0.2790   -0.4740 n3        1 TIF     -0.913100
     12 C10        -1.7760    1.4740    0.2570 c3        1 TIF      0.185500
     13 C18        -2.3050    2.7750   -0.3720 c3        1 TIF     -0.092400
     14 C19        -3.8190    2.8400   -0.4800 c3        1 TIF     -0.067700
     15 C20        -4.4920    2.7010    0.8690 c3        1 TIF     -0.098100
     16 C21        -4.2190    4.1490   -1.1320 c3        1 TIF     -0.098100
     17 C11        -0.2350    1.6590    0.3460 c         1 TIF      0.645100
     18 O17         0.4720    1.4910   -0.6710 o         1 TIF     -0.626100
     19 N12         0.3340    1.9810    1.5570 n         1 TIF     -0.453800
     20 C13         1.7510    2.3120    1.6800 c3        1 TIF      0.031700
     21 C24         2.6490    1.0640    1.8670 c         1 TIF      0.650100
     22 O33         3.4230    0.9700    2.8410 o         1 TIF     -0.620100
     23 C14         1.8830    3.2680    2.8850 c3        1 TIF     -0.088400
     24 C15         0.5420    3.2370    3.6100 c3        1 TIF     -0.090400
     25 C16        -0.4190    2.4410    2.7120 c3        1 TIF      0.084000
     26 N25         2.5520    0.0750    0.9150 n         1 TIF     -0.548900
     27 C26         3.4070   -1.0820    0.9310 c3        1 TIF      0.129300
     28 C27         4.6830   -0.9350    0.1480 ca        1 TIF     -0.108300
     29 C32         4.8620   -1.6230   -1.0540 ca        1 TIF     -0.124000
     30 C31         6.0610   -1.5060   -1.7580 ca        1 TIF     -0.104000
     31 C30         7.0840   -0.6940   -1.2590 ca        1 TIF     -0.139900
     32 C34         8.3750   -0.5650   -2.0090 ce        1 TIF      0.650800
     33 N35         8.8220    0.6260   -2.2740 n2        1 TIF     -0.826100
     34 N36         8.9360   -1.7980   -2.4120 nh        1 TIF     -0.958800
     35 C29         6.9030    0.0080   -0.0630 ca        1 TIF     -0.104000
     36 C28         5.7060   -0.1170    0.6390 ca        1 TIF     -0.124000
     37 H7         -4.2710   -0.7390   -1.8490 h1        1 TIF      0.113200
     38 H7A        -4.9500    0.1440   -0.4470 h1        1 TIF      0.113200
     39 H5         -5.2650   -2.7390   -2.4800 ha        1 TIF      0.142000
     40 H6         -6.8790   -4.5750   -2.0230 ha        1 TIF      0.135000
     41 H1         -7.9060   -4.8090    0.2400 ha        1 TIF      0.134000
     42 H2         -7.3020   -3.1990    2.0520 ha        1 TIF      0.135000
     43 H3         -5.6760   -1.3640    1.6040 ha        1 TIF      0.142000
     44 HN9        -1.6260    0.2350   -1.3540 hn        1 TIF      0.463800
     45 H10        -2.2170    1.3660    1.2960 h1        1 TIF      0.097700
     46 H18        -1.9450    3.6270    0.2640 hc        1 TIF      0.060200
     47 H18A       -1.8560    2.9000   -1.3930 hc        1 TIF      0.060200
     48 H19        -4.1690    2.0000   -1.1460 hc        1 TIF      0.044700
     49 H20        -5.5890    2.8900    0.7730 hc        1 TIF      0.039533
     50 H20A       -4.3510    1.6720    1.2830 hc        1 TIF      0.039533
     51 H20B       -4.0710    3.4360    1.5960 hc        1 TIF      0.039533
     52 H21        -3.7330    4.2520   -2.1320 hc        1 TIF      0.039533
     53 H21A       -5.3270    4.1890   -1.2690 hc        1 TIF      0.039533
     54 H21B       -3.9100    5.0140   -0.4970 hc        1 TIF      0.039533
     55 H13         2.1030    2.8180    0.7320 h1        1 TIF      0.086700
     56 H14         2.7150    2.9460    3.5610 hc        1 TIF      0.076200
     57 H14A        2.1120    4.2980    2.5160 hc        1 TIF      0.076200
     58 H15         0.6400    2.7350    4.6040 hc        1 TIF      0.059200
     59 H15A        0.1510    4.2690    3.7800 hc        1 TIF      0.059200
     60 H16        -1.2800    3.0890    2.3870 h1        1 TIF      0.053200
     61 H16A       -0.8340    1.5500    3.2610 h1        1 TIF      0.053200
     62 HN25        2.0750    0.2740    0.0620 hn        1 TIF      0.335500
     63 H26         3.6730   -1.3160    2.0040 h1        1 TIF      0.069700
     64 H26A        2.8110   -1.9460    0.5160 h1        1 TIF      0.069700
     65 H32         4.0570   -2.2600   -1.4520 ha        1 TIF      0.146000
     66 H31         6.1900   -2.0420   -2.7100 ha        1 TIF      0.145500
     67 HN35        9.6850    0.6760   -2.7720 hn        1 TIF      0.381400
     68 HN36        8.6180   -2.5940   -1.9110 hn        1 TIF      0.397800
     69 HN3A        9.9100   -1.8020   -2.6080 hn        1 TIF      0.397800
     70 H29         7.7000    0.6650    0.3180 ha        1 TIF      0.145500
     71 H28         5.5530    0.4300    1.5850 ha        1 TIF      0.146000
@<TRIPOS>BOND
     1    1    2 1   
     2    1    3 1   
     3    1   37 1   
     4    1   38 1   
     5    2    9 2   
     6    2   10 2   
     7    2   11 1   
     8    3    4 ar  
     9    3    8 ar  
    10    4    5 ar  
    11    4   39 1   
    12    5    6 ar  
    13    5   40 1   
    14    6    7 ar  
    15    6   41 1   
    16    7    8 ar  
    17    7   42 1   
    18    8   43 1   
    19   11   12 1   
    20   11   44 1   
    21   12   13 1   
    22   12   17 1   
    23   12   45 1   
    24   13   14 1   
    25   13   46 1   
    26   13   47 1   
    27   14   15 1   
    28   14   16 1   
    29   14   48 1   
    30   15   49 1   
    31   15   50 1   
    32   15   51 1   
    33   16   52 1   
    34   16   53 1   
    35   16   54 1   
    36   17   18 2   
    37   17   19 1   
    38   19   20 1   
    39   19   25 1   
    40   20   21 1   
    41   20   23 1   
    42   20   55 1   
    43   21   22 2   
    44   21   26 1   
    45   23   24 1   
    46   23   56 1   
    47   23   57 1   
    48   24   25 1   
    49   24   58 1   
    50   24   59 1   
    51   25   60 1   
    52   25   61 1   
    53   26   27 1   
    54   26   62 1   
    55   27   28 1   
    56   27   63 1   
    57   27   64 1   
    58   28   29 ar  
    59   28   36 ar  
    60   29   30 ar  
    61   29   65 1   
    62   30   31 ar  
    63   30   66 1   
    64   31   32 1   
    65   31   35 ar  
    66   32   33 2   
    67   32   34 1   
    68   33   67 1   
    69   34   68 1   
    70   34   69 1   
    71   35   36 ar  
    72   35   70 1   
    73   36   71 1   
@<TRIPOS>SUBSTRUCTURE
     1 TIF         1 TEMP              0 ****  ****    0 ROOT
