@<TRIPOS>MOLECULE
TIG
   34    35     1     0     0
SMALL
bcc


@<TRIPOS>ATOM
      1 C           2.6760    0.5930    1.0600 c         1 TIG      0.890600
      2 N           1.5490   -1.2370   -0.3190 n3        1 TIG     -0.799200
      3 O           3.3770   -0.3010    1.6140 o         1 TIG     -0.838300
      4 C1          2.7050   -1.4350   -1.1780 c3        1 TIG      0.115800
      5 N1          4.0480   -3.1750   -2.4100 n3        1 TIG     -0.906800
      6 C2          2.8960   -2.9130   -1.5790 c3        1 TIG      0.139800
      7 CA          1.4690    0.1420    0.1660 c3        1 TIG      0.025500
      8 CB          0.1990    0.3970    0.9860 c3        1 TIG     -0.004200
      9 CG         -1.0620    0.2720    0.2440 cc        1 TIG     -0.089400
     10 CD1        -1.2600   -0.1300   -1.0720 cd        1 TIG     -0.107100
     11 CD2        -2.3790    0.5640    0.7920 ca        1 TIG     -0.089800
     12 NE1        -2.6250   -0.0580   -1.4150 na        1 TIG     -0.203400
     13 CE2        -3.3350    0.3050   -0.2640 ca        1 TIG     -0.056200
     14 CE3        -2.8330    1.0080    2.0310 ca        1 TIG     -0.077000
     15 CH2        -5.1200    0.9150    1.2030 ca        1 TIG     -0.128000
     16 CZ2        -4.7080    0.4810   -0.0510 ca        1 TIG     -0.158000
     17 CZ3        -4.1980    1.1770    2.2280 ca        1 TIG     -0.175000
     18 OXT         2.8730    1.8330    1.1690 o         1 TIG     -0.838300
     19 H1          2.5420   -0.8240   -2.1110 h1        1 TIG      0.037200
     20 HN1         4.0250   -2.5910   -3.2250 hn        1 TIG      0.335300
     21 HN1A        4.8900   -2.9630   -1.9070 hn        1 TIG      0.335300
     22 H2          2.9940   -3.5400   -0.6490 h1        1 TIG      0.046700
     23 H2A         1.9850   -3.2680   -2.1380 h1        1 TIG      0.046700
     24 HA          1.4490    0.8180   -0.7360 h1        1 TIG      0.044700
     25 HB          0.1750   -0.2990    1.8680 hc        1 TIG      0.060700
     26 HBA         0.2870    1.4450    1.3910 hc        1 TIG      0.060700
     27 HD1        -0.5200   -0.4430   -1.8120 h4        1 TIG      0.183000
     28 HE3        -2.1110    1.2200    2.8340 ha        1 TIG      0.139000
     29 HH2        -6.1920    1.0580    1.3980 ha        1 TIG      0.112000
     30 HZ2        -5.4360    0.2840   -0.8480 ha        1 TIG      0.117000
     31 HZ3        -4.5680    1.5240    3.2030 ha        1 TIG      0.116000
     32 HNE1       -3.0260   -0.5620   -2.1600 hn        1 TIG      0.274700
     33 H15         1.6480   -1.8360    0.4860 hn        1 TIG      0.352800
     34 H16         3.6560   -1.0630   -0.6900 h1        1 TIG      0.037200
@<TRIPOS>BOND
     1    1    3 1   
     2    1    7 1   
     3    1   18 1   
     4    2    4 1   
     5    2    7 1   
     6    2   33 1   
     7    4    6 1   
     8    4   19 1   
     9    4   34 1   
    10    5    6 1   
    11    5   20 1   
    12    5   21 1   
    13    6   22 1   
    14    6   23 1   
    15    7    8 1   
    16    7   24 1   
    17    8    9 1   
    18    8   25 1   
    19    8   26 1   
    20    9   10 2   
    21    9   11 1   
    22   10   12 1   
    23   10   27 1   
    24   11   13 ar  
    25   11   14 ar  
    26   12   13 1   
    27   12   32 1   
    28   13   16 ar  
    29   14   17 ar  
    30   14   28 1   
    31   15   16 ar  
    32   15   17 ar  
    33   15   29 1   
    34   16   30 1   
    35   17   31 1   
@<TRIPOS>SUBSTRUCTURE
     1 TIG         1 TEMP              0 ****  ****    0 ROOT
