@<TRIPOS>MOLECULE
TIH
   19    19     1     0     0
SMALL
bcc


@<TRIPOS>ATOM
      1 N           0.7920    1.5210    1.2410 n3        1 TIH     -0.897800
      2 CA          0.0120    0.2920    1.3100 c3        1 TIH      0.008500
      3 C          -0.0480   -0.3590    2.7330 c         1 TIH      0.891600
      4 O           0.5380    0.2400    3.6800 o         1 TIH     -0.839300
      5 OXT        -0.6940   -1.4350    2.8530 o         1 TIH     -0.839300
      6 CB          0.5090   -0.7710    0.3260 c3        1 TIH     -0.004100
      7 CG          0.5090   -0.3440   -1.0840 cc        1 TIH     -0.066400
      8 CD          0.3890   -1.1980   -2.1680 cd        1 TIH     -0.205000
      9 CE1         0.4490   -0.4980   -3.4090 cd        1 TIH     -0.165000
     10 CE2         0.6110    0.8580   -3.2130 cc        1 TIH     -0.251100
     11 SD          0.6830    1.2460   -1.5970 ss        1 TIH      0.104200
     12 H           1.7280    1.3170    1.5500 hn        1 TIH      0.336800
     13 H2          0.4080    2.1600    1.9160 hn        1 TIH      0.336800
     14 HA         -1.0500    0.5570    1.0360 h1        1 TIH      0.045700
     15 HB2         1.5500   -1.0880    0.6120 hc        1 TIH      0.065700
     16 HB3        -0.1560   -1.6700    0.4580 hc        1 TIH      0.065700
     17 HD          0.2580   -2.2780   -2.0910 ha        1 TIH      0.141000
     18 HE1         0.3720   -0.9920   -4.3780 ha        1 TIH      0.126000
     19 HE2         0.6800    1.5990   -4.0060 h4        1 TIH      0.146000
@<TRIPOS>BOND
     1    1    2 1   
     2    1   12 1   
     3    1   13 1   
     4    2    3 1   
     5    2    6 1   
     6    2   14 1   
     7    3    4 1   
     8    3    5 1   
     9    6    7 1   
    10    6   15 1   
    11    6   16 1   
    12    7    8 2   
    13    7   11 1   
    14    8    9 1   
    15    8   17 1   
    16    9   10 2   
    17    9   18 1   
    18   10   11 1   
    19   10   19 1   
@<TRIPOS>SUBSTRUCTURE
     1 TIH         1 TEMP              0 ****  ****    0 ROOT
