@<TRIPOS>MOLECULE
TII
   45    47     1     0     0
SMALL
bcc


@<TRIPOS>ATOM
      1 C17         0.1770   -0.4610   -0.0630 c3        1 TII      0.166100
      2 N16         1.4810    0.0500    0.2520 n3        1 TII     -0.738600
      3 C18         1.7080    0.3160    1.6710 c3        1 TII      0.170800
      4 C19         2.6670    1.5080    1.7980 c3        1 TII     -0.090400
      5 C20         3.0070    1.9140    0.3710 c3        1 TII     -0.079400
      6 C15         1.9720    1.1920   -0.5350 c3        1 TII      0.188200
      7 C1          2.6490    0.7070   -1.8640 c3        1 TII      0.191800
      8 C14         0.9160    2.2210   -1.0200 c3        1 TII     -0.113400
      9 C13         1.3610    2.6400   -2.4260 c3        1 TII      0.186800
     10 N2          2.2260    1.5880   -2.9460 nh        1 TII     -0.636000
     11 C3          3.1390    1.9090   -3.9550 ca        1 TII      0.081300
     12 C12         4.1980    1.0300   -4.2980 ca        1 TII     -0.237000
     13 C7          5.0160    1.3560   -5.3800 ca        1 TII      0.052800
     14 O8          6.0850    0.6190   -5.8340 os        1 TII     -0.324900
     15 C9          6.2740   -0.6950   -5.2740 c3        1 TII      0.139100
     16 C11         7.0460   -1.4640   -6.3320 c3        1 TII     -0.111100
     17 C10         7.0570   -0.6000   -3.9790 c3        1 TII     -0.111100
     18 C6          4.7780    2.5560   -6.1050 ca        1 TII      0.325200
     19 N5          3.7790    3.3890   -5.7920 nb        1 TII     -0.613000
     20 C4          2.9830    3.0810   -4.7560 ca        1 TII      0.296200
     21 H173       -0.6700    0.1860    0.2990 h1        1 TII      0.034367
     22 H171        0.0860   -0.5880   -1.1730 h1        1 TII      0.034367
     23 H172        0.0770   -1.4670    0.4270 h1        1 TII      0.034367
     24 H181        0.7490    0.5280    2.2230 h1        1 TII      0.039700
     25 H182        2.1600   -0.6120    2.1150 h1        1 TII      0.039700
     26 H191        2.1730    2.3480    2.3470 hc        1 TII      0.048700
     27 H192        3.5830    1.2200    2.3670 hc        1 TII      0.048700
     28 H201        2.9590    3.0200    0.2300 hc        1 TII      0.053200
     29 H202        4.0460    1.5840    0.1160 hc        1 TII      0.053200
     30 H11         3.7660    0.6950   -1.7390 h1        1 TII      0.057700
     31 H12         2.3170   -0.3350   -2.1290 h1        1 TII      0.057700
     32 H141        0.8660    3.1060   -0.3420 hc        1 TII      0.057700
     33 H142       -0.1080    1.7740   -1.0710 hc        1 TII      0.057700
     34 H131        0.4800    2.7460   -3.1160 h1        1 TII      0.048200
     35 H132        1.8900    3.6340   -2.3800 h1        1 TII      0.048200
     36 H120        4.3590    0.1040   -3.7290 ha        1 TII      0.145000
     37 H9          5.2760   -1.1840   -5.1010 h1        1 TII      0.051700
     38 H113        8.0120   -0.9520   -6.5570 hc        1 TII      0.048533
     39 H111        7.2550   -2.4940   -5.9570 hc        1 TII      0.048533
     40 H112        6.4510   -1.5270   -7.2740 hc        1 TII      0.048533
     41 H102        7.2140   -1.6220   -3.5590 hc        1 TII      0.048533
     42 H103        6.5070    0.0200   -3.2320 hc        1 TII      0.048533
     43 H101        8.0510   -0.1270   -4.1630 hc        1 TII      0.048533
     44 H6          5.4220    2.8310   -6.9570 h4        1 TII      0.035100
     45 H4          2.1680    3.8010   -4.5650 h4        1 TII      0.021100
@<TRIPOS>BOND
     1    1    2 1   
     2    1   21 1   
     3    1   22 1   
     4    1   23 1   
     5    2    3 1   
     6    2    6 1   
     7    3    4 1   
     8    3   24 1   
     9    3   25 1   
    10    4    5 1   
    11    4   26 1   
    12    4   27 1   
    13    5    6 1   
    14    5   28 1   
    15    5   29 1   
    16    6    7 1   
    17    6    8 1   
    18    7   10 1   
    19    7   30 1   
    20    7   31 1   
    21    8    9 1   
    22    8   32 1   
    23    8   33 1   
    24    9   10 1   
    25    9   34 1   
    26    9   35 1   
    27   10   11 1   
    28   11   12 ar  
    29   11   20 ar  
    30   12   13 ar  
    31   12   36 1   
    32   13   14 1   
    33   13   18 ar  
    34   14   15 1   
    35   15   16 1   
    36   15   17 1   
    37   15   37 1   
    38   16   38 1   
    39   16   39 1   
    40   16   40 1   
    41   17   41 1   
    42   17   42 1   
    43   17   43 1   
    44   18   19 ar  
    45   18   44 1   
    46   19   20 ar  
    47   20   45 1   
@<TRIPOS>SUBSTRUCTURE
     1 TII         1 TEMP              0 ****  ****    0 ROOT
