@<TRIPOS>MOLECULE
TII
   45    47     1     0     0
SMALL
bcc


@<TRIPOS>ATOM
      1 C17         0.1710   -0.4630   -0.0700 c3        1 TII      0.166100
      2 N16         1.4770    0.0440    0.2470 n3        1 TII     -0.738600
      3 C18         1.7030    0.3030    1.6670 c3        1 TII      0.170800
      4 C19         2.6650    1.4920    1.8000 c3        1 TII     -0.090400
      5 C20         3.0080    1.9030    0.3740 c3        1 TII     -0.079400
      6 C15         1.9710    1.1880   -0.5350 c3        1 TII      0.188200
      7 C1          2.6480    0.7070   -1.8650 c3        1 TII      0.191800
      8 C14         0.9180    2.2220   -1.0170 c3        1 TII     -0.113400
      9 C13         1.3660    2.6460   -2.4200 c3        1 TII      0.186800
     10 N2          2.2290    1.5940   -2.9440 nh        1 TII     -0.636000
     11 C3          3.1440    1.9170   -3.9500 ca        1 TII      0.081300
     12 C12         4.2000    1.0360   -4.2960 ca        1 TII     -0.237000
     13 C7          5.0210    1.3650   -5.3760 ca        1 TII      0.052800
     14 O8          6.0870    0.6270   -5.8320 os        1 TII     -0.324900
     15 C9          6.2710   -0.6910   -5.2790 c3        1 TII      0.139100
     16 C11         7.0410   -1.4570   -6.3410 c3        1 TII     -0.111100
     17 C10         7.0530   -0.6070   -3.9830 c3        1 TII     -0.111100
     18 C6          4.7880    2.5690   -6.0950 ca        1 TII      0.325200
     19 N5          3.7910    3.4040   -5.7790 nb        1 TII     -0.613000
     20 C4          2.9920    3.0940   -4.7460 ca        1 TII      0.296200
     21 H173        0.0680   -1.4700    0.4160 h1        1 TII      0.034367
     22 H171       -0.6740    0.1860    0.2930 h1        1 TII      0.034367
     23 H172        0.0810   -0.5840   -1.1820 h1        1 TII      0.034367
     24 H181        2.1540   -0.6280    2.1070 h1        1 TII      0.039700
     25 H182        0.7450    0.5150    2.2200 h1        1 TII      0.039700
     26 H191        2.1740    2.3310    2.3520 hc        1 TII      0.048700
     27 H192        3.5810    1.1990    2.3680 hc        1 TII      0.048700
     28 H201        2.9620    3.0100    0.2390 hc        1 TII      0.053200
     29 H202        4.0450    1.5720    0.1190 hc        1 TII      0.053200
     30 H11         3.7650    0.6910   -1.7400 h1        1 TII      0.057700
     31 H12         2.3120   -0.3330   -2.1350 h1        1 TII      0.057700
     32 H141        0.8690    3.1030   -0.3340 hc        1 TII      0.057700
     33 H142       -0.1060    1.7770   -1.0710 hc        1 TII      0.057700
     34 H131        0.4870    2.7580   -3.1100 h1        1 TII      0.048200
     35 H132        1.8980    3.6390   -2.3680 h1        1 TII      0.048200
     36 H120        4.3580    0.1070   -3.7320 ha        1 TII      0.145000
     37 H9          5.2710   -1.1770   -5.1110 h1        1 TII      0.051700
     38 H113        7.2450   -2.4900   -5.9710 hc        1 TII      0.048533
     39 H111        8.0090   -0.9480   -6.5620 hc        1 TII      0.048533
     40 H112        6.4470   -1.5120   -7.2830 hc        1 TII      0.048533
     41 H102        8.0490   -0.1360   -4.1630 hc        1 TII      0.048533
     42 H103        7.2060   -1.6320   -3.5690 hc        1 TII      0.048533
     43 H101        6.5040    0.0110   -3.2330 hc        1 TII      0.048533
     44 H6          5.4330    2.8460   -6.9440 h4        1 TII      0.035100
     45 H4          2.1800    3.8150   -4.5520 h4        1 TII      0.021100
@<TRIPOS>BOND
     1    1    2 1   
     2    1   21 1   
     3    1   22 1   
     4    1   23 1   
     5    2    3 1   
     6    2    6 1   
     7    3    4 1   
     8    3   24 1   
     9    3   25 1   
    10    4    5 1   
    11    4   26 1   
    12    4   27 1   
    13    5    6 1   
    14    5   28 1   
    15    5   29 1   
    16    6    7 1   
    17    6    8 1   
    18    7   10 1   
    19    7   30 1   
    20    7   31 1   
    21    8    9 1   
    22    8   32 1   
    23    8   33 1   
    24    9   10 1   
    25    9   34 1   
    26    9   35 1   
    27   10   11 1   
    28   11   12 ar  
    29   11   20 ar  
    30   12   13 ar  
    31   12   36 1   
    32   13   14 1   
    33   13   18 ar  
    34   14   15 1   
    35   15   16 1   
    36   15   17 1   
    37   15   37 1   
    38   16   38 1   
    39   16   39 1   
    40   16   40 1   
    41   17   41 1   
    42   17   42 1   
    43   17   43 1   
    44   18   19 ar  
    45   18   44 1   
    46   19   20 ar  
    47   20   45 1   
@<TRIPOS>SUBSTRUCTURE
     1 TII         1 TEMP              0 ****  ****    0 ROOT
