@<TRIPOS>MOLECULE
TIM
   46    47     1     0     0
SMALL
bcc


@<TRIPOS>ATOM
      1 C5          0.1440    0.4660   -0.2510 c3        1 TIM      0.135300
      2 C6          1.6650    0.6550   -0.1830 c3        1 TIM      0.124400
      3 O1          2.1850    0.2700    1.0850 os        1 TIM     -0.401600
      4 C2          1.5730    0.9770    2.1540 c3        1 TIM      0.124400
      5 C3          0.0490    0.7980    2.1520 c3        1 TIM      0.135300
      6 N4         -0.5290    1.1510    0.8550 nh        1 TIM     -0.689300
      7 C7         -1.9390    1.0800    0.8250 cc        1 TIM      0.473900
      8 N8         -2.7100    0.3040    0.0570 nd        1 TIM     -0.538100
      9 S9         -4.2850    0.7200    0.2920 ss        1 TIM      0.487200
     10 N10        -4.0930    1.8990    1.4290 nd        1 TIM     -0.584100
     11 C11        -2.7880    2.0220    1.6400 cc        1 TIM      0.442300
     12 O12        -2.1700    2.8800    2.5200 os        1 TIM     -0.425100
     13 C13        -3.0220    3.8940    3.0780 c3        1 TIM      0.100400
     14 C14        -2.0560    4.8190    3.8250 c3        1 TIM      0.120100
     15 O15        -1.1150    5.4240    2.9550 oh        1 TIM     -0.634800
     16 C16        -2.8700    5.9630    4.4620 c3        1 TIM      0.098800
     17 N17        -1.9900    7.0270    5.0140 n4        1 TIM     -0.761000
     18 C18        -2.7290    8.2530    5.5500 c3        1 TIM      0.153200
     19 C19        -3.7840    7.8410    6.5760 c3        1 TIM     -0.128767
     20 C20        -1.6970    9.1660    6.2260 c3        1 TIM     -0.128767
     21 C21        -3.3930    9.0150    4.4020 c3        1 TIM     -0.128767
     22 H5         -0.2350    0.9030   -1.2160 h1        1 TIM      0.062200
     23 H5A        -0.0810   -0.6390   -0.2490 h1        1 TIM      0.062200
     24 H6          2.1670   -0.0350   -0.9120 h1        1 TIM      0.060950
     25 H6A         1.9470    1.7190   -0.3990 h1        1 TIM      0.060950
     26 H2          2.0080    0.5160    3.0810 h1        1 TIM      0.060950
     27 H2A         1.8460    2.0630    2.0960 h1        1 TIM      0.060950
     28 H3         -0.1870   -0.2700    2.4270 h1        1 TIM      0.062200
     29 H3A        -0.3990    1.4730    2.9330 h1        1 TIM      0.062200
     30 H13        -3.5530    4.4440    2.2580 h1        1 TIM      0.080200
     31 H13A       -3.7580    3.4250    3.7790 h1        1 TIM      0.080200
     32 H14        -1.5010    4.2370    4.6140 h1        1 TIM      0.074700
     33 HO15       -0.8080    4.7470    2.3300 ho        1 TIM      0.469000
     34 H16        -3.5080    5.5440    5.2910 hx        1 TIM      0.112700
     35 H16A       -3.5350    6.4310    3.6800 hx        1 TIM      0.112700
     36 HN17       -1.3510    7.3340    4.2660 hn        1 TIM      0.456800
     37 H19        -4.2080    8.7690    7.0350 hc        1 TIM      0.076700
     38 H19A       -4.6220    7.2800    6.0950 hc        1 TIM      0.076700
     39 H19B       -3.3420    7.2210    7.3940 hc        1 TIM      0.076700
     40 H20        -2.2260   10.0760    6.6040 hc        1 TIM      0.076700
     41 H20A       -0.9110    9.4980    5.5040 hc        1 TIM      0.076700
     42 H20B       -1.2140    8.6600    7.0960 hc        1 TIM      0.076700
     43 H21        -3.8330    9.9570    4.8160 hc        1 TIM      0.076700
     44 H21A       -2.6540    9.2940    3.6120 hc        1 TIM      0.076700
     45 H21B       -4.2210    8.4240    3.9410 hc        1 TIM      0.076700
     46 H172       -1.4250    6.6340    5.7740 hn        1 TIM      0.456800
@<TRIPOS>BOND
     1    1    2 1   
     2    1    6 1   
     3    1   22 1   
     4    1   23 1   
     5    2    3 1   
     6    2   24 1   
     7    2   25 1   
     8    3    4 1   
     9    4    5 1   
    10    4   26 1   
    11    4   27 1   
    12    5    6 1   
    13    5   28 1   
    14    5   29 1   
    15    6    7 1   
    16    7    8 2   
    17    7   11 1   
    18    8    9 1   
    19    9   10 1   
    20   10   11 2   
    21   11   12 1   
    22   12   13 1   
    23   13   14 1   
    24   13   30 1   
    25   13   31 1   
    26   14   15 1   
    27   14   16 1   
    28   14   32 1   
    29   15   33 1   
    30   16   17 1   
    31   16   34 1   
    32   16   35 1   
    33   17   18 1   
    34   17   36 1   
    35   17   46 1   
    36   18   19 1   
    37   18   20 1   
    38   18   21 1   
    39   19   37 1   
    40   19   38 1   
    41   19   39 1   
    42   20   40 1   
    43   20   41 1   
    44   20   42 1   
    45   21   43 1   
    46   21   44 1   
    47   21   45 1   
@<TRIPOS>SUBSTRUCTURE
     1 TIM         1 TEMP              0 ****  ****    0 ROOT
