@<TRIPOS>MOLECULE
TIM
   45    46     1     0     0
SMALL
bcc


@<TRIPOS>ATOM
      1 C5         -4.1200   -1.0900    0.2880 c3        1 TIM      0.141800
      2 C6         -4.1520   -2.6040    0.5310 c3        1 TIM      0.123400
      3 O1         -3.3100   -2.9820    1.6140 os        1 TIM     -0.413600
      4 C2         -1.9650   -2.5620    1.4150 c3        1 TIM      0.123400
      5 C3         -1.8700   -1.0450    1.2010 c3        1 TIM      0.141800
      6 N4         -2.7520   -0.6000    0.1240 nh        1 TIM     -0.685300
      7 C7         -2.6400    0.7650   -0.2060 cc        1 TIM      0.472900
      8 N8         -3.6260    1.6630   -0.2690 nd        1 TIM     -0.549100
      9 S9         -3.0170    3.0710   -0.8820 ss        1 TIM      0.397200
     10 N10        -1.4310    2.6310   -1.0670 nd        1 TIM     -0.575100
     11 C11        -1.3320    1.3670   -0.6790 cc        1 TIM      0.471300
     12 O12        -0.2060    0.5930   -0.6490 os        1 TIM     -0.408100
     13 C13         0.9780    1.1900   -1.2150 c3        1 TIM      0.102400
     14 C14         2.0700    0.1260   -1.0820 c3        1 TIM      0.091100
     15 O15         2.0260   -0.8040   -2.1470 oh        1 TIM     -0.585800
     16 C16         3.4460    0.8270   -1.0090 c3        1 TIM      0.136800
     17 N17         4.5970   -0.0380   -1.0410 n3        1 TIM     -0.811200
     18 C18         5.1670   -0.4400    0.2550 c3        1 TIM      0.182200
     19 C19         4.1420   -1.0240    1.2420 c3        1 TIM     -0.100767
     20 C20         6.2420   -1.5190    0.0240 c3        1 TIM     -0.100767
     21 C21         5.8530    0.7510    0.9450 c3        1 TIM     -0.100767
     22 H5         -4.6900   -0.8640   -0.6550 h1        1 TIM      0.061200
     23 H5A        -4.6400   -0.5760    1.1480 h1        1 TIM      0.061200
     24 H6         -5.1800   -2.9160    0.8530 h1        1 TIM      0.059700
     25 H6A        -3.8490   -3.1630   -0.3940 h1        1 TIM      0.059700
     26 H2         -1.4390   -2.8440    2.3640 h1        1 TIM      0.059700
     27 H2A        -1.5210   -3.1140    0.5450 h1        1 TIM      0.059700
     28 H3         -2.1240   -0.5290    2.1710 h1        1 TIM      0.061200
     29 H3A        -0.8090   -0.7900    0.9260 h1        1 TIM      0.061200
     30 H13         0.7880    1.4490   -2.2880 h1        1 TIM      0.063200
     31 H13A        1.2380    2.1130   -0.6360 h1        1 TIM      0.063200
     32 H14         1.8870   -0.5050   -0.1650 h1        1 TIM      0.096700
     33 HO15        2.1860   -0.3190   -2.9660 ho        1 TIM      0.401000
     34 H16         3.5340    1.5000   -1.9120 h1        1 TIM      0.056200
     35 H16A        3.4610    1.4760   -0.0910 h1        1 TIM      0.056200
     36 HN17        4.3940   -0.8600   -1.5850 hn        1 TIM      0.373800
     37 H19         3.6110   -1.8960    0.7900 hc        1 TIM      0.039256
     38 H19A        4.6660   -1.3670    2.1650 hc        1 TIM      0.039256
     39 H19B        3.3890   -0.2530    1.5310 hc        1 TIM      0.039256
     40 H20         7.0350   -1.1440   -0.6660 hc        1 TIM      0.039256
     41 H20A        6.7130   -1.7800    1.0010 hc        1 TIM      0.039256
     42 H20B        5.7900   -2.4420   -0.4100 hc        1 TIM      0.039256
     43 H21         5.1120    1.5390    1.2190 hc        1 TIM      0.039256
     44 H21A        6.3490    0.3940    1.8780 hc        1 TIM      0.039256
     45 H21B        6.6250    1.2000    0.2760 hc        1 TIM      0.039256
@<TRIPOS>BOND
     1    1    2 1   
     2    1    6 1   
     3    1   22 1   
     4    1   23 1   
     5    2    3 1   
     6    2   24 1   
     7    2   25 1   
     8    3    4 1   
     9    4    5 1   
    10    4   26 1   
    11    4   27 1   
    12    5    6 1   
    13    5   28 1   
    14    5   29 1   
    15    6    7 1   
    16    7    8 2   
    17    7   11 1   
    18    8    9 1   
    19    9   10 1   
    20   10   11 2   
    21   11   12 1   
    22   12   13 1   
    23   13   14 1   
    24   13   30 1   
    25   13   31 1   
    26   14   15 1   
    27   14   16 1   
    28   14   32 1   
    29   15   33 1   
    30   16   17 1   
    31   16   34 1   
    32   16   35 1   
    33   17   18 1   
    34   17   36 1   
    35   18   19 1   
    36   18   20 1   
    37   18   21 1   
    38   19   37 1   
    39   19   38 1   
    40   19   39 1   
    41   20   40 1   
    42   20   41 1   
    43   20   42 1   
    44   21   43 1   
    45   21   44 1   
    46   21   45 1   
@<TRIPOS>SUBSTRUCTURE
     1 TIM         1 TEMP              0 ****  ****    0 ROOT
