@<TRIPOS>MOLECULE
TIM
   46    47     1     0     0
SMALL
bcc


@<TRIPOS>ATOM
      1 C5          0.1490    0.4700   -0.2540 c3        1 TIM      0.135300
      2 C6          1.6710    0.6510   -0.1740 c3        1 TIM      0.124400
      3 O1          2.1790    0.2600    1.0960 os        1 TIM     -0.401600
      4 C2          1.5640    0.9650    2.1640 c3        1 TIM      0.124400
      5 C3          0.0380    0.7950    2.1500 c3        1 TIM      0.135300
      6 N4         -0.5280    1.1550    0.8500 nh        1 TIM     -0.689300
      7 C7         -1.9380    1.0910    0.8090 cc        1 TIM      0.473900
      8 N8         -2.7080    0.3220    0.0330 nd        1 TIM     -0.538100
      9 S9         -4.2820    0.7450    0.2590 ss        1 TIM      0.487200
     10 N10        -4.0920    1.9190    1.4010 nd        1 TIM     -0.584100
     11 C11        -2.7880    2.0340    1.6220 cc        1 TIM      0.442300
     12 O12        -2.1730    2.8850    2.5100 os        1 TIM     -0.425100
     13 C13        -3.0230    3.9020    3.0650 c3        1 TIM      0.100400
     14 C14        -2.0580    4.8190    3.8240 c3        1 TIM      0.120100
     15 O15        -1.1070    5.4220    2.9640 oh        1 TIM     -0.634800
     16 C16        -2.8720    5.9640    4.4600 c3        1 TIM      0.098800
     17 N17        -1.9910    7.0210    5.0240 n4        1 TIM     -0.761000
     18 C18        -2.7270    8.2490    5.5570 c3        1 TIM      0.153200
     19 C19        -3.7950    7.8380    6.5710 c3        1 TIM     -0.128767
     20 C20        -1.6970    9.1520    6.2480 c3        1 TIM     -0.128767
     21 C21        -3.3750    9.0200    4.4060 c3        1 TIM     -0.128767
     22 H5         -0.0810   -0.6340   -0.2570 h1        1 TIM      0.062200
     23 H5A        -0.2200    0.9120   -1.2200 h1        1 TIM      0.062200
     24 H6          2.1740   -0.0390   -0.9010 h1        1 TIM      0.060950
     25 H6A         1.9590    1.7140   -0.3850 h1        1 TIM      0.060950
     26 H2          1.9900    0.5000    3.0920 h1        1 TIM      0.060950
     27 H2A         1.8420    2.0510    2.1110 h1        1 TIM      0.060950
     28 H3         -0.2040   -0.2730    2.4200 h1        1 TIM      0.062200
     29 H3A        -0.4120    1.4690    2.9300 h1        1 TIM      0.062200
     30 H13        -3.5450    4.4580    2.2440 h1        1 TIM      0.080200
     31 H13A       -3.7680    3.4340    3.7580 h1        1 TIM      0.080200
     32 H14        -1.5130    4.2300    4.6150 h1        1 TIM      0.074700
     33 HO15       -0.8000    4.7460    2.3390 ho        1 TIM      0.469000
     34 H16        -3.5180    5.5450    5.2820 hx        1 TIM      0.112700
     35 H16A       -3.5280    6.4390    3.6750 hx        1 TIM      0.112700
     36 HN17       -1.4350    6.6210    5.7860 hn        1 TIM      0.456800
     37 H19        -3.3660    7.2120    7.3900 hc        1 TIM      0.076700
     38 H19A       -4.6320    7.2860    6.0790 hc        1 TIM      0.076700
     39 H19B       -4.2180    8.7680    7.0300 hc        1 TIM      0.076700
     40 H20        -1.2250    8.6390    7.1210 hc        1 TIM      0.076700
     41 H20A       -2.2240   10.0640    6.6250 hc        1 TIM      0.076700
     42 H20B       -0.9010    9.4820    5.5360 hc        1 TIM      0.076700
     43 H21        -3.8130    9.9630    4.8210 hc        1 TIM      0.076700
     44 H21A       -4.2010    8.4360    3.9340 hc        1 TIM      0.076700
     45 H21B       -2.6260    9.2990    3.6260 hc        1 TIM      0.076700
     46 H172       -1.3440    7.3270    4.2820 hn        1 TIM      0.456800
@<TRIPOS>BOND
     1    1    2 1   
     2    1    6 1   
     3    1   22 1   
     4    1   23 1   
     5    2    3 1   
     6    2   24 1   
     7    2   25 1   
     8    3    4 1   
     9    4    5 1   
    10    4   26 1   
    11    4   27 1   
    12    5    6 1   
    13    5   28 1   
    14    5   29 1   
    15    6    7 1   
    16    7    8 2   
    17    7   11 1   
    18    8    9 1   
    19    9   10 1   
    20   10   11 2   
    21   11   12 1   
    22   12   13 1   
    23   13   14 1   
    24   13   30 1   
    25   13   31 1   
    26   14   15 1   
    27   14   16 1   
    28   14   32 1   
    29   15   33 1   
    30   16   17 1   
    31   16   34 1   
    32   16   35 1   
    33   17   18 1   
    34   17   36 1   
    35   17   46 1   
    36   18   19 1   
    37   18   20 1   
    38   18   21 1   
    39   19   37 1   
    40   19   38 1   
    41   19   39 1   
    42   20   40 1   
    43   20   41 1   
    44   20   42 1   
    45   21   43 1   
    46   21   44 1   
    47   21   45 1   
@<TRIPOS>SUBSTRUCTURE
     1 TIM         1 TEMP              0 ****  ****    0 ROOT
