@<TRIPOS>MOLECULE
TIM
   46    47     1     0     0
SMALL
bcc


@<TRIPOS>ATOM
      1 C5          0.1400    0.4640   -0.2520 c3        1 TIM      0.135300
      2 C6          1.6620    0.6390   -0.1710 c3        1 TIM      0.124400
      3 O1          2.1680    0.2470    1.1000 os        1 TIM     -0.401600
      4 C2          1.5540    0.9550    2.1660 c3        1 TIM      0.124400
      5 C3          0.0280    0.7900    2.1510 c3        1 TIM      0.135300
      6 N4         -0.5370    1.1510    0.8500 nh        1 TIM     -0.689300
      7 C7         -1.9470    1.0920    0.8080 cc        1 TIM      0.473900
      8 N8         -2.7180    0.3260    0.0320 nd        1 TIM     -0.538100
      9 S9         -4.2910    0.7530    0.2560 ss        1 TIM      0.487200
     10 N10        -4.0980    1.9270    1.3980 nd        1 TIM     -0.584100
     11 C11        -2.7940    2.0380    1.6200 cc        1 TIM      0.442300
     12 O12        -2.1760    2.8880    2.5080 os        1 TIM     -0.425100
     13 C13        -3.0240    3.9070    3.0630 c3        1 TIM      0.100400
     14 C14        -2.0570    4.8220    3.8220 c3        1 TIM      0.120100
     15 O15        -1.1040    5.4220    2.9610 oh        1 TIM     -0.634800
     16 C16        -2.8680    5.9690    4.4580 c3        1 TIM      0.098800
     17 N17        -1.9840    7.0230    5.0210 ny        1 TIM     -0.761000
     18 C18        -2.7170    8.2520    5.5580 c3        1 TIM      0.153200
     19 C19        -3.7800    7.8430    6.5760 c3        1 TIM     -0.128767
     20 C20        -1.6830    9.1550    6.2430 c3        1 TIM     -0.128767
     21 C21        -3.3700    9.0230    4.4090 c3        1 TIM     -0.128767
     22 H5         -0.0950   -0.6400   -0.2560 h1        1 TIM      0.062200
     23 H5A        -0.2270    0.9070   -1.2190 h1        1 TIM      0.062200
     24 H6          1.9540    1.7020   -0.3820 h1        1 TIM      0.060950
     25 H6A         2.1630   -0.0530   -0.8980 h1        1 TIM      0.060950
     26 H2          1.9770    0.4880    3.0950 h1        1 TIM      0.060950
     27 H2A         1.8360    2.0390    2.1140 h1        1 TIM      0.060950
     28 H3         -0.4210    1.4660    2.9300 h1        1 TIM      0.062200
     29 H3A        -0.2190   -0.2780    2.4210 h1        1 TIM      0.062200
     30 H13        -3.7700    3.4410    3.7560 h1        1 TIM      0.080200
     31 H13A       -3.5450    4.4650    2.2410 h1        1 TIM      0.080200
     32 H14        -1.5120    4.2310    4.6120 h1        1 TIM      0.074700
     33 HO15       -0.7980    4.7460    2.3360 ho        1 TIM      0.469000
     34 H16        -3.5230    6.4450    3.6730 hx        1 TIM      0.112700
     35 H16A       -3.5140    5.5510    5.2800 hx        1 TIM      0.112700
     36 HN17       -1.3380    7.3290    4.2780 hn        1 TIM      0.456800
     37 H19        -4.6190    7.2900    6.0890 hc        1 TIM      0.076700
     38 H19A       -3.3470    7.2160    7.3940 hc        1 TIM      0.076700
     39 H19B       -4.2010    8.7720    7.0360 hc        1 TIM      0.076700
     40 H20        -0.8910    9.4850    5.5270 hc        1 TIM      0.076700
     41 H20A       -2.2080   10.0680    6.6230 hc        1 TIM      0.076700
     42 H20B       -1.2070    8.6430    7.1140 hc        1 TIM      0.076700
     43 H21        -4.1990    8.4400    3.9420 hc        1 TIM      0.076700
     44 H21A       -2.6250    9.3010    3.6250 hc        1 TIM      0.076700
     45 H21B       -3.8050    9.9670    4.8250 hc        1 TIM      0.076700
     46 H172       -1.4270    6.6220    5.7820 hn        1 TIM      0.456800
@<TRIPOS>BOND
     1    1    2 1   
     2    1    6 1   
     3    1   22 1   
     4    1   23 1   
     5    2    3 1   
     6    2   24 1   
     7    2   25 1   
     8    3    4 1   
     9    4    5 1   
    10    4   26 1   
    11    4   27 1   
    12    5    6 1   
    13    5   28 1   
    14    5   29 1   
    15    6    7 1   
    16    7    8 2   
    17    7   11 1   
    18    8    9 1   
    19    9   10 1   
    20   10   11 2   
    21   11   12 1   
    22   12   13 1   
    23   13   14 1   
    24   13   30 1   
    25   13   31 1   
    26   14   15 1   
    27   14   16 1   
    28   14   32 1   
    29   15   33 1   
    30   16   17 1   
    31   16   34 1   
    32   16   35 1   
    33   17   18 1   
    34   17   36 1   
    35   17   46 1   
    36   18   19 1   
    37   18   20 1   
    38   18   21 1   
    39   19   37 1   
    40   19   38 1   
    41   19   39 1   
    42   20   40 1   
    43   20   41 1   
    44   20   42 1   
    45   21   43 1   
    46   21   44 1   
    47   21   45 1   
@<TRIPOS>SUBSTRUCTURE
     1 TIM         1 TEMP              0 ****  ****    0 ROOT
