@<TRIPOS>MOLECULE
TIN
   83    85     1     0     0
SMALL
bcc


@<TRIPOS>ATOM
      1 C1         -3.0950    2.9370   -5.5630 c3        1 TIN     -0.076900
      2 C2         -1.6750    2.4500   -5.3590 c3        1 TIN     -0.073400
      3 C3         -1.6420    0.9660   -5.0110 c3        1 TIN     -0.065700
      4 C4         -2.3550    0.1610   -6.0880 c3        1 TIN     -0.073400
      5 C5         -3.7760    0.6460   -6.2900 c3        1 TIN     -0.076900
      6 C6         -3.8120    2.1240   -6.6210 c3        1 TIN     -0.075400
      7 C17        -0.2000    0.5110   -4.8370 c3        1 TIN     -0.076400
      8 C19        -0.1320   -0.8210   -4.0880 c3        1 TIN      0.168800
      9 N2          1.2280   -1.2210   -3.7450 n3        1 TIN     -0.734600
     10 C25         1.9560   -1.7620   -4.8850 c3        1 TIN      0.173800
     11 C26         3.4760   -1.6980   -4.7330 c3        1 TIN     -0.083400
     12 C29         4.1430   -2.0910   -6.0350 c3        1 TIN     -0.080400
     13 C32         5.6440   -2.0760   -5.9080 c3        1 TIN     -0.092100
     14 C38         1.2820   -2.1070   -2.5870 c3        1 TIN      0.219100
     15 C40         0.7400   -1.5080   -1.3220 ca        1 TIN     -0.096300
     16 C43        -0.3100   -2.1370   -0.6450 ca        1 TIN     -0.139000
     17 C44        -0.7760   -1.6110    0.5560 ca        1 TIN     -0.107000
     18 C45        -0.2050   -0.4520    1.0930 ca        1 TIN     -0.100600
     19 C46         0.8450    0.1880    0.4210 cp        1 TIN     -0.002000
     20 C47         1.3090   -0.3500   -0.7890 ca        1 TIN     -0.104000
     21 C51         1.4620    1.4220    0.9250 cp        1 TIN     -0.063000
     22 C52         2.5250    1.3980    1.8440 ca        1 TIN     -0.026300
     23 C53         3.0830    2.6130    2.2710 ca        1 TIN     -0.134000
     24 C54         2.6000    3.8270    1.7940 ca        1 TIN     -0.123000
     25 C55         1.5450    3.8470    0.8810 ca        1 TIN     -0.153000
     26 C56         0.9790    2.6510    0.4510 ca        1 TIN     -0.100000
     27 C65        -0.7720    0.0780    2.3810 c         1 TIN      0.656700
     28 C66        -0.4760    0.1190    4.8490 c3        1 TIN     -0.044300
     29 O67        -1.7670    0.8400    2.3620 o         1 TIN     -0.644100
     30 C68         0.8140    0.1130    5.7540 c         1 TIN      0.915600
     31 O69         1.8440   -0.4930    5.3410 o         1 TIN     -0.828300
     32 O70         0.7270    0.7290    6.8460 o         1 TIN     -0.828300
     33 N1         -0.2020   -0.4040    3.5260 n         1 TIN     -0.512900
     34 C74        -1.5700   -0.6590    5.5970 c3        1 TIN     -0.067400
     35 C76        -2.9440   -0.2870    5.1070 c3        1 TIN      0.007700
     36 S1         -4.1130   -1.4410    5.7910 ss        1 TIN     -0.345200
     37 C82        -5.6200   -0.8650    5.1060 c3        1 TIN     -0.034000
     38 C7          3.0610    0.1360    2.4010 c3        1 TIN     -0.095800
     39 HC11       -3.6560    2.8660   -4.5940 hc        1 TIN      0.038450
     40 HC12       -3.0790    4.0160   -5.8650 hc        1 TIN      0.038450
     41 HC21       -1.1950    3.0370   -4.5330 hc        1 TIN      0.038450
     42 HC22       -1.0780    2.6250   -6.2910 hc        1 TIN      0.038450
     43 HC3        -2.1900    0.8220   -4.0370 hc        1 TIN      0.057700
     44 HC41       -1.7890    0.2450   -7.0520 hc        1 TIN      0.038450
     45 HC42       -2.3700   -0.9220   -5.7980 hc        1 TIN      0.038450
     46 HC51       -4.3700    0.4590   -5.3570 hc        1 TIN      0.038450
     47 HC52       -4.2560    0.0630   -7.1180 hc        1 TIN      0.038450
     48 HC61       -4.8760    2.4660   -6.7020 hc        1 TIN      0.033700
     49 HC62       -3.3250    2.2950   -7.6170 hc        1 TIN      0.033700
     50 H171        0.3640    1.2900   -4.2580 hc        1 TIN      0.046200
     51 H172        0.2860    0.4230   -5.8420 hc        1 TIN      0.046200
     52 H191       -0.6470   -1.6130   -4.7080 h1        1 TIN      0.036200
     53 H192       -0.7170   -0.7120   -3.1290 h1        1 TIN      0.036200
     54 H251        1.6730   -1.1610   -5.7960 h1        1 TIN      0.025700
     55 H252        1.6640   -2.8350   -5.0910 h1        1 TIN      0.025700
     56 H261        3.8160   -2.3890   -3.9180 hc        1 TIN      0.050700
     57 H262        3.7900   -0.6620   -4.4440 hc        1 TIN      0.050700
     58 H291        3.8270   -1.3840   -6.8470 hc        1 TIN      0.034700
     59 H292        3.8000   -3.1160   -6.3380 hc        1 TIN      0.034700
     60 H321        6.1190   -2.3610   -6.8780 hc        1 TIN      0.032033
     61 H322        6.0050   -1.0580   -5.6230 hc        1 TIN      0.032033
     62 H323        5.9810   -2.7980   -5.1250 hc        1 TIN      0.032033
     63 H381        0.7430   -3.0800   -2.7940 h1        1 TIN      0.034200
     64 H382        2.3690   -2.3560   -2.4080 h1        1 TIN      0.034200
     65 HC43       -0.7660   -3.0490   -1.0570 ha        1 TIN      0.123000
     66 HC44       -1.6010   -2.1050    1.0930 ha        1 TIN      0.143000
     67 HC47        2.1310    0.1500   -1.3250 ha        1 TIN      0.145000
     68 HC53        3.8990    2.5930    3.0090 ha        1 TIN      0.136000
     69 HC54        3.0420    4.7700    2.1460 ha        1 TIN      0.120000
     70 HC55        1.1530    4.8050    0.5110 ha        1 TIN      0.119000
     71 HC56        0.1360    2.6630   -0.2550 ha        1 TIN      0.131000
     72 HC66       -0.8120    1.1920    4.7530 h1        1 TIN      0.062700
     73 HN1         0.6780   -0.8800    3.4580 hn        1 TIN      0.331500
     74 H741       -1.4050   -1.7630    5.4930 hc        1 TIN      0.064700
     75 H742       -1.4660   -0.3980    6.6860 hc        1 TIN      0.064700
     76 H761       -3.2070    0.7490    5.4280 h1        1 TIN      0.066700
     77 H762       -2.9940   -0.3170    3.9910 h1        1 TIN      0.066700
     78 H821       -6.4180   -1.5590    5.4520 h1        1 TIN      0.050700
     79 H822       -5.8590    0.1660    5.4470 h1        1 TIN      0.050700
     80 H823       -5.5910   -0.8660    3.9930 h1        1 TIN      0.050700
     81 HC71        2.7480    0.0290    3.4810 hc        1 TIN      0.067700
     82 HC72        2.6900   -0.7540    1.8370 hc        1 TIN      0.067700
     83 HC73        4.1790    0.1370    2.3650 hc        1 TIN      0.067700
@<TRIPOS>BOND
     1    1    2 1   
     2    1    6 1   
     3    1   39 1   
     4    1   40 1   
     5    2    3 1   
     6    2   41 1   
     7    2   42 1   
     8    3    4 1   
     9    3    7 1   
    10    3   43 1   
    11    4    5 1   
    12    4   44 1   
    13    4   45 1   
    14    5    6 1   
    15    5   46 1   
    16    5   47 1   
    17    6   48 1   
    18    6   49 1   
    19    7    8 1   
    20    7   50 1   
    21    7   51 1   
    22    8    9 1   
    23    8   52 1   
    24    8   53 1   
    25    9   10 1   
    26    9   14 1   
    27   10   11 1   
    28   10   54 1   
    29   10   55 1   
    30   11   12 1   
    31   11   56 1   
    32   11   57 1   
    33   12   13 1   
    34   12   58 1   
    35   12   59 1   
    36   13   60 1   
    37   13   61 1   
    38   13   62 1   
    39   14   15 1   
    40   14   63 1   
    41   14   64 1   
    42   15   16 ar  
    43   15   20 ar  
    44   16   17 ar  
    45   16   65 1   
    46   17   18 ar  
    47   17   66 1   
    48   18   19 ar  
    49   18   27 1   
    50   19   20 ar  
    51   19   21 1   
    52   20   67 1   
    53   21   22 ar  
    54   21   26 ar  
    55   22   23 ar  
    56   22   38 1   
    57   23   24 ar  
    58   23   68 1   
    59   24   25 ar  
    60   24   69 1   
    61   25   26 ar  
    62   25   70 1   
    63   26   71 1   
    64   27   29 2   
    65   27   33 1   
    66   28   30 1   
    67   28   33 1   
    68   28   34 1   
    69   28   72 1   
    70   30   31 1   
    71   30   32 1   
    72   33   73 1   
    73   34   35 1   
    74   34   74 1   
    75   34   75 1   
    76   35   36 1   
    77   35   76 1   
    78   35   77 1   
    79   36   37 1   
    80   37   78 1   
    81   37   79 1   
    82   37   80 1   
    83   38   81 1   
    84   38   82 1   
    85   38   83 1   
@<TRIPOS>SUBSTRUCTURE
     1 TIN         1 TEMP              0 ****  ****    0 ROOT
