@<TRIPOS>MOLECULE
TIN
   85    87     1     0     0
SMALL
bcc


@<TRIPOS>ATOM
      1 C1          0.7970   -0.7830   -0.9100 c3        1 TIN     -0.077900
      2 C2          2.2210   -0.5330   -0.4580 c3        1 TIN     -0.074900
      3 C3          2.3930   -0.8700    1.0190 c3        1 TIN     -0.062700
      4 C4          1.9810   -2.3120    1.2800 c3        1 TIN     -0.074900
      5 C5          0.5560   -2.5610    0.8300 c3        1 TIN     -0.077900
      6 C6          0.3700   -2.2090   -0.6310 c3        1 TIN     -0.081400
      7 C17         3.8400   -0.6210    1.4280 c3        1 TIN     -0.103400
      8 C19         3.9530   -0.5490    2.9460 c3        1 TIN      0.103800
      9 N2          5.3410   -0.2370    3.4260 nx        1 TIN     -0.689400
     10 C25         6.2100   -1.4590    3.4020 c3        1 TIN      0.102800
     11 C26         7.7000   -1.1450    3.3410 c3        1 TIN     -0.107400
     12 C29         8.4830   -2.4420    3.2660 c3        1 TIN     -0.077400
     13 C32         9.9640   -2.1710    3.2120 c3        1 TIN     -0.099100
     14 C38         5.3000    0.3630    4.8060 c3        1 TIN      0.164100
     15 C40         4.8210    1.7780    4.8010 ca        1 TIN     -0.129300
     16 C43         3.5800    2.0910    5.3620 ca        1 TIN     -0.092000
     17 C44         3.2030    3.4260    5.4970 ca        1 TIN     -0.035000
     18 C45         4.0520    4.4450    5.0460 ca        1 TIN     -0.131600
     19 C46         5.2880    4.1400    4.4500 cp        1 TIN      0.059000
     20 C47         5.6600    2.7920    4.3350 ca        1 TIN     -0.116000
     21 C51         6.2110    5.1760    3.9770 cp        1 TIN     -0.121000
     22 C52         7.4770    5.3400    4.5700 ca        1 TIN     -0.042300
     23 C53         8.3390    6.3220    4.0630 ca        1 TIN     -0.137000
     24 C54         7.9610    7.1220    2.9880 ca        1 TIN     -0.100000
     25 C55         6.7030    6.9580    2.4060 ca        1 TIN     -0.135000
     26 C56         5.8320    5.9920    2.9010 ca        1 TIN     -0.105000
     27 C65         3.6380    5.8510    5.2630 c         1 TIN      0.574700
     28 C66         4.8140    5.9890    7.4570 c3        1 TIN     -0.046500
     29 O67         3.3180    6.6610    4.3980 o         1 TIN     -0.447100
     30 C68         4.6990    4.5060    8.0380 c         1 TIN      0.926600
     31 O69         3.5240    4.0730    8.1760 o         1 TIN     -0.775300
     32 O70         5.7830    3.9290    8.2490 o         1 TIN     -0.775300
     33 N1          3.5700    6.3090    6.6770 ny        1 TIN     -0.677800
     34 C74         5.0190    6.9310    8.6350 c3        1 TIN     -0.084400
     35 C76         5.3050    8.3560    8.2480 c3        1 TIN     -0.027300
     36 S1          3.7700    9.1370    7.7980 ss        1 TIN     -0.322200
     37 C82         4.2750   10.4680    6.7680 c3        1 TIN     -0.038000
     38 C7          7.9210    4.5030    5.7090 c3        1 TIN     -0.086800
     39 HC11        0.1060   -0.0750   -0.3820 hc        1 TIN      0.051200
     40 HC12        0.7170   -0.5750   -2.0090 hc        1 TIN      0.051200
     41 HC21        2.9250   -1.1590   -1.0660 hc        1 TIN      0.040950
     42 HC22        2.4850    0.5430   -0.6310 hc        1 TIN      0.040950
     43 HC3         1.7210   -0.1910    1.6160 hc        1 TIN      0.056700
     44 HC41        2.6720   -3.0040    0.7300 hc        1 TIN      0.040950
     45 HC42        2.0690   -2.5430    2.3740 hc        1 TIN      0.040950
     46 HC51       -0.1470   -1.9500    1.4550 hc        1 TIN      0.051200
     47 HC52        0.2990   -3.6400    0.9930 hc        1 TIN      0.051200
     48 HC61       -0.7070   -2.3400   -0.9140 hc        1 TIN      0.052700
     49 HC62        0.9720   -2.9120   -1.2660 hc        1 TIN      0.052700
     50 H171        4.4860   -1.4410    1.0180 hc        1 TIN      0.062200
     51 H172        4.1860    0.3460    0.9730 hc        1 TIN      0.062200
     52 H191        3.6390   -1.5260    3.4100 hx        1 TIN      0.103700
     53 H192        3.2740    0.2670    3.3330 hx        1 TIN      0.103700
     54 H251        5.9230   -2.0670    2.4950 hx        1 TIN      0.101700
     55 H252        5.9790   -2.0670    4.3230 hx        1 TIN      0.101700
     56 H261        8.0240   -0.5690    4.2480 hc        1 TIN      0.064700
     57 H262        7.9320   -0.5180    2.4380 hc        1 TIN      0.064700
     58 H291        8.2480   -3.0760    4.1620 hc        1 TIN      0.053700
     59 H292        8.1710   -3.0190    2.3550 hc        1 TIN      0.053700
     60 H321       10.5250   -3.1370    3.1550 hc        1 TIN      0.050367
     61 H322       10.2250   -1.5600    2.3130 hc        1 TIN      0.050367
     62 H323       10.3020   -1.6220    4.1230 hc        1 TIN      0.050367
     63 H381        4.6350   -0.2850    5.4460 hx        1 TIN      0.113200
     64 H382        6.3470    0.3250    5.2290 hx        1 TIN      0.113200
     65 HC43        2.9190    1.3020    5.7540 ha        1 TIN      0.157000
     66 HC44        2.2610    3.6700    6.0190 ha        1 TIN      0.175000
     67 HC47        6.6480    2.5530    3.9110 ha        1 TIN      0.144000
     68 HC53        9.3300    6.4590    4.5250 ha        1 TIN      0.148000
     69 HC54        8.6530    7.8840    2.5980 ha        1 TIN      0.147000
     70 HC55        6.3980    7.5900    1.5590 ha        1 TIN      0.148000
     71 HC56        4.8310    5.8750    2.4550 ha        1 TIN      0.144000
     72 HC66        5.6930    6.0390    6.7570 hx        1 TIN      0.091700
     73 HN1         2.8100    5.7770    7.1530 hn        1 TIN      0.478300
     74 H741        4.1360    6.8850    9.3300 hc        1 TIN      0.099700
     75 H742        5.9000    6.5150    9.2040 hc        1 TIN      0.099700
     76 H761        6.0310    8.4120    7.4020 h1        1 TIN      0.080200
     77 H762        5.7510    8.9030    9.1160 h1        1 TIN      0.080200
     78 H821        4.9240   11.1830    7.3220 h1        1 TIN      0.076700
     79 H822        4.8170   10.1150    5.8640 h1        1 TIN      0.076700
     80 H823        3.3410   10.9920    6.4580 h1        1 TIN      0.076700
     81 HC71        8.2890    3.5140    5.3340 hc        1 TIN      0.064700
     82 HC72        7.0880    4.3110    6.4380 hc        1 TIN      0.064700
     83 HC73        8.7590    4.9930    6.2640 hc        1 TIN      0.064700
     84 H21         5.7490    0.4620    2.7910 hn        1 TIN      0.444800
     85 H12         3.3690    7.3410    6.7240 hn        1 TIN      0.478300
@<TRIPOS>BOND
     1    1    2 1   
     2    1    6 1   
     3    1   39 1   
     4    1   40 1   
     5    2    3 1   
     6    2   41 1   
     7    2   42 1   
     8    3    4 1   
     9    3    7 1   
    10    3   43 1   
    11    4    5 1   
    12    4   44 1   
    13    4   45 1   
    14    5    6 1   
    15    5   46 1   
    16    5   47 1   
    17    6   48 1   
    18    6   49 1   
    19    7    8 1   
    20    7   50 1   
    21    7   51 1   
    22    8    9 1   
    23    8   52 1   
    24    8   53 1   
    25    9   10 1   
    26    9   14 1   
    27    9   84 1   
    28   10   11 1   
    29   10   54 1   
    30   10   55 1   
    31   11   12 1   
    32   11   56 1   
    33   11   57 1   
    34   12   13 1   
    35   12   58 1   
    36   12   59 1   
    37   13   60 1   
    38   13   61 1   
    39   13   62 1   
    40   14   15 1   
    41   14   63 1   
    42   14   64 1   
    43   15   16 ar  
    44   15   20 ar  
    45   16   17 ar  
    46   16   65 1   
    47   17   18 ar  
    48   17   66 1   
    49   18   19 ar  
    50   18   27 1   
    51   19   20 ar  
    52   19   21 1   
    53   20   67 1   
    54   21   22 ar  
    55   21   26 ar  
    56   22   23 ar  
    57   22   38 1   
    58   23   24 ar  
    59   23   68 1   
    60   24   25 ar  
    61   24   69 1   
    62   25   26 ar  
    63   25   70 1   
    64   26   71 1   
    65   27   29 2   
    66   27   33 1   
    67   28   30 1   
    68   28   33 1   
    69   28   34 1   
    70   28   72 1   
    71   30   31 1   
    72   30   32 1   
    73   33   73 1   
    74   33   85 1   
    75   34   35 1   
    76   34   74 1   
    77   34   75 1   
    78   35   36 1   
    79   35   76 1   
    80   35   77 1   
    81   36   37 1   
    82   37   78 1   
    83   37   79 1   
    84   37   80 1   
    85   38   81 1   
    86   38   82 1   
    87   38   83 1   
@<TRIPOS>SUBSTRUCTURE
     1 TIN         1 TEMP              0 ****  ****    0 ROOT
