@<TRIPOS>MOLECULE
TIN
   85    87     1     0     0
SMALL
bcc


@<TRIPOS>ATOM
      1 C1          0.8330   -0.7660   -0.9520 c3        1 TIN     -0.077900
      2 C2          2.2530   -0.5160   -0.4890 c3        1 TIN     -0.074900
      3 C3          2.4170   -0.8600    0.9870 c3        1 TIN     -0.062700
      4 C4          2.0060   -2.3050    1.2380 c3        1 TIN     -0.074900
      5 C5          0.5830   -2.5530    0.7770 c3        1 TIN     -0.077900
      6 C6          0.4060   -2.1940   -0.6830 c3        1 TIN     -0.081400
      7 C17         3.8610   -0.6110    1.4060 c3        1 TIN     -0.103400
      8 C19         3.9650   -0.5480    2.9250 c3        1 TIN      0.103800
      9 N2          5.3490   -0.2370    3.4150 n4        1 TIN     -0.689400
     10 C25         6.2200   -1.4560    3.3890 c3        1 TIN      0.102800
     11 C26         7.7100   -1.1390    3.3380 c3        1 TIN     -0.107400
     12 C29         8.4960   -2.4340    3.2610 c3        1 TIN     -0.077400
     13 C32         9.9770   -2.1600    3.2170 c3        1 TIN     -0.099100
     14 C38         5.2980    0.3560    4.7980 c3        1 TIN      0.164100
     15 C40         4.8160    1.7690    4.7990 ca        1 TIN     -0.129300
     16 C43         3.5710    2.0770    5.3520 ca        1 TIN     -0.092000
     17 C44         3.1890    3.4100    5.4920 ca        1 TIN     -0.035000
     18 C45         4.0400    4.4330    5.0530 ca        1 TIN     -0.131600
     19 C46         5.2820    4.1350    4.4650 cp        1 TIN      0.059000
     20 C47         5.6570    2.7880    4.3450 ca        1 TIN     -0.116000
     21 C51         6.2060    5.1760    4.0060 cp        1 TIN     -0.121000
     22 C52         7.4670    5.3390    4.6100 ca        1 TIN     -0.042300
     23 C53         8.3310    6.3270    4.1160 ca        1 TIN     -0.137000
     24 C54         7.9590    7.1310    3.0420 ca        1 TIN     -0.100000
     25 C55         6.7070    6.9670    2.4480 ca        1 TIN     -0.135000
     26 C56         5.8340    5.9970    2.9310 ca        1 TIN     -0.105000
     27 C65         3.6210    5.8370    5.2740 c         1 TIN      0.574700
     28 C66         4.7770    5.9680    7.4790 c3        1 TIN     -0.046500
     29 O67         3.3060    6.6510    4.4110 o         1 TIN     -0.447100
     30 C68         4.6620    4.4810    8.0510 c         1 TIN      0.926600
     31 O69         3.4870    4.0450    8.1770 o         1 TIN     -0.775300
     32 O70         5.7450    3.9060    8.2690 o         1 TIN     -0.775300
     33 N1          3.5390    6.2880    6.6900 n4        1 TIN     -0.677800
     34 C74         4.9700    6.9040    8.6630 c3        1 TIN     -0.084400
     35 C76         5.2560    8.3320    8.2860 c3        1 TIN     -0.027300
     36 S1          3.7220    9.1100    7.8260 ss        1 TIN     -0.322200
     37 C82         4.2320   10.4480    6.8070 c3        1 TIN     -0.038000
     38 C7          7.9020    4.4970    5.7480 c3        1 TIN     -0.086800
     39 HC11        0.7600   -0.5520   -2.0500 hc        1 TIN      0.051200
     40 HC12        0.1380   -0.0610   -0.4250 hc        1 TIN      0.051200
     41 HC21        2.9620   -1.1380   -1.0970 hc        1 TIN      0.040950
     42 HC22        2.5170    0.5610   -0.6560 hc        1 TIN      0.040950
     43 HC3         1.7400   -0.1850    1.5830 hc        1 TIN      0.056700
     44 HC41        2.7010   -2.9930    0.6880 hc        1 TIN      0.040950
     45 HC42        2.0870   -2.5410    2.3310 hc        1 TIN      0.040950
     46 HC51        0.3280   -3.6340    0.9330 hc        1 TIN      0.051200
     47 HC52       -0.1240   -1.9460    1.4010 hc        1 TIN      0.051200
     48 HC61       -0.6690   -2.3250   -0.9730 hc        1 TIN      0.052700
     49 HC62        1.0130   -2.8930   -1.3180 hc        1 TIN      0.052700
     50 H171        4.2080    0.3590    0.9590 hc        1 TIN      0.062200
     51 H172        4.5110   -1.4280    0.9950 hc        1 TIN      0.062200
     52 H191        3.6500   -1.5290    3.3810 hx        1 TIN      0.103700
     53 H192        3.2810    0.2640    3.3120 hx        1 TIN      0.103700
     54 H251        5.9400   -2.0590    2.4770 hx        1 TIN      0.101700
     55 H252        5.9860   -2.0700    4.3050 hx        1 TIN      0.101700
     56 H261        8.0270   -0.5680    4.2510 hc        1 TIN      0.064700
     57 H262        7.9460   -0.5070    2.4410 hc        1 TIN      0.064700
     58 H291        8.1900   -3.0070    2.3450 hc        1 TIN      0.053700
     59 H292        8.2570   -3.0740    4.1520 hc        1 TIN      0.053700
     60 H321       10.2420   -1.5440    2.3240 hc        1 TIN      0.050367
     61 H322       10.3090   -1.6150    4.1330 hc        1 TIN      0.050367
     62 H323       10.5400   -3.1240    3.1580 hc        1 TIN      0.050367
     63 H381        6.3430    0.3180    5.2280 hx        1 TIN      0.113200
     64 H382        4.6300   -0.2970    5.4310 hx        1 TIN      0.113200
     65 HC43        2.9090    1.2840    5.7350 ha        1 TIN      0.157000
     66 HC44        2.2440    3.6490    6.0090 ha        1 TIN      0.175000
     67 HC47        6.6490    2.5540    3.9270 ha        1 TIN      0.144000
     68 HC53        9.3170    6.4630    4.5870 ha        1 TIN      0.148000
     69 HC54        8.6530    7.8970    2.6620 ha        1 TIN      0.147000
     70 HC55        6.4070    7.6030    1.6020 ha        1 TIN      0.148000
     71 HC56        4.8370    5.8790    2.4760 ha        1 TIN      0.144000
     72 HC66        5.6620    6.0240    6.7860 hx        1 TIN      0.091700
     73 HN1         3.3350    7.3190    6.7400 hn        1 TIN      0.478300
     74 H741        4.0810    6.8510    9.3500 hc        1 TIN      0.099700
     75 H742        5.8480    6.4870    9.2370 hc        1 TIN      0.099700
     76 H761        5.9880    8.3940    7.4460 h1        1 TIN      0.080200
     77 H762        5.6930    8.8750    9.1600 h1        1 TIN      0.080200
     78 H821        3.2990   10.9720    6.4930 h1        1 TIN      0.076700
     79 H822        4.8750   11.1620    7.3680 h1        1 TIN      0.076700
     80 H823        4.7820   10.1000    5.9050 h1        1 TIN      0.076700
     81 HC71        8.2740    3.5110    5.3710 hc        1 TIN      0.064700
     82 HC72        7.0640    4.3010    6.4700 hc        1 TIN      0.064700
     83 HC73        8.7360    4.9850    6.3120 hc        1 TIN      0.064700
     84 H21         5.7590    0.4680    2.7860 hn        1 TIN      0.444800
     85 H12         2.7770    5.7510    7.1570 hn        1 TIN      0.478300
@<TRIPOS>BOND
     1    1    2 1   
     2    1    6 1   
     3    1   39 1   
     4    1   40 1   
     5    2    3 1   
     6    2   41 1   
     7    2   42 1   
     8    3    4 1   
     9    3    7 1   
    10    3   43 1   
    11    4    5 1   
    12    4   44 1   
    13    4   45 1   
    14    5    6 1   
    15    5   46 1   
    16    5   47 1   
    17    6   48 1   
    18    6   49 1   
    19    7    8 1   
    20    7   50 1   
    21    7   51 1   
    22    8    9 1   
    23    8   52 1   
    24    8   53 1   
    25    9   10 1   
    26    9   14 1   
    27    9   84 1   
    28   10   11 1   
    29   10   54 1   
    30   10   55 1   
    31   11   12 1   
    32   11   56 1   
    33   11   57 1   
    34   12   13 1   
    35   12   58 1   
    36   12   59 1   
    37   13   60 1   
    38   13   61 1   
    39   13   62 1   
    40   14   15 1   
    41   14   63 1   
    42   14   64 1   
    43   15   16 ar  
    44   15   20 ar  
    45   16   17 ar  
    46   16   65 1   
    47   17   18 ar  
    48   17   66 1   
    49   18   19 ar  
    50   18   27 1   
    51   19   20 ar  
    52   19   21 1   
    53   20   67 1   
    54   21   22 ar  
    55   21   26 ar  
    56   22   23 ar  
    57   22   38 1   
    58   23   24 ar  
    59   23   68 1   
    60   24   25 ar  
    61   24   69 1   
    62   25   26 ar  
    63   25   70 1   
    64   26   71 1   
    65   27   29 2   
    66   27   33 1   
    67   28   30 1   
    68   28   33 1   
    69   28   34 1   
    70   28   72 1   
    71   30   31 1   
    72   30   32 1   
    73   33   73 1   
    74   33   85 1   
    75   34   35 1   
    76   34   74 1   
    77   34   75 1   
    78   35   36 1   
    79   35   76 1   
    80   35   77 1   
    81   36   37 1   
    82   37   78 1   
    83   37   79 1   
    84   37   80 1   
    85   38   81 1   
    86   38   82 1   
    87   38   83 1   
@<TRIPOS>SUBSTRUCTURE
     1 TIN         1 TEMP              0 ****  ****    0 ROOT
