@<TRIPOS>MOLECULE
TIN
   85    87     1     0     0
SMALL
bcc


@<TRIPOS>ATOM
      1 C1          0.8500   -0.8630   -0.9100 c3        1 TIN     -0.077900
      2 C2          2.2670   -0.6010   -0.4430 c3        1 TIN     -0.074900
      3 C3          2.4230   -0.9190    1.0400 c3        1 TIN     -0.062700
      4 C4          2.0140   -2.3600    1.3140 c3        1 TIN     -0.074900
      5 C5          0.5950   -2.6200    0.8490 c3        1 TIN     -0.077900
      6 C6          0.4260   -2.2870   -0.6180 c3        1 TIN     -0.081400
      7 C17         3.8640   -0.6590    1.4630 c3        1 TIN     -0.103400
      8 C19         3.9570   -0.5640    2.9810 c3        1 TIN      0.103800
      9 N2          5.3390   -0.2460    3.4740 n4        1 TIN     -0.689400
     10 C25         6.2070   -1.4680    3.4800 c3        1 TIN      0.102800
     11 C26         7.6980   -1.1550    3.4320 c3        1 TIN     -0.107400
     12 C29         8.4810   -2.4540    3.3880 c3        1 TIN     -0.077400
     13 C32         9.9640   -2.1840    3.3480 c3        1 TIN     -0.099100
     14 C38         5.2800    0.3760    4.8440 c3        1 TIN      0.164100
     15 C40         4.8040    1.7910    4.8120 ca        1 TIN     -0.129300
     16 C43         3.5560    2.1150    5.3510 ca        1 TIN     -0.092000
     17 C44         3.1800    3.4520    5.4610 ca        1 TIN     -0.035000
     18 C45         4.0370    4.4620    5.0060 ca        1 TIN     -0.131600
     19 C46         5.2810    4.1470    4.4310 cp        1 TIN      0.059000
     20 C47         5.6510    2.7970    4.3410 ca        1 TIN     -0.116000
     21 C51         6.2120    5.1740    3.9550 cp        1 TIN     -0.121000
     22 C52         7.4700    5.3440    4.5620 ca        1 TIN     -0.042300
     23 C53         8.3410    6.3180    4.0520 ca        1 TIN     -0.138000
     24 C54         7.9780    7.1020    2.9610 ca        1 TIN     -0.100000
     25 C55         6.7270    6.9310    2.3650 ca        1 TIN     -0.135000
     26 C56         5.8480    5.9750    2.8630 ca        1 TIN     -0.105000
     27 C65         3.6230    5.8720    5.1970 c         1 TIN      0.574700
     28 C66         4.7710    6.0410    7.4040 c3        1 TIN     -0.046500
     29 O67         3.3160    6.6700    4.3170 o         1 TIN     -0.447100
     30 C68         4.6460    4.5660    8.0050 c         1 TIN      0.926600
     31 O69         3.4680    4.1380    8.1350 o         1 TIN     -0.775300
     32 O70         5.7250    3.9900    8.2390 o         1 TIN     -0.775300
     33 N1          3.5380    6.3510    6.6030 n4        1 TIN     -0.677800
     34 C74         4.9630    6.9990    8.5710 c3        1 TIN     -0.084400
     35 C76         5.2570    8.4180    8.1670 c3        1 TIN     -0.027300
     36 S1          3.7300    9.1950    7.6850 ss        1 TIN     -0.322200
     37 C82         4.2510   10.5100    6.6430 c3        1 TIN     -0.038000
     38 C7          7.8970    4.5230    5.7190 c3        1 TIN     -0.086800
     39 HC11        0.7830   -0.6690   -2.0120 hc        1 TIN      0.051200
     40 HC12        0.1500   -0.1510   -0.3990 hc        1 TIN      0.051200
     41 HC21        2.9810   -1.2320   -1.0350 hc        1 TIN      0.040950
     42 HC22        2.5290    0.4730   -0.6270 hc        1 TIN      0.040950
     43 HC3         1.7410   -0.2350    1.6200 hc        1 TIN      0.056700
     44 HC41        2.0890   -2.5760    2.4110 hc        1 TIN      0.040950
     45 HC42        2.7140   -3.0550    0.7810 hc        1 TIN      0.040950
     46 HC51        0.3410   -3.6990    1.0230 hc        1 TIN      0.051200
     47 HC52       -0.1180   -2.0040    1.4580 hc        1 TIN      0.051200
     48 HC61       -0.6470   -2.4260   -0.9120 hc        1 TIN      0.052700
     49 HC62        1.0380   -2.9960   -1.2370 hc        1 TIN      0.052700
     50 H171        4.5170   -1.4830    1.0730 hc        1 TIN      0.062200
     51 H172        4.2120    0.3030    0.9990 hc        1 TIN      0.062200
     52 H191        3.6370   -1.5350    3.4550 hx        1 TIN      0.103700
     53 H192        3.2730    0.2580    3.3470 hx        1 TIN      0.103700
     54 H251        5.9650   -2.0610    4.4070 hx        1 TIN      0.101700
     55 H252        5.9320   -2.0890    2.5790 hx        1 TIN      0.101700
     56 H261        7.9420   -0.5420    2.5240 hc        1 TIN      0.064700
     57 H262        8.0110   -0.5660    4.3350 hc        1 TIN      0.064700
     58 H291        8.2350   -3.0730    4.2900 hc        1 TIN      0.053700
     59 H292        8.1810   -3.0450    2.4820 hc        1 TIN      0.053700
     60 H321       10.2360   -1.5870    2.4440 hc        1 TIN      0.050367
     61 H322       10.5250   -3.1500    3.3140 hc        1 TIN      0.050367
     62 H323       10.2900   -1.6200    4.2560 hc        1 TIN      0.050367
     63 H381        4.6050   -0.2620    5.4850 hx        1 TIN      0.113200
     64 H382        6.3220    0.3430    5.2820 hx        1 TIN      0.113200
     65 HC43        2.8890    1.3320    5.7460 ha        1 TIN      0.157000
     66 HC44        2.2320    3.7050    5.9670 ha        1 TIN      0.175000
     67 HC47        6.6440    2.5490    3.9340 ha        1 TIN      0.144000
     68 HC53        9.3260    6.4590    4.5240 ha        1 TIN      0.148000
     69 HC54        8.6760    7.8570    2.5680 ha        1 TIN      0.147000
     70 HC55        6.4340    7.5520    1.5040 ha        1 TIN      0.148000
     71 HC56        4.8530    5.8530    2.4060 ha        1 TIN      0.144000
     72 HC66        5.6590    6.0790    6.7150 hx        1 TIN      0.091700
     73 HN1         3.3390    7.3840    6.6320 hn        1 TIN      0.478300
     74 H741        5.8360    6.5890    9.1570 hc        1 TIN      0.099700
     75 H742        4.0710    6.9650    9.2540 hc        1 TIN      0.099700
     76 H761        5.6930    8.9760    9.0330 h1        1 TIN      0.080200
     77 H762        5.9940    8.4600    7.3290 h1        1 TIN      0.080200
     78 H821        4.8940   11.2320    7.1940 h1        1 TIN      0.076700
     79 H822        4.8030   10.1430    5.7510 h1        1 TIN      0.076700
     80 H823        3.3220   11.0320    6.3140 h1        1 TIN      0.076700
     81 HC71        7.0550    4.3430    6.4390 hc        1 TIN      0.064700
     82 HC72        8.2690    3.5290    5.3630 hc        1 TIN      0.064700
     83 HC73        8.7290    5.0210    6.2780 hc        1 TIN      0.064700
     84 H21         5.7550    0.4440    2.8330 hn        1 TIN      0.444800
     85 H12         2.7710    5.8280    7.0770 hn        1 TIN      0.478300
@<TRIPOS>BOND
     1    1    2 1   
     2    1    6 1   
     3    1   39 1   
     4    1   40 1   
     5    2    3 1   
     6    2   41 1   
     7    2   42 1   
     8    3    4 1   
     9    3    7 1   
    10    3   43 1   
    11    4    5 1   
    12    4   44 1   
    13    4   45 1   
    14    5    6 1   
    15    5   46 1   
    16    5   47 1   
    17    6   48 1   
    18    6   49 1   
    19    7    8 1   
    20    7   50 1   
    21    7   51 1   
    22    8    9 1   
    23    8   52 1   
    24    8   53 1   
    25    9   10 1   
    26    9   14 1   
    27    9   84 1   
    28   10   11 1   
    29   10   54 1   
    30   10   55 1   
    31   11   12 1   
    32   11   56 1   
    33   11   57 1   
    34   12   13 1   
    35   12   58 1   
    36   12   59 1   
    37   13   60 1   
    38   13   61 1   
    39   13   62 1   
    40   14   15 1   
    41   14   63 1   
    42   14   64 1   
    43   15   16 ar  
    44   15   20 ar  
    45   16   17 ar  
    46   16   65 1   
    47   17   18 ar  
    48   17   66 1   
    49   18   19 ar  
    50   18   27 1   
    51   19   20 ar  
    52   19   21 1   
    53   20   67 1   
    54   21   22 ar  
    55   21   26 ar  
    56   22   23 ar  
    57   22   38 1   
    58   23   24 ar  
    59   23   68 1   
    60   24   25 ar  
    61   24   69 1   
    62   25   26 ar  
    63   25   70 1   
    64   26   71 1   
    65   27   29 2   
    66   27   33 1   
    67   28   30 1   
    68   28   33 1   
    69   28   34 1   
    70   28   72 1   
    71   30   31 1   
    72   30   32 1   
    73   33   73 1   
    74   33   85 1   
    75   34   35 1   
    76   34   74 1   
    77   34   75 1   
    78   35   36 1   
    79   35   76 1   
    80   35   77 1   
    81   36   37 1   
    82   37   78 1   
    83   37   79 1   
    84   37   80 1   
    85   38   81 1   
    86   38   82 1   
    87   38   83 1   
@<TRIPOS>SUBSTRUCTURE
     1 TIN         1 TEMP              0 ****  ****    0 ROOT
