@<TRIPOS>MOLECULE
TIN
   83    79     1     0     0
SMALL
bcc


@<TRIPOS>ATOM
      1 C1         -1.7110    0.2420    8.4570 c3        1 TIN     -0.154500
      2 C2         -0.9090    0.1500    7.1740 c3        1 TIN     -0.153000
      3 C3         -1.7610    0.3760    5.9420 c3        1 TIN     -0.098000
      4 C4         -2.5730    1.6470    6.0260 c3        1 TIN     -0.153000
      5 C5         -3.3720    1.7370    7.3060 c3        1 TIN     -0.154500
      6 C6         -2.5170    1.5090    8.5410 c3        1 TIN     -0.155000
      7 C17        -0.8220    0.4550    4.6880 c3        1 TIN     -0.193000
      8 C19        -1.5920   -0.0020    3.4390 c3        1 TIN     -0.067000
      9 N2         -0.8960    0.4900    2.2190 n3        1 TIN     -0.258000
     10 C25        -0.5870    1.9150    2.3700 c3        1 TIN     -0.072000
     11 C26        -1.6950    2.7600    1.6890 c3        1 TIN     -0.158000
     12 C29        -1.3160    4.2290    1.7420 c3        1 TIN     -0.162000
     13 C32        -2.3420    5.0500    0.9600 c3        1 TIN     -0.208000
     14 C38         0.3490   -0.2650    2.0290 c3        1 TIN     -0.025000
     15 C40         0.5770   -0.5110    0.5250 c2        1 TIN     -0.088000
     16 C43        -0.4300   -0.2490   -0.3720 c2        1 TIN     -0.118000
     17 C44        -0.2200   -0.4430   -1.7270 c1        1 TIN     -0.108000
     18 C45         1.0170   -0.9080   -2.1840 c1        1 TIN     -0.082000
     19 C46         2.0220   -1.1710   -1.2900 c1        1 TIN     -0.006000
     20 C47         1.8080   -0.9730    0.0750 c1        1 TIN     -0.126000
     21 C51         3.3080   -1.5740   -1.7590 c1        1 TIN     -0.059000
     22 C52         3.6090   -2.9190   -1.8770 c1        1 TIN     -0.037000
     23 C53         4.9010   -3.3230   -2.2840 c1        1 TIN     -0.142000
     24 C54         5.8740   -2.3680   -2.5680 c1        1 TIN     -0.127000
     25 C55         5.5720   -0.9990   -2.4490 c1        1 TIN     -0.127000
     26 C56         4.2980   -0.5990   -2.0480 c1        1 TIN     -0.095000
     27 C65         1.2880   -1.0120   -3.7050 c2        1 TIN      0.331000
     28 C66         0.5970   -0.5010   -6.0590 c3        1 TIN     -0.068000
     29 O67         2.3680   -1.4200   -4.1050 o         1 TIN     -0.406000
     30 C68         1.0220    0.8660   -6.5270 c2        1 TIN      0.332000
     31 O69         0.1630    1.7720   -6.6820 o         1 TIN     -0.567000
     32 O70         2.2400    1.0920   -6.8060 o         1 TIN     -0.567000
     33 N1          0.3270   -0.4620   -4.6470 n         1 TIN     -0.322000
     34 C74        -0.6630   -0.9270   -6.8090 c3        1 TIN     -0.143000
     35 C76        -0.2660   -1.7440   -8.0580 c3        1 TIN     -0.253000
     36 S1         -1.7600   -2.4480   -8.8240 ss        1 TIN     -0.030000
     37 C82        -1.3610   -3.0670  -10.4330 c3        1 TIN     -0.335000
     38 C7          2.5920   -3.9680   -1.4390 c3        1 TIN     -0.192000
     39 HC11       -2.3220   -0.5230    8.5010 hc        1 TIN      0.076000
     40 HC12       -1.0950    0.2050    9.2250 hc        1 TIN      0.076000
     41 HC21       -0.2090    0.8140    7.1960 hc        1 TIN      0.080000
     42 HC22       -0.5030   -0.7320    7.1200 hc        1 TIN      0.080000
     43 HC3        -2.3820   -0.3970    5.8340 hc        1 TIN      0.086000
     44 HC41       -3.1920    1.6790    5.2640 hc        1 TIN      0.080000
     45 HC42       -1.9700    2.4100    5.9760 hc        1 TIN      0.080000
     46 HC51       -3.7760    2.6170    7.3630 hc        1 TIN      0.076000
     47 HC52       -4.0840    1.0620    7.2840 hc        1 TIN      0.076000
     48 HC61       -1.8940    2.2810    8.6490 hc        1 TIN      0.075500
     49 HC62       -3.0990    1.4610    9.3260 hc        1 TIN      0.075500
     50 H171       -0.5190    1.3860    4.5620 hc        1 TIN      0.084000
     51 H172       -0.0530   -0.1190    4.8250 hc        1 TIN      0.084000
     52 H191       -1.6320   -0.9810    3.4200 h1        1 TIN      0.087000
     53 H192       -2.4980    0.3590    3.4650 h1        1 TIN      0.087000
     54 H251       -0.5440    2.1420    3.3230 h1        1 TIN      0.079000
     55 H252        0.2790    2.1100    1.9480 h1        1 TIN      0.079000
     56 H261       -1.7910    2.4820    0.7530 hc        1 TIN      0.081000
     57 H262       -2.5380    2.6260    2.1550 hc        1 TIN      0.081000
     58 H291       -0.4250    4.3510    1.3430 hc        1 TIN      0.085000
     59 H292       -1.3010    4.5310    2.6800 hc        1 TIN      0.085000
     60 H321       -1.9980    5.9500    0.8190 hc        1 TIN      0.069333
     61 H322       -3.1820    5.0960    1.4680 hc        1 TIN      0.069333
     62 H323       -2.5100    4.6220    0.0880 hc        1 TIN      0.069333
     63 H381        0.2820   -1.1270    2.4960 h1        1 TIN      0.073000
     64 H382        1.1000    0.2450    2.3930 h1        1 TIN      0.073000
     65 HC43       -1.3340    0.0420   -0.0420 ha        1 TIN      0.139000
     66 HC44       -0.9270   -0.2590   -2.3540 ha        1 TIN      0.144000
     67 HC47        2.4980   -1.2160    0.7150 ha        1 TIN      0.131000
     68 HC53        5.1100   -4.2660   -2.3670 ha        1 TIN      0.122000
     69 HC54        6.8050   -2.6540   -2.7370 ha        1 TIN      0.128000
     70 HC55        6.2510   -0.3340   -2.6480 ha        1 TIN      0.128000
     71 HC56        4.0890    0.3470   -1.9650 ha        1 TIN      0.144000
     72 HC66        1.3230   -1.1510   -6.2380 h1        1 TIN      0.099000
     73 HN1        -0.4750   -0.1270   -4.3420 hn        1 TIN      0.249000
     74 H741       -1.2200   -1.4790   -6.2220 hc        1 TIN      0.080000
     75 H742       -1.1690   -0.1280   -7.0860 hc        1 TIN      0.080000
     76 H761        0.3450   -2.4770   -7.7930 h1        1 TIN      0.126000
     77 H762        0.1920   -1.1520   -8.7090 h1        1 TIN      0.126000
     78 H821       -0.7380   -3.8090  -10.3480 h1        1 TIN      0.110000
     79 H822       -2.1870   -3.3780  -10.8810 h1        1 TIN      0.110000
     80 H823       -0.9540   -2.3630  -10.9590 h1        1 TIN      0.110000
     81 HC71        3.0030   -4.8560   -1.4820 hc        1 TIN      0.090667
     82 HC72        2.3030   -3.7810   -0.5070 hc        1 TIN      0.090667
     83 HC73        1.8040   -3.9390   -2.0430 hc        1 TIN      0.090667
@<TRIPOS>BOND
     1    1    2 1   
     2    1    6 1   
     3    1   39 1   
     4    1   40 1   
     5    2    3 1   
     6    2   41 1   
     7    2   42 1   
     8    3    4 1   
     9    3    7 1   
    10    3   43 1   
    11    4    5 1   
    12    4   44 1   
    13    4   45 1   
    14    5    6 1   
    15    5   46 1   
    16    5   47 1   
    17    6   48 1   
    18    6   49 1   
    19    7    8 1   
    20    7   50 1   
    21    7   51 1   
    22    8    9 1   
    23    8   52 1   
    24    8   53 1   
    25    9   10 1   
    26    9   14 1   
    27   10   11 1   
    28   10   54 1   
    29   10   55 1   
    30   11   12 1   
    31   11   56 1   
    32   11   57 1   
    33   12   13 1   
    34   12   58 1   
    35   12   59 1   
    36   13   60 1   
    37   13   61 1   
    38   13   62 1   
    39   14   15 1   
    40   14   63 1   
    41   14   64 1   
    42   15   16 1   
    43   15   20 1   
    44   16   17 1   
    45   16   65 1   
    46   17   66 1   
    47   18   19 1   
    48   18   27 1   
    49   20   67 1   
    50   21   26 1   
    51   22   23 1   
    52   22   38 1   
    53   23   68 1   
    54   24   25 1   
    55   24   69 1   
    56   25   70 1   
    57   26   71 1   
    58   27   29 1   
    59   27   33 1   
    60   28   30 1   
    61   28   33 1   
    62   28   34 1   
    63   28   72 1   
    64   30   31 1   
    65   30   32 1   
    66   33   73 1   
    67   34   35 1   
    68   34   74 1   
    69   34   75 1   
    70   35   36 1   
    71   35   76 1   
    72   35   77 1   
    73   36   37 1   
    74   37   78 1   
    75   37   79 1   
    76   37   80 1   
    77   38   81 1   
    78   38   82 1   
    79   38   83 1   
@<TRIPOS>SUBSTRUCTURE
     1 TIN         1 TEMP              0 ****  ****    0 ROOT
