@<TRIPOS>MOLECULE
TIO
   31    31     1     0     0
SMALL
bcc


@<TRIPOS>ATOM
      1 SG1         2.0360    1.3820   -2.4060 sh        1 TIO     -0.447900
      2 CB1         1.8570    0.0710   -1.2190 c3        1 TIO     -0.003300
      3 CA1         0.4460    0.0020   -0.6610 c3        1 TIO     -0.137700
      4 C           0.5350   -0.6890    0.7090 c         1 TIO      0.639100
      5 O           0.2030   -1.8850    0.8490 o         1 TIO     -0.627100
      6 CB2        -0.4800   -0.7450   -1.6140 c3        1 TIO     -0.034100
      7 CG2        -1.9170   -0.4220   -1.3930 ca        1 TIO     -0.068300
      8 CD1        -2.5670    0.5170   -2.2030 ca        1 TIO     -0.123500
      9 CD2        -2.6380   -1.0740   -0.3840 ca        1 TIO     -0.123500
     10 CE1        -3.9190    0.7970   -2.0080 ca        1 TIO     -0.139000
     11 CE2        -3.9890   -0.7900   -0.1920 ca        1 TIO     -0.139000
     12 CZ         -4.6320    0.1430   -1.0050 ca        1 TIO     -0.144000
     13 N           0.9500    0.1040    1.7770 n         1 TIO     -0.486900
     14 CA2         1.8620   -0.4580    2.7520 c3        1 TIO     -0.082000
     15 C1          3.3500   -0.0680    2.5070 c         1 TIO      0.896600
     16 O1          3.6360    0.5920    1.4620 o         1 TIO     -0.841300
     17 OH          4.1830   -0.4310    3.3770 o         1 TIO     -0.841300
     18 HG          2.7520    2.2320   -1.6840 hs        1 TIO      0.227800
     19 HB11        2.6120    0.2050   -0.3900 h1        1 TIO      0.113200
     20 HB12        2.1060   -0.8760   -1.7560 h1        1 TIO      0.113200
     21 HA11        0.0500    1.0480   -0.5260 hc        1 TIO      0.076700
     22 HB21       -0.1960   -0.4780   -2.6680 hc        1 TIO      0.061700
     23 HB22       -0.3200   -1.8510   -1.4820 hc        1 TIO      0.061700
     24 HD1        -2.0050    1.0380   -2.9920 ha        1 TIO      0.148500
     25 HD2        -2.1160   -1.8000    0.2640 ha        1 TIO      0.148500
     26 HE1        -4.4210    1.5370   -2.6470 ha        1 TIO      0.121000
     27 HE2        -4.5460   -1.3030    0.6050 ha        1 TIO      0.121000
     28 HZ         -5.6970    0.3660   -0.8520 ha        1 TIO      0.117000
     29 HN          1.2830    1.0060    1.4780 hn        1 TIO      0.284500
     30 HA21        1.7810   -1.5770    2.7610 h1        1 TIO      0.054200
     31 HA22        1.5560   -0.0700    3.7620 h1        1 TIO      0.054200
@<TRIPOS>BOND
     1    1    2 1   
     2    1   18 1   
     3    2    3 1   
     4    2   19 1   
     5    2   20 1   
     6    3    4 1   
     7    3    6 1   
     8    3   21 1   
     9    4    5 2   
    10    4   13 1   
    11    6    7 1   
    12    6   22 1   
    13    6   23 1   
    14    7    8 ar  
    15    7    9 ar  
    16    8   10 ar  
    17    8   24 1   
    18    9   11 ar  
    19    9   25 1   
    20   10   12 ar  
    21   10   26 1   
    22   11   12 ar  
    23   11   27 1   
    24   12   28 1   
    25   13   14 1   
    26   13   29 1   
    27   14   15 1   
    28   14   30 1   
    29   14   31 1   
    30   15   16 1   
    31   15   17 1   
@<TRIPOS>SUBSTRUCTURE
     1 TIO         1 TEMP              0 ****  ****    0 ROOT
