@<TRIPOS>MOLECULE
TIO
   32    32     1     0     0
SMALL
bcc


@<TRIPOS>ATOM
      1 SG1         0.5520    0.3890   -0.2250 sh        1 TIO     -0.341900
      2 CB1         2.2470   -0.0600   -0.0700 c3        1 TIO     -0.006300
      3 CA1         2.7240   -0.0690    1.3710 c3        1 TIO     -0.144700
      4 C           4.2210   -0.2930    1.3960 c         1 TIO      0.567100
      5 O           4.8790   -1.0450    0.6860 o         1 TIO     -0.469100
      6 CB2         2.0480   -1.1760    2.1770 c3        1 TIO     -0.039100
      7 CG2         2.4800   -1.2300    3.6000 ca        1 TIO     -0.132300
      8 CD1         2.4090   -0.0970    4.4220 ca        1 TIO     -0.136500
      9 CD2         2.9060   -2.4480    4.1450 ca        1 TIO     -0.136500
     10 CE1         2.7680   -0.1850    5.7670 ca        1 TIO     -0.129000
     11 CE2         3.2610   -2.5320    5.4900 ca        1 TIO     -0.129000
     12 CZ          3.1930   -1.4000    6.3040 ca        1 TIO     -0.127000
     13 N           4.9810    0.4840    2.4290 n4        1 TIO     -0.657800
     14 CA2         5.3700    1.8290    1.9200 c3        1 TIO     -0.073200
     15 C1          4.2390    2.9000    2.2030 c         1 TIO      0.925600
     16 O1          4.3770    3.9840    1.6140 o         1 TIO     -0.772300
     17 OH          3.3240    2.5270    2.9900 o         1 TIO     -0.772300
     18 HG          0.6290    1.6760    0.0840 hs        1 TIO      0.224800
     19 HB11        2.3250   -1.0860   -0.5140 h1        1 TIO      0.090200
     20 HB12        2.8930    0.6240   -0.6740 h1        1 TIO      0.090200
     21 HA11        2.4790    0.9380    1.8440 hc        1 TIO      0.154700
     22 HB21        0.9370   -0.9840    2.1320 hc        1 TIO      0.082700
     23 HB22        2.2360   -2.1640    1.6760 hc        1 TIO      0.082700
     24 HD1         2.0720    0.8740    4.0120 ha        1 TIO      0.159000
     25 HD2         2.9480   -3.3480    3.5130 ha        1 TIO      0.159000
     26 HE1         2.7060    0.7110    6.4040 ha        1 TIO      0.143000
     27 HE2         3.5880   -3.4940    5.9110 ha        1 TIO      0.143000
     28 HZ          3.4660   -1.4680    7.3670 ha        1 TIO      0.139000
     29 HN          4.3450    0.6550    3.2410 hn        1 TIO      0.461300
     30 HA21        5.5720    1.7760    0.8200 hx        1 TIO      0.090700
     31 HA22        6.2970    2.1600    2.4570 hx        1 TIO      0.090700
     32 HN3         5.8050   -0.0410    2.7270 hn        1 TIO      0.461300
@<TRIPOS>BOND
     1    1    2 1   
     2    1   18 1   
     3    2    3 1   
     4    2   19 1   
     5    2   20 1   
     6    3    4 1   
     7    3    6 1   
     8    3   21 1   
     9    4    5 2   
    10    4   13 1   
    11    6    7 1   
    12    6   22 1   
    13    6   23 1   
    14    7    8 ar  
    15    7    9 ar  
    16    8   10 ar  
    17    8   24 1   
    18    9   11 ar  
    19    9   25 1   
    20   10   12 ar  
    21   10   26 1   
    22   11   12 ar  
    23   11   27 1   
    24   12   28 1   
    25   13   14 1   
    26   13   29 1   
    27   13   32 1   
    28   14   15 1   
    29   14   30 1   
    30   14   31 1   
    31   15   16 1   
    32   15   17 1   
@<TRIPOS>SUBSTRUCTURE
     1 TIO         1 TEMP              0 ****  ****    0 ROOT
