@<TRIPOS>MOLECULE
TIO
   32    32     1     0     0
SMALL
bcc


@<TRIPOS>ATOM
      1 SG1         0.4880    0.5030   -0.1450 sh        1 TIO     -0.341900
      2 CB1         2.1670   -0.0160   -0.0390 c3        1 TIO     -0.006300
      3 CA1         2.6840   -0.0450    1.3870 c3        1 TIO     -0.144700
      4 C           4.1710   -0.3310    1.3690 c         1 TIO      0.567100
      5 O           4.7760   -1.1090    0.6410 o         1 TIO     -0.469100
      6 CB2         1.9870   -1.1240    2.2130 c3        1 TIO     -0.039100
      7 CG2         2.4580   -1.1970    3.6220 ca        1 TIO     -0.132300
      8 CD1         2.4580   -0.0640    4.4460 ca        1 TIO     -0.136500
      9 CD2         2.8480   -2.4330    4.1550 ca        1 TIO     -0.136500
     10 CE1         2.8520   -0.1680    5.7800 ca        1 TIO     -0.129000
     11 CE2         3.2390   -2.5330    5.4890 ca        1 TIO     -0.129000
     12 CZ          3.2410   -1.4010    6.3040 ca        1 TIO     -0.127000
     13 N           4.9930    0.4120    2.3790 n4        1 TIO     -0.657800
     14 CA2         5.4210    1.7410    1.8580 c3        1 TIO     -0.073200
     15 C1          4.3440    2.8580    2.1740 c         1 TIO      0.925600
     16 O1          4.5090    3.9360    1.5800 o         1 TIO     -0.772300
     17 OH          3.4380    2.5220    2.9870 o         1 TIO     -0.772300
     18 HG          0.6270    1.7860    0.1610 hs        1 TIO      0.224800
     19 HB11        2.1890   -1.0430   -0.4850 h1        1 TIO      0.090200
     20 HB12        2.8220    0.6420   -0.6610 h1        1 TIO      0.090200
     21 HA11        2.4950    0.9700    1.8670 hc        1 TIO      0.154700
     22 HB21        0.8840   -0.8860    2.2000 hc        1 TIO      0.082700
     23 HB22        2.1200   -2.1190    1.7070 hc        1 TIO      0.082700
     24 HD1         2.1500    0.9210    4.0460 ha        1 TIO      0.159000
     25 HD2         2.8350   -3.3330    3.5220 ha        1 TIO      0.159000
     26 HE1         2.8450    0.7290    6.4180 ha        1 TIO      0.143000
     27 HE2         3.5380   -3.5080    5.9010 ha        1 TIO      0.143000
     28 HZ          3.5430   -1.4810    7.3590 ha        1 TIO      0.139000
     29 HN          5.8020   -0.1450    2.6520 hn        1 TIO      0.461300
     30 HA21        6.3760    2.0340    2.3680 hx        1 TIO      0.090700
     31 HA22        5.5890    1.6810    0.7520 hx        1 TIO      0.090700
     32 HN3         4.3870    0.6100    3.2090 hn        1 TIO      0.461300
@<TRIPOS>BOND
     1    1    2 1   
     2    1   18 1   
     3    2    3 1   
     4    2   19 1   
     5    2   20 1   
     6    3    4 1   
     7    3    6 1   
     8    3   21 1   
     9    4    5 2   
    10    4   13 1   
    11    6    7 1   
    12    6   22 1   
    13    6   23 1   
    14    7    8 ar  
    15    7    9 ar  
    16    8   10 ar  
    17    8   24 1   
    18    9   11 ar  
    19    9   25 1   
    20   10   12 ar  
    21   10   26 1   
    22   11   12 ar  
    23   11   27 1   
    24   12   28 1   
    25   13   14 1   
    26   13   29 1   
    27   13   32 1   
    28   14   15 1   
    29   14   30 1   
    30   14   31 1   
    31   15   16 1   
    32   15   17 1   
@<TRIPOS>SUBSTRUCTURE
     1 TIO         1 TEMP              0 ****  ****    0 ROOT
