@<TRIPOS>MOLECULE
TIO
   32    32     1     0     0
SMALL
bcc


@<TRIPOS>ATOM
      1 SG1         0.5540    0.4590   -0.2160 sh        1 TIO     -0.341900
      2 CB1         2.2400   -0.0240   -0.0670 c3        1 TIO     -0.006300
      3 CA1         2.7200   -0.0510    1.3730 c3        1 TIO     -0.144700
      4 C           4.2130   -0.3050    1.3920 c         1 TIO      0.567100
      5 O           4.8540   -1.0660    0.6770 o         1 TIO     -0.469100
      6 CB2         2.0250   -1.1490    2.1740 c3        1 TIO     -0.039100
      7 CG2         2.4590   -1.2190    3.5950 ca        1 TIO     -0.132300
      8 CD1         2.4130   -0.0900    4.4240 ca        1 TIO     -0.136500
      9 CD2         2.8610   -2.4490    4.1330 ca        1 TIO     -0.136500
     10 CE1         2.7730   -0.1930    5.7670 ca        1 TIO     -0.129000
     11 CE2         3.2180   -2.5470    5.4760 ca        1 TIO     -0.129000
     12 CZ          3.1750   -1.4190    6.2960 ca        1 TIO     -0.127000
     13 N           4.9910    0.4510    2.4280 ny        1 TIO     -0.657800
     14 CA2         5.4040    1.7920    1.9250 c3        1 TIO     -0.073200
     15 C1          4.2950    2.8830    2.2170 c         1 TIO      0.925600
     16 O1          4.4530    3.9670    1.6330 o         1 TIO     -0.772300
     17 OH          3.3750    2.5240    3.0040 o         1 TIO     -0.772300
     18 HG          0.6570    1.7430    0.1000 hs        1 TIO      0.224800
     19 HB11        2.2970   -1.0490   -0.5170 h1        1 TIO      0.090200
     20 HB12        2.8980    0.6500   -0.6690 h1        1 TIO      0.090200
     21 HA11        2.4970    0.9580    1.8520 hc        1 TIO      0.154700
     22 HB21        0.9180   -0.9340    2.1330 hc        1 TIO      0.082700
     23 HB22        2.1920   -2.1370    1.6670 hc        1 TIO      0.082700
     24 HD1         2.0940    0.8900    4.0200 ha        1 TIO      0.159000
     25 HD2         2.8850   -3.3460    3.4950 ha        1 TIO      0.159000
     26 HE1         2.7300    0.7010    6.4100 ha        1 TIO      0.143000
     27 HE2         3.5270   -3.5180    5.8910 ha        1 TIO      0.143000
     28 HZ          3.4500   -1.4990    7.3580 ha        1 TIO      0.139000
     29 HN          4.3590    0.6310    3.2430 hn        1 TIO      0.461300
     30 HA21        6.3390    2.1020    2.4620 hx        1 TIO      0.090700
     31 HA22        5.6030    1.7410    0.8240 hx        1 TIO      0.090700
     32 HN3         5.8040   -0.0900    2.7200 hn        1 TIO      0.461300
@<TRIPOS>BOND
     1    1    2 1   
     2    1   18 1   
     3    2    3 1   
     4    2   19 1   
     5    2   20 1   
     6    3    4 1   
     7    3    6 1   
     8    3   21 1   
     9    4    5 2   
    10    4   13 1   
    11    6    7 1   
    12    6   22 1   
    13    6   23 1   
    14    7    8 ar  
    15    7    9 ar  
    16    8   10 ar  
    17    8   24 1   
    18    9   11 ar  
    19    9   25 1   
    20   10   12 ar  
    21   10   26 1   
    22   11   12 ar  
    23   11   27 1   
    24   12   28 1   
    25   13   14 1   
    26   13   29 1   
    27   13   32 1   
    28   14   15 1   
    29   14   30 1   
    30   14   31 1   
    31   15   16 1   
    32   15   17 1   
@<TRIPOS>SUBSTRUCTURE
     1 TIO         1 TEMP              0 ****  ****    0 ROOT
