@<TRIPOS>MOLECULE
TIP
   62    63     1     0     0
SMALL
bcc


@<TRIPOS>ATOM
      1 C2          0.0000    0.0000    0.0000 c3        1 TIP     -0.029400
      2 C5          1.4260    1.1500    2.1870 c2        1 TIP     -0.175400
      3 C4         -0.0840    1.3100    2.1270 c3        1 TIP      0.003200
      4 C6          2.1090    2.0160    2.8760 c2        1 TIP     -0.256200
      5 C7          3.6060    1.9680    3.0020 c3        1 TIP      0.041800
      6 PA          6.8290   -7.4420    4.0400 p5        1 TIP      0.903800
      7 O1A         7.9340   -7.6950    3.0890 o         1 TIP     -0.705500
      8 O2A         5.6550   -8.5170    3.7960 o         1 TIP     -0.705500
      9 O3A         7.3760   -7.5760    5.5480 os        1 TIP     -0.458800
     10 PB          8.3960   -8.5810    6.2820 p5        1 TIP      0.776900
     11 O1B         8.1760   -9.9580    5.7840 o         1 TIP     -0.739500
     12 O2B         9.9100   -8.1330    5.9690 o         1 TIP     -0.739500
     13 O3B         8.1420   -8.5390    7.8710 o         1 TIP     -0.739500
     14 O           6.2520   -5.9560    3.8080 os        1 TIP     -0.492200
     15 C15         5.7880   -5.4910    2.5400 c3        1 TIP      0.318600
     16 C14         5.3180   -4.0650    2.6690 c2        1 TIP     -0.077200
     17 C13         4.1870   -3.6960    2.1200 c2        1 TIP     -0.274400
     18 C16         3.4220   -4.6600    1.2510 c3        1 TIP      0.079100
     19 C12         3.6520   -2.3080    2.3580 c3        1 TIP      0.032800
     20 C11         4.0860   -1.3900    1.2120 c3        1 TIP     -0.039400
     21 C9          3.5570    0.0230    1.4620 c3        1 TIP     -0.047000
     22 C20         4.0590    0.9530    0.3550 c3        1 TIP     -0.023100
     23 C10         2.0390    0.0000    1.4440 c3        1 TIP      0.020500
     24 C1          1.5300    0.0000    0.0000 c3        1 TIP     -0.036400
     25 C3         -0.5140    1.2830    0.6580 c3        1 TIP     -0.018400
     26 C18        -0.7550    0.1610    2.8820 c3        1 TIP     -0.000600
     27 C19        -0.4850    2.6450    2.7580 c3        1 TIP     -0.000600
     28 C8          4.0750    0.5220    2.8100 c3        1 TIP     -0.046700
     29 C17         5.6050    0.4710    2.8250 c3        1 TIP     -0.017100
     30 H1         -0.3590   -0.8580    0.5560 hc        1 TIP      0.008700
     31 H2         -0.3590   -0.0490   -1.0210 hc        1 TIP      0.008700
     32 H3          1.5750    2.8100    3.3840 ha        1 TIP      0.099000
     33 H4          4.0530    2.5970    2.2420 hc        1 TIP      0.002700
     34 H5          3.8970    2.3150    3.9860 hc        1 TIP      0.002700
     35 H9          6.5960   -5.5400    1.8200 h1        1 TIP     -0.017300
     36 H10         4.9670   -6.1130    2.2050 h1        1 TIP     -0.017300
     37 H11         5.8670   -3.3710    3.2930 ha        1 TIP      0.088000
     38 H12         3.0540   -5.4790    1.8570 hc        1 TIP     -0.004300
     39 H13         2.5850   -4.1460    0.7920 hc        1 TIP     -0.004300
     40 H14         4.0750   -5.0470    0.4780 hc        1 TIP     -0.004300
     41 H15         4.0410   -1.9260    3.2940 hc        1 TIP      0.013200
     42 H16         2.5700   -2.3410    2.4040 hc        1 TIP      0.013200
     43 H17         3.6860   -1.7650    0.2770 hc        1 TIP      0.022200
     44 H18         5.1680   -1.3670    1.1580 hc        1 TIP      0.022200
     45 H19         3.5390    1.9010    0.4160 hc        1 TIP      0.006033
     46 H20         3.8700    0.4990   -0.6110 hc        1 TIP      0.006033
     47 H21         5.1230    1.1160    0.4750 hc        1 TIP      0.006033
     48 H22         1.7110   -0.9180    1.9170 hc        1 TIP      0.052700
     49 H23         1.8900    0.8860   -0.5090 hc        1 TIP      0.019700
     50 H24         1.8900   -0.8860   -0.5080 hc        1 TIP      0.019700
     51 H25        -0.0990    2.1420    0.1450 hc        1 TIP      0.001700
     52 H26        -1.5960    1.3080    0.5990 hc        1 TIP      0.001700
     53 H27        -1.8310    0.2570    2.8030 hc        1 TIP      0.002700
     54 H28        -0.4650    0.1960    3.9250 hc        1 TIP      0.002700
     55 H29        -0.4440   -0.7830    2.4520 hc        1 TIP      0.002700
     56 H30        -0.2480    2.6320    3.8150 hc        1 TIP      0.002700
     57 H31         0.0580    3.4500    2.2760 hc        1 TIP      0.002700
     58 H32        -1.5490    2.8000    2.6280 hc        1 TIP      0.002700
     59 H33         3.6760   -0.0980    3.6040 hc        1 TIP      0.051700
     60 H34         5.9630    0.0850    1.8790 hc        1 TIP      0.009700
     61 H35         5.9360   -0.1760    3.6280 hc        1 TIP      0.009700
     62 H36         5.9980    1.4690    2.9800 hc        1 TIP      0.009700
@<TRIPOS>BOND
     1    1   24 1   
     2    1   25 1   
     3    1   30 1   
     4    1   31 1   
     5    2    3 1   
     6    2    4 2   
     7    2   23 1   
     8    3   25 1   
     9    3   26 1   
    10    3   27 1   
    11    4    5 1   
    12    4   32 1   
    13    5   28 1   
    14    5   33 1   
    15    5   34 1   
    16    6    7 1   
    17    6    8 1   
    18    6    9 1   
    19    6   14 1   
    20    9   10 1   
    21   10   11 1   
    22   10   12 1   
    23   10   13 1   
    24   14   15 1   
    25   15   16 1   
    26   15   35 1   
    27   15   36 1   
    28   16   17 2   
    29   16   37 1   
    30   17   18 1   
    31   17   19 1   
    32   18   38 1   
    33   18   39 1   
    34   18   40 1   
    35   19   20 1   
    36   19   41 1   
    37   19   42 1   
    38   20   21 1   
    39   20   43 1   
    40   20   44 1   
    41   21   22 1   
    42   21   23 1   
    43   21   28 1   
    44   22   45 1   
    45   22   46 1   
    46   22   47 1   
    47   23   24 1   
    48   23   48 1   
    49   24   49 1   
    50   24   50 1   
    51   25   51 1   
    52   25   52 1   
    53   26   53 1   
    54   26   54 1   
    55   26   55 1   
    56   27   56 1   
    57   27   57 1   
    58   27   58 1   
    59   28   29 1   
    60   28   59 1   
    61   29   60 1   
    62   29   61 1   
    63   29   62 1   
@<TRIPOS>SUBSTRUCTURE
     1 TIP         1 TEMP              0 ****  ****    0 ROOT
