@<TRIPOS>MOLECULE
TIQ
   64    68     1     0     0
SMALL
bcc


@<TRIPOS>ATOM
      1 C1          0.1050   -0.2300   -0.1900 c3        1 TIQ     -0.090100
      2 C2          1.5910   -0.1950    0.0610 c3        1 TIQ     -0.078400
      3 C3          1.8850   -0.0250    1.5330 c3        1 TIQ     -0.038300
      4 S4          3.6500   -0.0060    1.6540 ss        1 TIQ     -0.184400
      5 C5          4.0080    0.1900    3.3290 ca        1 TIQ      0.794300
      6 N6          2.9540    0.2910    4.2010 nb        1 TIQ     -0.809000
      7 C7          3.2170    0.4540    5.5360 ca        1 TIQ      0.795200
      8 N8          2.2180    0.6420    6.4710 nu        1 TIQ     -0.816900
      9 C9          0.8420    0.4510    6.1810 cx        1 TIQ      0.180500
     10 C11        -0.1960    0.5820    7.2710 cx        1 TIQ     -0.123400
     11 C12         0.0690   -0.7780    6.6760 cx        1 TIQ     -0.112400
     12 C14        -0.9010   -1.4330    5.7920 ca        1 TIQ     -0.031300
     13 C15        -0.9660   -2.8340    5.7660 ca        1 TIQ     -0.113000
     14 C16        -1.8670   -3.4940    4.9400 ca        1 TIQ     -0.139000
     15 C17        -2.7330   -2.7590    4.1120 ca        1 TIQ      0.090900
     16 F18        -3.6130   -3.3930    3.3050 f         1 TIQ     -0.124900
     17 C19        -2.6740   -1.3410    4.1310 ca        1 TIQ      0.096900
     18 F20        -3.4990   -0.6170    3.3400 f         1 TIQ     -0.125900
     19 C21        -1.7560   -0.6910    4.9720 ca        1 TIQ     -0.147000
     20 C22         4.5830    0.4830    5.9600 ca        1 TIQ     -0.307200
     21 N23         5.2530    0.6180    7.1990 nc        1 TIQ     -0.182400
     22 N24         6.4970    0.5860    6.9970 nd        1 TIQ     -0.148400
     23 N25         6.8110    0.4720    5.6680 na        1 TIQ     -0.053800
     24 C26         8.1400    0.2290    5.1360 c3        1 TIQ      0.037000
     25 C28         8.7360   -1.1460    5.4880 c3        1 TIQ     -0.096400
     26 C29        10.2510   -0.9770    5.3550 c3        1 TIQ      0.142100
     27 O31        10.8510   -1.7210    6.4100 os        1 TIQ     -0.431600
     28 C32        12.2380   -1.9850    6.1830 c3        1 TIQ      0.083400
     29 C33        12.7600   -2.6300    7.4620 c3        1 TIQ      0.131400
     30 O34        12.1940   -3.9060    7.6720 oh        1 TIQ     -0.598800
     31 C35        10.5630    0.5320    5.5050 c3        1 TIQ      0.121100
     32 O37        11.3260    0.9050    4.3770 oh        1 TIQ     -0.598800
     33 C38         9.2040    1.2580    5.6140 c3        1 TIQ      0.102100
     34 O40         9.2410    2.3920    4.7720 oh        1 TIQ     -0.602800
     35 C41         5.6090    0.3650    4.9320 ca        1 TIQ      0.482800
     36 N42         5.3510    0.2180    3.6080 nb        1 TIQ     -0.719000
     37 H11C       -0.3680   -1.0810    0.3570 hc        1 TIQ      0.039367
     38 H12C       -0.3760    0.7180    0.1520 hc        1 TIQ      0.039367
     39 H13C       -0.0960   -0.3550   -1.2820 hc        1 TIQ      0.039367
     40 H21C        2.0570   -1.1460   -0.3110 hc        1 TIQ      0.054200
     41 H22C        2.0500    0.6520   -0.5170 hc        1 TIQ      0.054200
     42 H31C        1.4470   -0.8650    2.1240 h1        1 TIQ      0.080700
     43 H32C        1.4420    0.9250    1.9180 h1        1 TIQ      0.080700
     44 H8          2.4940    0.5950    7.4280 hn        1 TIQ      0.451800
     45 H9          0.5750    0.8320    5.1670 h1        1 TIQ      0.120700
     46 H111       -1.1360    1.1110    7.0280 hc        1 TIQ      0.084700
     47 H112        0.1160    0.7620    8.3160 hc        1 TIQ      0.084700
     48 H12         0.6130   -1.5010    7.3220 hc        1 TIQ      0.092700
     49 H15        -0.2930   -3.4240    6.4090 ha        1 TIQ      0.144000
     50 H21        -1.7250    0.4090    4.9720 ha        1 TIQ      0.152000
     51 H16        -1.9150   -4.5930    4.9240 ha        1 TIQ      0.156000
     52 H26         8.0520    0.3190    4.0110 h1        1 TIQ      0.110700
     53 H281        8.3620   -1.9310    4.7880 hc        1 TIQ      0.077200
     54 H282        8.4810   -1.4580    6.5340 hc        1 TIQ      0.077200
     55 H38         9.0290    1.5730    6.6780 h1        1 TIQ      0.071700
     56 H29        10.6200   -1.3420    4.3580 h1        1 TIQ      0.075700
     57 H35        11.1640    0.7230    6.4370 h1        1 TIQ      0.060700
     58 H321       12.3410   -2.6840    5.3110 h1        1 TIQ      0.048700
     59 H322       12.7800   -1.0270    5.9670 h1        1 TIQ      0.048700
     60 H331       13.8640   -2.8120    7.3700 h1        1 TIQ      0.053700
     61 H332       12.5510   -1.9650    8.3410 h1        1 TIQ      0.053700
     62 H34        11.2350   -3.7900    7.6900 ho        1 TIQ      0.412000
     63 H37        11.2640    1.8650    4.2780 ho        1 TIQ      0.429000
     64 H40         8.3900    2.8390    4.8610 ho        1 TIQ      0.423000
@<TRIPOS>BOND
     1    1    2 1   
     2    1   37 1   
     3    1   38 1   
     4    1   39 1   
     5    2    3 1   
     6    2   40 1   
     7    2   41 1   
     8    3    4 1   
     9    3   42 1   
    10    3   43 1   
    11    4    5 1   
    12    5    6 ar  
    13    5   36 ar  
    14    6    7 ar  
    15    7    8 1   
    16    7   20 ar  
    17    8    9 1   
    18    8   44 1   
    19    9   10 1   
    20    9   11 1   
    21    9   45 1   
    22   10   11 1   
    23   10   46 1   
    24   10   47 1   
    25   11   12 1   
    26   11   48 1   
    27   12   13 ar  
    28   12   19 ar  
    29   13   14 ar  
    30   13   49 1   
    31   14   15 ar  
    32   14   51 1   
    33   15   16 1   
    34   15   17 ar  
    35   17   18 1   
    36   17   19 ar  
    37   19   50 1   
    38   20   21 1   
    39   20   35 ar  
    40   21   22 2   
    41   22   23 1   
    42   23   24 1   
    43   23   35 1   
    44   24   25 1   
    45   24   33 1   
    46   24   52 1   
    47   25   26 1   
    48   25   53 1   
    49   25   54 1   
    50   26   27 1   
    51   26   31 1   
    52   26   56 1   
    53   27   28 1   
    54   28   29 1   
    55   28   58 1   
    56   28   59 1   
    57   29   30 1   
    58   29   60 1   
    59   29   61 1   
    60   30   62 1   
    61   31   32 1   
    62   31   33 1   
    63   31   57 1   
    64   32   63 1   
    65   33   34 1   
    66   33   55 1   
    67   34   64 1   
    68   35   36 ar  
@<TRIPOS>SUBSTRUCTURE
     1 TIQ         1 TEMP              0 ****  ****    0 ROOT
