@<TRIPOS>MOLECULE
TIQ
   64    68     1     0     0
SMALL
bcc


@<TRIPOS>ATOM
      1 C1          0.1030   -0.2350   -0.1860 c3        1 TIQ     -0.090100
      2 C2          1.5890   -0.1990    0.0640 c3        1 TIQ     -0.078400
      3 C3          1.8850   -0.0270    1.5350 c3        1 TIQ     -0.038300
      4 S4          3.6490   -0.0070    1.6540 ss        1 TIQ     -0.184400
      5 C5          4.0080    0.1910    3.3290 ca        1 TIQ      0.794300
      6 N6          2.9550    0.2920    4.2020 nb        1 TIQ     -0.809000
      7 C7          3.2190    0.4560    5.5360 ca        1 TIQ      0.795200
      8 N8          2.2200    0.6450    6.4710 nh        1 TIQ     -0.816900
      9 C9          0.8440    0.4540    6.1830 cx        1 TIQ      0.180500
     10 C11        -0.1930    0.5860    7.2740 cx        1 TIQ     -0.123400
     11 C12         0.0720   -0.7750    6.6810 cx        1 TIQ     -0.112400
     12 C14        -0.8990   -1.4310    5.7980 ca        1 TIQ     -0.031300
     13 C15        -0.9630   -2.8330    5.7750 ca        1 TIQ     -0.113000
     14 C16        -1.8650   -3.4940    4.9510 ca        1 TIQ     -0.139000
     15 C17        -2.7310   -2.7610    4.1220 ca        1 TIQ      0.090900
     16 F18        -3.6120   -3.3960    3.3170 f         1 TIQ     -0.124900
     17 C19        -2.6730   -1.3420    4.1390 ca        1 TIQ      0.096900
     18 F20        -3.4990   -0.6200    3.3470 f         1 TIQ     -0.125900
     19 C21        -1.7550   -0.6920    4.9780 ca        1 TIQ     -0.147000
     20 C22         4.5850    0.4870    5.9590 ca        1 TIQ     -0.307200
     21 N23         5.2560    0.6230    7.1970 nc        1 TIQ     -0.182400
     22 N24         6.5000    0.5910    6.9950 nd        1 TIQ     -0.148400
     23 N25         6.8140    0.4760    5.6650 na        1 TIQ     -0.053800
     24 C26         8.1410    0.2320    5.1330 c3        1 TIQ      0.037000
     25 C28         8.7360   -1.1450    5.4830 c3        1 TIQ     -0.096400
     26 C29        10.2510   -0.9780    5.3490 c3        1 TIQ      0.142100
     27 O31        10.8500   -1.7240    6.4030 os        1 TIQ     -0.431600
     28 C32        12.2360   -1.9900    6.1750 c3        1 TIQ      0.083400
     29 C33        12.7580   -2.6390    7.4520 c3        1 TIQ      0.131400
     30 O34        12.1900   -3.9150    7.6600 oh        1 TIQ     -0.598800
     31 C35        10.5650    0.5310    5.5020 c3        1 TIQ      0.121100
     32 O37        11.3280    0.9040    4.3730 oh        1 TIQ     -0.598800
     33 C38         9.2070    1.2580    5.6120 c3        1 TIQ      0.102100
     34 O40         9.2460    2.3940    4.7720 oh        1 TIQ     -0.602800
     35 C41         5.6110    0.3670    4.9300 ca        1 TIQ      0.482800
     36 N42         5.3520    0.2190    3.6070 nb        1 TIQ     -0.719000
     37 H11C       -0.3790    0.7130    0.1550 hc        1 TIQ      0.039367
     38 H12C       -0.0990   -0.3620   -1.2770 hc        1 TIQ      0.039367
     39 H13C       -0.3700   -1.0860    0.3620 hc        1 TIQ      0.039367
     40 H21C        2.0550   -1.1510   -0.3080 hc        1 TIQ      0.054200
     41 H22C        2.0470    0.6470   -0.5160 hc        1 TIQ      0.054200
     42 H31C        1.4410    0.9230    1.9190 h1        1 TIQ      0.080700
     43 H32C        1.4470   -0.8670    2.1270 h1        1 TIQ      0.080700
     44 H8          2.4980    0.5990    7.4280 hn        1 TIQ      0.451800
     45 H9          0.5770    0.8330    5.1680 h1        1 TIQ      0.120700
     46 H111       -1.1330    1.1140    7.0300 hc        1 TIQ      0.084700
     47 H112        0.1200    0.7680    8.3190 hc        1 TIQ      0.084700
     48 H12         0.6170   -1.4970    7.3270 hc        1 TIQ      0.092700
     49 H15        -0.2900   -3.4210    6.4180 ha        1 TIQ      0.144000
     50 H21        -1.7240    0.4090    4.9760 ha        1 TIQ      0.152000
     51 H16        -1.9130   -4.5930    4.9360 ha        1 TIQ      0.156000
     52 H26         8.0530    0.3240    4.0080 h1        1 TIQ      0.110700
     53 H281        8.4810   -1.4570    6.5280 hc        1 TIQ      0.077200
     54 H282        8.3600   -1.9280    4.7820 hc        1 TIQ      0.077200
     55 H38         9.0340    1.5730    6.6770 h1        1 TIQ      0.071700
     56 H29        10.6180   -1.3420    4.3510 h1        1 TIQ      0.075700
     57 H35        11.1670    0.7200    6.4330 h1        1 TIQ      0.060700
     58 H321       12.3380   -2.6880    5.3020 h1        1 TIQ      0.048700
     59 H322       12.7800   -1.0330    5.9610 h1        1 TIQ      0.048700
     60 H331       13.8610   -2.8220    7.3600 h1        1 TIQ      0.053700
     61 H332       12.5500   -1.9750    8.3330 h1        1 TIQ      0.053700
     62 H34        11.2310   -3.7970    7.6780 ho        1 TIQ      0.412000
     63 H37        11.2670    1.8640    4.2750 ho        1 TIQ      0.429000
     64 H40         8.3960    2.8420    4.8620 ho        1 TIQ      0.423000
@<TRIPOS>BOND
     1    1    2 1   
     2    1   37 1   
     3    1   38 1   
     4    1   39 1   
     5    2    3 1   
     6    2   40 1   
     7    2   41 1   
     8    3    4 1   
     9    3   42 1   
    10    3   43 1   
    11    4    5 1   
    12    5    6 ar  
    13    5   36 ar  
    14    6    7 ar  
    15    7    8 1   
    16    7   20 ar  
    17    8    9 1   
    18    8   44 1   
    19    9   10 1   
    20    9   11 1   
    21    9   45 1   
    22   10   11 1   
    23   10   46 1   
    24   10   47 1   
    25   11   12 1   
    26   11   48 1   
    27   12   13 ar  
    28   12   19 ar  
    29   13   14 ar  
    30   13   49 1   
    31   14   15 ar  
    32   14   51 1   
    33   15   16 1   
    34   15   17 ar  
    35   17   18 1   
    36   17   19 ar  
    37   19   50 1   
    38   20   21 1   
    39   20   35 ar  
    40   21   22 2   
    41   22   23 1   
    42   23   24 1   
    43   23   35 1   
    44   24   25 1   
    45   24   33 1   
    46   24   52 1   
    47   25   26 1   
    48   25   53 1   
    49   25   54 1   
    50   26   27 1   
    51   26   31 1   
    52   26   56 1   
    53   27   28 1   
    54   28   29 1   
    55   28   58 1   
    56   28   59 1   
    57   29   30 1   
    58   29   60 1   
    59   29   61 1   
    60   30   62 1   
    61   31   32 1   
    62   31   33 1   
    63   31   57 1   
    64   32   63 1   
    65   33   34 1   
    66   33   55 1   
    67   34   64 1   
    68   35   36 ar  
@<TRIPOS>SUBSTRUCTURE
     1 TIQ         1 TEMP              0 ****  ****    0 ROOT
