@<TRIPOS>MOLECULE
TIR
   58    56     1     0     0
SMALL
bcc


@<TRIPOS>ATOM
      1 N           6.0790    2.3120    3.9350 n3        1 TIR     -0.380000
      2 C1          5.6740    3.7310    3.7260 c3        1 TIR     -0.081000
      3 O1          3.4170    4.4840    3.1410 o         1 TIR     -0.298000
      4 C2          4.2610    3.6090    3.1520 c2        1 TIR      0.291000
      5 O2         -1.2660   -1.1320   -1.9170 os        1 TIR     -0.288000
      6 C3          4.0850    2.2500    2.6830 c1        1 TIR     -0.416000
      7 O3         -1.5970   -3.3560   -1.4050 os        1 TIR     -0.280000
      8 C4          2.9610    1.7410    2.0760 c1        1 TIR      0.290000
      9 O4         -4.0450   -1.8400    0.3410 oh        1 TIR     -0.313000
     10 C5          1.7140    2.6590    1.8360 c2        1 TIR     -0.195000
     11 O5          2.9300    0.3940    1.6690 o         1 TIR     -0.237000
     12 C6          0.9690    2.5330    0.6600 c1        1 TIR     -0.025000
     13 O6          5.4920    0.3250    2.7710 o         1 TIR     -0.393000
     14 C7          1.3640    1.5190   -0.3740 c1        1 TIR     -0.112000
     15 C8          0.4040    0.5840   -0.8550 c1        1 TIR     -0.122000
     16 C9         -1.0120    0.6100   -0.3260 c2        1 TIR     -0.075000
     17 C10        -1.7220   -0.7150   -0.6860 c3        1 TIR      0.038000
     18 C11        -1.7580   -2.3730   -2.3140 c3        1 TIR      0.227000
     19 C12        -1.0540   -2.7940   -3.6460 c3        1 TIR     -0.191000
     20 C13        -2.0670   -3.0410   -0.1450 c3        1 TIR      0.042000
     21 C14        -1.4760   -1.7260    0.4490 c3        1 TIR     -0.145000
     22 C15        -2.1800   -1.3400    1.6420 c3        1 TIR     -0.198000
     23 C16        -3.6880   -2.8990   -0.2020 c3        1 TIR      0.033000
     24 C17        -3.9650   -2.8310   -1.7800 c2        1 TIR     -0.188000
     25 C18        -3.1350   -2.2420   -2.5510 c2        1 TIR     -0.133000
     26 C19        -3.6340   -1.5700   -3.8500 c3        1 TIR     -0.179000
     27 C20        -1.7590    1.7650   -0.9420 c3        1 TIR     -0.204000
     28 C21         2.7840    1.4910   -0.9060 c3        1 TIR     -0.175000
     29 C22         5.2950    1.5000    3.0190 c1        1 TIR      0.363000
     30 H11         5.8980    4.3140    4.4830 h1        1 TIR      0.112000
     31 HO5         2.9560   -0.1330    2.3850 ho        1 TIR      0.272000
     32 HO4        -4.8610   -1.9400    0.6770 ho        1 TIR      0.200000
     33 H5          1.4570    3.3160    2.5050 ha        1 TIR      0.172000
     34 H6          0.1940    3.1040    0.5100 ha        1 TIR      0.134000
     35 H8          0.6570   -0.0660   -1.5180 ha        1 TIR      0.150000
     36 H9         -0.9930    0.7170    0.6520 ha        1 TIR      0.100000
     37 H10        -2.6970   -0.5440   -0.7520 h1        1 TIR      0.089000
     38 H112       -0.1320   -3.0680   -3.4570 hc        1 TIR      0.096333
     39 H212       -1.0500   -2.0360   -4.2670 hc        1 TIR      0.096333
     40 H312       -1.5390   -3.5390   -4.0460 hc        1 TIR      0.096333
     41 H13        -1.8420   -3.7830    0.4630 h1        1 TIR      0.124000
     42 H14        -0.5200   -1.8250    0.6240 hc        1 TIR      0.115000
     43 H115       -1.5490   -0.9120    2.2740 hc        1 TIR      0.082333
     44 H215       -2.5750   -2.1390    2.0630 hc        1 TIR      0.082333
     45 H315       -2.8880   -0.7110    1.4120 hc        1 TIR      0.082333
     46 H16        -4.2060   -3.5570    0.3080 h1        1 TIR      0.090000
     47 H17        -4.7640   -3.2590   -2.1550 ha        1 TIR      0.130000
     48 H119       -4.5330   -1.2070   -3.7050 hc        1 TIR      0.088667
     49 H219       -3.6610   -2.2380   -4.5780 hc        1 TIR      0.088667
     50 H319       -3.0270   -0.8470   -4.0950 hc        1 TIR      0.088667
     51 H120       -1.3320    2.0160   -1.7910 hc        1 TIR      0.079000
     52 H220       -1.7420    2.5290   -0.3300 hc        1 TIR      0.079000
     53 H320       -2.6890    1.5000   -1.1100 hc        1 TIR      0.079000
     54 H121        3.3210    0.8830   -0.3650 hc        1 TIR      0.085000
     55 H221        3.1700    2.4000   -0.8620 hc        1 TIR      0.085000
     56 H321        2.7780    1.1830   -1.8340 hc        1 TIR      0.085000
     57 HN          6.8900    2.0510    4.2880 hn        1 TIR      0.248000
     58 H12         6.2070    4.1460    3.0160 h1        1 TIR      0.112000
@<TRIPOS>BOND
     1    1    2 1   
     2    1   29 1   
     3    1   57 1   
     4    2    4 1   
     5    2   30 1   
     6    2   58 1   
     7    3    4 1   
     8    4    6 1   
     9    5   17 1   
    10    5   18 1   
    11    6    8 1   
    12    7   18 1   
    13    7   20 1   
    14    8   10 1   
    15    9   23 1   
    16    9   32 1   
    17   10   12 1   
    18   10   33 1   
    19   11   31 1   
    20   12   34 1   
    21   13   29 1   
    22   14   15 1   
    23   14   28 1   
    24   15   35 1   
    25   16   17 1   
    26   16   27 1   
    27   16   36 1   
    28   17   21 1   
    29   17   37 1   
    30   18   19 1   
    31   18   25 1   
    32   19   38 1   
    33   19   39 1   
    34   19   40 1   
    35   20   21 1   
    36   20   23 1   
    37   20   41 1   
    38   21   22 1   
    39   21   42 1   
    40   22   43 1   
    41   22   44 1   
    42   22   45 1   
    43   23   24 1   
    44   23   46 1   
    45   24   25 1   
    46   24   47 1   
    47   25   26 1   
    48   26   48 1   
    49   26   49 1   
    50   26   50 1   
    51   27   51 1   
    52   27   52 1   
    53   27   53 1   
    54   28   54 1   
    55   28   55 1   
    56   28   56 1   
@<TRIPOS>SUBSTRUCTURE
     1 TIR         1 TEMP              0 ****  ****    0 ROOT
