@<TRIPOS>MOLECULE
TIR
   58    60     1     0     0
SMALL
bcc


@<TRIPOS>ATOM
      1 N           0.7540    1.6460    0.2560 n         1 TIR     -0.571900
      2 C1          0.2780    0.3090   -0.0260 c3        1 TIR     -0.015000
      3 O1          0.1150   -1.6510    1.4330 o         1 TIR     -0.537100
      4 C2          0.4080   -0.4640    1.3000 c         1 TIR      0.599300
      5 O2          2.7210   -1.8220   10.1870 os        1 TIR     -0.429600
      6 C3          0.9190    0.4910    2.2900 ce        1 TIR     -0.455400
      7 O3          3.2840   -3.9730   10.6130 os        1 TIR     -0.423600
      8 C4          1.2090    0.2600    3.6070 cf        1 TIR      0.336100
      9 O4          6.8770   -3.4770   10.8490 oh        1 TIR     -0.586800
     10 C5          1.0230   -1.0440    4.2300 cf        1 TIR     -0.201000
     11 O5          1.6560    1.2280    4.4440 oh        1 TIR     -0.484100
     12 C6          1.6420   -1.5540    5.3050 ce        1 TIR     -0.020000
     13 O6          1.4460    2.8750    2.1140 o         1 TIR     -0.670500
     14 C7          2.6980   -0.9660    6.1190 ce        1 TIR     -0.113200
     15 C8          2.6400   -1.0900    7.4590 c2        1 TIR     -0.125200
     16 C9          3.6320   -0.5180    8.4090 c3        1 TIR     -0.028500
     17 C10         3.9620   -1.5020    9.5410 c3        1 TIR      0.147100
     18 C11         2.8460   -2.7700   11.2420 c3        1 TIR      0.373800
     19 C12         1.4420   -3.0370   11.7770 c3        1 TIR     -0.073100
     20 C13         4.6170   -3.8690   10.0990 c3        1 TIR      0.153100
     21 C14         4.6440   -2.7750    9.0250 c3        1 TIR     -0.104700
     22 C15         6.0320   -2.5020    8.5030 c3        1 TIR     -0.080100
     23 C16         5.5640   -3.7450   11.3110 c3        1 TIR      0.149300
     24 C17         5.0840   -2.7310   12.3000 c2        1 TIR     -0.193200
     25 C18         3.8160   -2.2980   12.3070 c2        1 TIR     -0.139400
     26 C19         3.2940   -1.3260   13.2910 c3        1 TIR     -0.057900
     27 C20         3.1070    0.7850    8.9840 c3        1 TIR     -0.086100
     28 C21         3.8120   -0.2760    5.4220 c3        1 TIR     -0.050900
     29 C22         1.0740    1.8010    1.6020 c         1 TIR      0.725700
     30 H11        -0.7920    0.3070   -0.3680 h1        1 TIR      0.072700
     31 HO5         1.7370    2.0820    3.9750 ho        1 TIR      0.472000
     32 H5          0.2720   -1.6660    3.6980 ha        1 TIR      0.173000
     33 H6          1.3290   -2.5650    5.6400 ha        1 TIR      0.135000
     34 H8          1.8030   -1.6240    7.9430 ha        1 TIR      0.144000
     35 H9          4.6060   -0.3100    7.8770 hc        1 TIR      0.061700
     36 H10         4.6330   -0.9900   10.2890 h1        1 TIR      0.050700
     37 H112        0.9760   -2.0700   12.0790 hc        1 TIR      0.057367
     38 H212        0.8250   -3.5130   10.9790 hc        1 TIR      0.057367
     39 H312        1.5080   -3.7210   12.6530 hc        1 TIR      0.057367
     40 H13         4.8010   -4.8660    9.6080 h1        1 TIR      0.083700
     41 H14         4.0080   -3.1670    8.1770 hc        1 TIR      0.070700
     42 H115        5.9810   -1.9950    7.5090 hc        1 TIR      0.042367
     43 H215        6.5940   -3.4610    8.3870 hc        1 TIR      0.042367
     44 H315        6.6050   -1.8510    9.2080 hc        1 TIR      0.042367
     45 H16         5.5640   -4.7510   11.8340 h1        1 TIR      0.050700
     46 H17         5.8240   -2.3870   13.0380 ha        1 TIR      0.131000
     47 H119        2.5430   -1.8210   13.9580 hc        1 TIR      0.049367
     48 H219        2.7880   -0.4810   12.7600 hc        1 TIR      0.049367
     49 H319        4.1130   -0.9100   13.9280 hc        1 TIR      0.049367
     50 H120        2.8760    1.5030    8.1610 hc        1 TIR      0.042033
     51 H220        2.1770    0.5980    9.5740 hc        1 TIR      0.042033
     52 H320        3.8710    1.2420    9.6580 hc        1 TIR      0.042033
     53 H121        4.7930   -0.7300    5.7080 hc        1 TIR      0.045033
     54 H221        3.6990   -0.3470    4.3120 hc        1 TIR      0.045033
     55 H321        3.8250    0.8090    5.6990 hc        1 TIR      0.045033
     56 HN          0.6010    2.4010   -0.3590 hn        1 TIR      0.334500
     57 H12         0.9120   -0.1760   -0.8170 h1        1 TIR      0.072700
     58 HO4         7.4400   -3.4230   11.6310 ho        1 TIR      0.402000
@<TRIPOS>BOND
     1    1    2 1   
     2    1   29 1   
     3    1   56 1   
     4    2    4 1   
     5    2   30 1   
     6    2   57 1   
     7    3    4 2   
     8    4    6 1   
     9    5   17 1   
    10    5   18 1   
    11    6    8 2   
    12    6   29 1   
    13    7   18 1   
    14    7   20 1   
    15    8   10 1   
    16    8   11 1   
    17    9   23 1   
    18    9   58 1   
    19   10   12 2   
    20   10   32 1   
    21   11   31 1   
    22   12   14 1   
    23   12   33 1   
    24   13   29 2   
    25   14   15 2   
    26   14   28 1   
    27   15   16 1   
    28   15   34 1   
    29   16   17 1   
    30   16   27 1   
    31   16   35 1   
    32   17   21 1   
    33   17   36 1   
    34   18   19 1   
    35   18   25 1   
    36   19   37 1   
    37   19   38 1   
    38   19   39 1   
    39   20   21 1   
    40   20   23 1   
    41   20   40 1   
    42   21   22 1   
    43   21   41 1   
    44   22   42 1   
    45   22   43 1   
    46   22   44 1   
    47   23   24 1   
    48   23   45 1   
    49   24   25 2   
    50   24   46 1   
    51   25   26 1   
    52   26   47 1   
    53   26   48 1   
    54   26   49 1   
    55   27   50 1   
    56   27   51 1   
    57   27   52 1   
    58   28   53 1   
    59   28   54 1   
    60   28   55 1   
@<TRIPOS>SUBSTRUCTURE
     1 TIR         1 TEMP              0 ****  ****    0 ROOT
