@<TRIPOS>MOLECULE
TIR
   58    60     1     0     0
SMALL
bcc


@<TRIPOS>ATOM
      1 N           0.7550    1.6880    0.3290 n         1 TIR     -0.572900
      2 C1          0.3600    0.3370   -0.0050 c3        1 TIR     -0.020000
      3 O1          0.2510   -1.6760    1.3870 o         1 TIR     -0.540100
      4 C2          0.4710   -0.4680    1.2990 c         1 TIR      0.589300
      5 O2          2.7530   -1.7110   10.1230 os        1 TIR     -0.432600
      6 C3          0.8650    0.4840    2.3470 ce        1 TIR     -0.376400
      7 O3          3.1900   -3.8520   10.7160 os        1 TIR     -0.422600
      8 C4          1.1030    0.2030    3.6600 cf        1 TIR      0.291100
      9 O4          6.8030   -3.5400   10.9520 oh        1 TIR     -0.586800
     10 C5          0.9880   -1.1470    4.2040 cf        1 TIR     -0.216000
     11 O5          1.4190    1.2470    4.4770 oh        1 TIR     -0.456100
     12 C6          1.6810   -1.6830    5.2180 ce        1 TIR     -0.057000
     13 O6          1.1870    2.9220    2.2550 o         1 TIR     -0.603500
     14 C7          2.7400   -1.0670    6.0100 ce        1 TIR     -0.153200
     15 C8          2.7230   -1.1860    7.3510 c2        1 TIR     -0.114200
     16 C9          3.7470   -0.6030    8.2610 c3        1 TIR     -0.033500
     17 C10         4.0150   -1.5140    9.4690 c3        1 TIR      0.148100
     18 C11         2.8170   -2.5820   11.2490 c3        1 TIR      0.374800
     19 C12         1.3970   -2.7270   11.7860 c3        1 TIR     -0.073100
     20 C13         4.5290   -3.8630   10.2110 c3        1 TIR      0.153100
     21 C14         4.6260   -2.8580    9.0570 c3        1 TIR     -0.104700
     22 C15         6.0310   -2.7040    8.5310 c3        1 TIR     -0.081100
     23 C16         5.4750   -3.7000   11.4200 c3        1 TIR      0.148300
     24 C17         5.0470   -2.5880   12.3240 c2        1 TIR     -0.192200
     25 C18         3.8050   -2.0850   12.2850 c2        1 TIR     -0.140400
     26 C19         3.3330   -1.0150   13.1880 c3        1 TIR     -0.057900
     27 C20         3.3060    0.7720    8.7300 c3        1 TIR     -0.087100
     28 C21         3.8350   -0.3780    5.2800 c3        1 TIR     -0.066900
     29 C22         0.9550    1.8320    1.7150 c         1 TIR      0.716700
     30 H11        -0.6910    0.2790   -0.4000 h1        1 TIR      0.070700
     31 HO5         1.5850    0.9080    5.3740 ho        1 TIR      0.438000
     32 H5          0.2500   -1.7750    3.6620 ha        1 TIR      0.179000
     33 H6          1.4460   -2.7260    5.5130 ha        1 TIR      0.143000
     34 H8          1.9060   -1.7250    7.8640 ha        1 TIR      0.149000
     35 H9          4.7310   -0.5010    7.7150 hc        1 TIR      0.064700
     36 H10         4.7100   -0.9840   10.1810 h1        1 TIR      0.053700
     37 H112        0.7580   -3.2270   11.0200 hc        1 TIR      0.058367
     38 H212        0.9840   -1.7160   12.0100 hc        1 TIR      0.058367
     39 H312        1.4170   -3.3460   12.7130 hc        1 TIR      0.058367
     40 H13         4.6600   -4.9040    9.7990 h1        1 TIR      0.084700
     41 H14         3.9750   -3.2780    8.2350 hc        1 TIR      0.068700
     42 H115        6.0160   -2.2750    7.5000 hc        1 TIR      0.043367
     43 H215        6.6350   -2.0340    9.1890 hc        1 TIR      0.043367
     44 H315        6.5380   -3.7000    8.4970 hc        1 TIR      0.043367
     45 H16         5.4150   -4.6620   12.0180 h1        1 TIR      0.051700
     46 H17         5.8000   -2.2320   13.0420 ha        1 TIR      0.132000
     47 H119        4.1700   -0.5980   13.8000 hc        1 TIR      0.050033
     48 H219        2.8770   -0.1860   12.5900 hc        1 TIR      0.050033
     49 H319        2.5520   -1.4160   13.8830 hc        1 TIR      0.050033
     50 H120        4.1000    1.2340    9.3630 hc        1 TIR      0.043033
     51 H220        2.3700    0.6910    9.3340 hc        1 TIR      0.043033
     52 H320        3.1150    1.4360    7.8520 hc        1 TIR      0.043033
     53 H121        4.0040    0.6460    5.7000 hc        1 TIR      0.051700
     54 H221        4.7860   -0.9590    5.3800 hc        1 TIR      0.051700
     55 H321        3.5960   -0.2740    4.1930 hc        1 TIR      0.051700
     56 HN          0.4510    2.4470   -0.2260 hn        1 TIR      0.320500
     57 H12         1.0570   -0.0890   -0.7780 h1        1 TIR      0.070700
     58 HO4         7.3650   -3.4690   11.7330 ho        1 TIR      0.403000
@<TRIPOS>BOND
     1    1    2 1   
     2    1   29 1   
     3    1   56 1   
     4    2    4 1   
     5    2   30 1   
     6    2   57 1   
     7    3    4 2   
     8    4    6 1   
     9    5   17 1   
    10    5   18 1   
    11    6    8 2   
    12    6   29 1   
    13    7   18 1   
    14    7   20 1   
    15    8   10 1   
    16    8   11 1   
    17    9   23 1   
    18    9   58 1   
    19   10   12 2   
    20   10   32 1   
    21   11   31 1   
    22   12   14 1   
    23   12   33 1   
    24   13   29 2   
    25   14   15 2   
    26   14   28 1   
    27   15   16 1   
    28   15   34 1   
    29   16   17 1   
    30   16   27 1   
    31   16   35 1   
    32   17   21 1   
    33   17   36 1   
    34   18   19 1   
    35   18   25 1   
    36   19   37 1   
    37   19   38 1   
    38   19   39 1   
    39   20   21 1   
    40   20   23 1   
    41   20   40 1   
    42   21   22 1   
    43   21   41 1   
    44   22   42 1   
    45   22   43 1   
    46   22   44 1   
    47   23   24 1   
    48   23   45 1   
    49   24   25 2   
    50   24   46 1   
    51   25   26 1   
    52   26   47 1   
    53   26   48 1   
    54   26   49 1   
    55   27   50 1   
    56   27   51 1   
    57   27   52 1   
    58   28   53 1   
    59   28   54 1   
    60   28   55 1   
@<TRIPOS>SUBSTRUCTURE
     1 TIR         1 TEMP              0 ****  ****    0 ROOT
