@<TRIPOS>MOLECULE
TIR
   58    60     1     0     0
SMALL
bcc


@<TRIPOS>ATOM
      1 N          -7.5990    0.2060    1.0610 n         1 TIR     -0.572900
      2 C1         -7.2930   -1.0710    0.4550 c3        1 TIR     -0.020000
      3 O1         -5.2620   -1.8490   -0.6710 o         1 TIR     -0.541100
      4 C2         -5.8710   -0.9370   -0.1130 c         1 TIR      0.590300
      5 O2          3.0910    0.9520   -0.3800 os        1 TIR     -0.432600
      6 C3         -5.4470    0.4480    0.1430 ce        1 TIR     -0.369400
      7 O3          3.7180    0.6790    1.7770 os        1 TIR     -0.422600
      8 C4         -4.2400    1.0020   -0.1590 cf        1 TIR      0.285100
      9 O4          5.1580   -2.6410    1.4410 oh        1 TIR     -0.585800
     10 C5         -3.1710    0.2600   -0.8170 cf        1 TIR     -0.224000
     11 O5         -4.0520    2.3130    0.1760 oh        1 TIR     -0.455100
     12 C6         -1.8650    0.5440   -0.6820 ce        1 TIR     -0.058000
     13 O6         -6.6770    2.3430    1.1190 o         1 TIR     -0.602500
     14 C7         -0.7900   -0.2050   -1.3190 ce        1 TIR     -0.117200
     15 C8          0.4880    0.1070   -1.0240 c2        1 TIR     -0.108200
     16 C9          1.6940   -0.5660   -1.5750 c3        1 TIR     -0.031500
     17 C10         2.8960   -0.4480   -0.6230 c3        1 TIR      0.146100
     18 C11         4.1440    1.2400    0.5360 c3        1 TIR      0.374800
     19 C12         4.1770    2.7530    0.7230 c3        1 TIR     -0.073100
     20 C13         3.6870   -0.7520    1.7490 c3        1 TIR      0.153100
     21 C14         2.6700   -1.2010    0.6940 c3        1 TIR     -0.104700
     22 C15         2.6590   -2.6970    0.4950 c3        1 TIR     -0.081100
     23 C16         5.1480   -1.2370    1.6300 c3        1 TIR      0.148300
     24 C17         5.8960   -0.5080    0.5600 c2        1 TIR     -0.192200
     25 C18         5.4640    0.6620    0.0690 c2        1 TIR     -0.141400
     26 C19         6.1950    1.4320   -0.9600 c3        1 TIR     -0.057900
     27 C20         2.0510    0.0150   -2.9320 c3        1 TIR     -0.086100
     28 C21        -1.1830   -1.2840   -2.2590 c3        1 TIR     -0.062900
     29 C22        -6.5850    1.1490    0.8050 c         1 TIR      0.716700
     30 H11        -7.3190   -1.8830    1.2320 h1        1 TIR      0.070700
     31 HO5        -3.1930    2.6080   -0.1670 ho        1 TIR      0.428000
     32 H5         -3.5170   -0.6060   -1.4140 ha        1 TIR      0.183000
     33 H6         -1.5310    1.3810   -0.0380 ha        1 TIR      0.120000
     34 H8          0.7110    0.9340   -0.3240 ha        1 TIR      0.144000
     35 H9          1.4960   -1.6710   -1.6920 hc        1 TIR      0.066700
     36 H10         3.8130   -0.8540   -1.1370 h1        1 TIR      0.053700
     37 H112        5.0370    3.0220    1.3780 hc        1 TIR      0.057700
     38 H212        4.2850    3.2440   -0.2730 hc        1 TIR      0.057700
     39 H312        3.2270    3.0910    1.2010 hc        1 TIR      0.057700
     40 H13         3.3030   -1.0390    2.7690 h1        1 TIR      0.085700
     41 H14         1.6620   -0.8810    1.0890 hc        1 TIR      0.068700
     42 H115        2.7640   -3.2140    1.4810 hc        1 TIR      0.043700
     43 H215        1.7010   -3.0210    0.0220 hc        1 TIR      0.043700
     44 H315        3.5080   -3.0220   -0.1540 hc        1 TIR      0.043700
     45 H16         5.6550   -1.0000    2.6160 h1        1 TIR      0.051700
     46 H17         6.8350   -0.9730    0.2230 ha        1 TIR      0.132000
     47 H119        6.5790    2.3880   -0.5220 hc        1 TIR      0.049700
     48 H219        7.0620    0.8530   -1.3630 hc        1 TIR      0.049700
     49 H319        5.5070    1.6850   -1.8060 hc        1 TIR      0.049700
     50 H120        2.3310    1.0910   -2.8270 hc        1 TIR      0.042700
     51 H220        2.9160   -0.5380   -3.3700 hc        1 TIR      0.042700
     52 H320        1.1820   -0.0680   -3.6270 hc        1 TIR      0.042700
     53 H121       -1.8860   -0.8850   -3.0330 hc        1 TIR      0.049367
     54 H221       -0.2990   -1.7160   -2.7880 hc        1 TIR      0.049367
     55 H321       -1.7020   -2.1070   -1.7050 hc        1 TIR      0.049367
     56 HN         -8.5390    0.4850    1.1890 hn        1 TIR      0.320500
     57 H12        -8.0090   -1.3400   -0.3700 h1        1 TIR      0.070700
     58 HO4         6.0850   -2.9090    1.4050 ho        1 TIR      0.403000
@<TRIPOS>BOND
     1    1    2 1   
     2    1   29 1   
     3    1   56 1   
     4    2    4 1   
     5    2   30 1   
     6    2   57 1   
     7    3    4 2   
     8    4    6 1   
     9    5   17 1   
    10    5   18 1   
    11    6    8 2   
    12    6   29 1   
    13    7   18 1   
    14    7   20 1   
    15    8   10 1   
    16    8   11 1   
    17    9   23 1   
    18    9   58 1   
    19   10   12 2   
    20   10   32 1   
    21   11   31 1   
    22   12   14 1   
    23   12   33 1   
    24   13   29 2   
    25   14   15 2   
    26   14   28 1   
    27   15   16 1   
    28   15   34 1   
    29   16   17 1   
    30   16   27 1   
    31   16   35 1   
    32   17   21 1   
    33   17   36 1   
    34   18   19 1   
    35   18   25 1   
    36   19   37 1   
    37   19   38 1   
    38   19   39 1   
    39   20   21 1   
    40   20   23 1   
    41   20   40 1   
    42   21   22 1   
    43   21   41 1   
    44   22   42 1   
    45   22   43 1   
    46   22   44 1   
    47   23   24 1   
    48   23   45 1   
    49   24   25 2   
    50   24   46 1   
    51   25   26 1   
    52   26   47 1   
    53   26   48 1   
    54   26   49 1   
    55   27   50 1   
    56   27   51 1   
    57   27   52 1   
    58   28   53 1   
    59   28   54 1   
    60   28   55 1   
@<TRIPOS>SUBSTRUCTURE
     1 TIR         1 TEMP              0 ****  ****    0 ROOT
