@<TRIPOS>MOLECULE
TIR
   58    60     1     0     0
SMALL
bcc


@<TRIPOS>ATOM
      1 N           0.7080    1.5450    0.2420 ns        1 TIR     -0.571900
      2 C1          0.3200    0.1850   -0.0600 c3        1 TIR     -0.015000
      3 O1          0.2470   -1.7940    1.3810 o         1 TIR     -0.537100
      4 C2          0.4710   -0.5900    1.2630 c         1 TIR      0.599300
      5 O2          2.7140   -1.9000   10.1750 os        1 TIR     -0.429600
      6 C3          0.9030    0.3840    2.2700 ce        1 TIR     -0.455400
      7 O3          3.4050   -4.0180   10.5850 os        1 TIR     -0.423600
      8 C4          1.1810    0.1600    3.5910 cf        1 TIR      0.336100
      9 O4          6.9550   -3.3000   10.8810 oh        1 TIR     -0.586800
     10 C5          1.0630   -1.1590    4.1990 cf        1 TIR     -0.201000
     11 O5          1.5520    1.1450    4.4440 oh        1 TIR     -0.484100
     12 C6          1.6940   -1.6410    5.2810 ce        1 TIR     -0.020000
     13 O6          1.2880    2.7980    2.1230 o         1 TIR     -0.670500
     14 C7          2.6990   -0.9990    6.1170 ce        1 TIR     -0.113200
     15 C8          2.6270   -1.1400    7.4550 c2        1 TIR     -0.125200
     16 C9          3.5680   -0.5200    8.4270 c3        1 TIR     -0.028500
     17 C10         3.9420   -1.4960    9.5530 c3        1 TIR      0.148100
     18 C11         2.8830   -2.8520   11.2220 c3        1 TIR      0.373800
     19 C12         1.4910   -3.2130   11.7310 c3        1 TIR     -0.073100
     20 C13         4.7350   -3.8240   10.0920 c3        1 TIR      0.153100
     21 C14         4.7090   -2.7170    9.0320 c3        1 TIR     -0.104700
     22 C15         6.0850   -2.3510    8.5340 c3        1 TIR     -0.080100
     23 C16         5.6560   -3.6560   11.3200 c3        1 TIR      0.149300
     24 C17         5.0980   -2.6870   12.3130 c2        1 TIR     -0.193200
     25 C18         3.8060   -2.3340   12.3060 c2        1 TIR     -0.139400
     26 C19         3.2100   -1.4090   13.2940 c3        1 TIR     -0.057900
     27 C20         2.9530    0.7400    9.0100 c3        1 TIR     -0.086100
     28 C21         3.7790   -0.2340    5.4460 c3        1 TIR     -0.050900
     29 C22         0.9920    1.7070    1.5960 c         1 TIR      0.725700
     30 H11        -0.7420    0.1210   -0.4230 h1        1 TIR      0.072700
     31 HO5         1.5900    2.0070    3.9830 ho        1 TIR      0.472000
     32 H5          0.3600   -1.8190    3.6490 ha        1 TIR      0.173000
     33 H6          1.4360   -2.6720    5.6020 ha        1 TIR      0.135000
     34 H8          1.8170   -1.7300    7.9200 ha        1 TIR      0.144000
     35 H9          4.5340   -0.2440    7.9120 hc        1 TIR      0.061700
     36 H10         4.5690   -0.9520   10.3160 h1        1 TIR      0.050700
     37 H112        1.5870   -3.9040   12.6000 hc        1 TIR      0.057367
     38 H212        0.9160   -3.7160   10.9180 hc        1 TIR      0.057367
     39 H312        0.9600   -2.2810   12.0380 hc        1 TIR      0.057367
     40 H13         4.9890   -4.8010    9.5920 h1        1 TIR      0.083700
     41 H14         4.1120   -3.1370    8.1700 hc        1 TIR      0.070700
     42 H115        6.7080   -3.2720    8.4160 hc        1 TIR      0.042367
     43 H215        6.6060   -1.6750    9.2550 hc        1 TIR      0.042367
     44 H315        6.0170   -1.8360    7.5450 hc        1 TIR      0.042367
     45 H16         5.7110   -4.6670   11.8320 h1        1 TIR      0.050700
     46 H17         5.8050   -2.3070   13.0660 ha        1 TIR      0.131000
     47 H119        2.4820   -1.9590   13.9430 hc        1 TIR      0.049367
     48 H219        3.9920   -0.9510   13.9470 hc        1 TIR      0.049367
     49 H319        2.6590   -0.5910   12.7640 hc        1 TIR      0.049367
     50 H120        3.6770    1.2360    9.7000 hc        1 TIR      0.042033
     51 H220        2.6900    1.4520    8.1910 hc        1 TIR      0.042033
     52 H320        2.0280    0.4880    9.5820 hc        1 TIR      0.042033
     53 H121        3.7200    0.8460    5.7320 hc        1 TIR      0.045033
     54 H221        4.7820   -0.6300    5.7450 hc        1 TIR      0.045033
     55 H321        3.6890   -0.3010    4.3340 hc        1 TIR      0.045033
     56 HN          0.5220    2.2950   -0.3700 hn        1 TIR      0.334500
     57 H12         0.9980   -0.2540   -0.8420 h1        1 TIR      0.072700
     58 HO4         7.5030   -3.2210   11.6720 ho        1 TIR      0.402000
@<TRIPOS>BOND
     1    1    2 1   
     2    1   29 1   
     3    1   56 1   
     4    2    4 1   
     5    2   30 1   
     6    2   57 1   
     7    3    4 2   
     8    4    6 1   
     9    5   17 1   
    10    5   18 1   
    11    6    8 2   
    12    6   29 1   
    13    7   18 1   
    14    7   20 1   
    15    8   10 1   
    16    8   11 1   
    17    9   23 1   
    18    9   58 1   
    19   10   12 2   
    20   10   32 1   
    21   11   31 1   
    22   12   14 1   
    23   12   33 1   
    24   13   29 2   
    25   14   15 2   
    26   14   28 1   
    27   15   16 1   
    28   15   34 1   
    29   16   17 1   
    30   16   27 1   
    31   16   35 1   
    32   17   21 1   
    33   17   36 1   
    34   18   19 1   
    35   18   25 1   
    36   19   37 1   
    37   19   38 1   
    38   19   39 1   
    39   20   21 1   
    40   20   23 1   
    41   20   40 1   
    42   21   22 1   
    43   21   41 1   
    44   22   42 1   
    45   22   43 1   
    46   22   44 1   
    47   23   24 1   
    48   23   45 1   
    49   24   25 2   
    50   24   46 1   
    51   25   26 1   
    52   26   47 1   
    53   26   48 1   
    54   26   49 1   
    55   27   50 1   
    56   27   51 1   
    57   27   52 1   
    58   28   53 1   
    59   28   54 1   
    60   28   55 1   
@<TRIPOS>SUBSTRUCTURE
     1 TIR         1 TEMP              0 ****  ****    0 ROOT
