@<TRIPOS>MOLECULE
TIS
   21    20     1     0     0
SMALL
bcc


@<TRIPOS>ATOM
      1 N           0.7150    0.9470   -1.2730 n3        1 TIS     -0.910800
      2 CA          1.0200    0.4600    0.0660 c3        1 TIS     -0.029500
      3 CB          0.0290   -0.5990    0.5590 c3        1 TIS      0.146400
      4 OG         -1.1750   -0.0290    1.0730 os        1 TIS     -0.488600
      5 C           2.4710   -0.1190    0.2170 c         1 TIS      0.894600
      6 O           3.2660    0.0450   -0.7500 o         1 TIS     -0.834800
      7 C1T        -2.2380    0.2690    0.2060 c3        1 TIS      0.537400
      8 O1T        -2.1510    1.6320   -0.1140 oh        1 TIS     -0.657300
      9 O2T        -2.1510   -0.4480   -0.9910 oh        1 TIS     -0.657300
     10 C2T        -3.5660   -0.0330    0.8960 c3        1 TIS     -0.064100
     11 HN          1.4060    1.6400   -1.5060 hn        1 TIS      0.338800
     12 HNA         0.8540    0.1890   -1.9200 hn        1 TIS      0.338800
     13 HA          0.9570    1.3430    0.7670 h1        1 TIS      0.053700
     14 HB         -0.1960   -1.3680   -0.2220 h1        1 TIS      0.069700
     15 HBA         0.4750   -1.0940    1.4700 h1        1 TIS      0.069700
     16 OXT         2.7590   -0.6960    1.2990 o         1 TIS     -0.834800
     17 H2T        -3.5110    0.3150    1.9530 hc        1 TIS      0.048700
     18 H2TA       -4.3830    0.5030    0.3610 hc        1 TIS      0.048700
     19 H2TB       -3.7480   -1.1310    0.8670 hc        1 TIS      0.048700
     20 H9         -1.2240    1.9030   -0.0630 ho        1 TIS      0.441500
     21 H10        -1.5430    0.0140   -1.5830 ho        1 TIS      0.441500
@<TRIPOS>BOND
     1    1    2 1   
     2    1   11 1   
     3    1   12 1   
     4    2    3 1   
     5    2    5 1   
     6    2   13 1   
     7    3    4 1   
     8    3   14 1   
     9    3   15 1   
    10    4    7 1   
    11    5    6 1   
    12    5   16 1   
    13    7    8 1   
    14    7    9 1   
    15    7   10 1   
    16    8   20 1   
    17    9   21 1   
    18   10   17 1   
    19   10   18 1   
    20   10   19 1   
@<TRIPOS>SUBSTRUCTURE
     1 TIS         1 TEMP              0 ****  ****    0 ROOT
