@<TRIPOS>MOLECULE
TIV
   47    52     1     0     0
SMALL
bcc


@<TRIPOS>ATOM
      1 C1          0.0270    0.0970    0.4010 c3        1 TIV     -0.049500
      2 N1         -2.4410    2.6780   -0.6000 na        1 TIV     -0.187400
      3 O1         -0.7660    0.4190    2.7390 o         1 TIV     -0.607500
      4 C2          1.9030   -1.1750   -0.7090 cc        1 TIV     -0.155400
      5 N2          1.4980    0.5590    2.2430 n         1 TIV     -0.614500
      6 O2          3.5570    0.6440    1.1730 o         1 TIV     -0.575500
      7 C3          1.6840   -2.4640   -0.1930 cd        1 TIV     -0.073100
      8 N3          2.2080   -3.4160   -1.0630 na        1 TIV     -0.067400
      9 C4         -0.8360    1.0800   -0.2680 cc        1 TIV     -0.165400
     10 C5         -1.7720    1.9150    0.3520 cd        1 TIV     -0.078100
     11 C6          1.4930    0.1030   -0.1160 c3        1 TIV     -0.052500
     12 C7          0.1500    0.3750    1.9100 c         1 TIV      0.700500
     13 C8          2.3410    0.4530    1.1200 c         1 TIV      0.702500
     14 C9         -1.9530    2.3350   -1.8650 ca        1 TIV     -0.050200
     15 C10        -0.9320    1.3240   -1.6940 ca        1 TIV     -0.079800
     16 C11        -0.2920    0.8070   -2.8230 ca        1 TIV     -0.093000
     17 C12        -0.6510    1.2810   -4.0760 ca        1 TIV     -0.153000
     18 C13        -1.6420    2.2670   -4.2310 ca        1 TIV     -0.114000
     19 C14        -2.3040    2.8070   -3.1400 ca        1 TIV     -0.143000
     20 C15         3.4710   -3.3210   -3.2240 ca        1 TIV     -0.087300
     21 C16         3.5480   -4.8050   -3.2420 c3        1 TIV     -0.027100
     22 C17         3.4570   -5.3980   -1.8410 c3        1 TIV     -0.090400
     23 C18         2.3040   -4.8460   -0.9840 c3        1 TIV      0.050300
     24 C19         2.7960   -2.7400   -2.1360 ca        1 TIV     -0.058200
     25 C20         2.6230   -1.3260   -1.9610 ca        1 TIV     -0.071800
     26 C21         3.1530   -0.4850   -2.9460 ca        1 TIV     -0.086000
     27 C22         3.8170   -1.0520   -4.0250 ca        1 TIV     -0.149000
     28 C23         3.9810   -2.4460   -4.1700 ca        1 TIV     -0.109000
     29 H02        -0.4190   -0.9300    0.2790 hc        1 TIV      0.097700
     30 H04         1.8170    0.7770    3.1540 hn        1 TIV      0.342500
     31 H05         1.1840   -2.7640    0.7300 h4        1 TIV      0.169000
     32 H06        -2.0070    2.0020    1.4180 h4        1 TIV      0.188000
     33 H07         1.6350    0.9290   -0.8680 hc        1 TIV      0.111700
     34 H08         0.4870    0.0350   -2.7120 ha        1 TIV      0.149000
     35 H09        -0.1550    0.8790   -4.9720 ha        1 TIV      0.132000
     36 H10        -1.8950    2.6150   -5.2440 ha        1 TIV      0.130000
     37 H11        -3.0770    3.5760   -3.2650 ha        1 TIV      0.132000
     38 H12         2.7070   -5.2030   -3.8720 hc        1 TIV      0.055200
     39 H18         4.5090   -5.1380   -3.7150 hc        1 TIV      0.055200
     40 H13         3.3140   -6.5070   -1.9190 hc        1 TIV      0.056700
     41 H19         4.4250   -5.2130   -1.3060 hc        1 TIV      0.056700
     42 H17         1.3300   -5.2920   -1.3390 h1        1 TIV      0.053200
     43 H14         2.4600   -5.1520    0.0890 h1        1 TIV      0.053200
     44 H15         3.0490    0.6060   -2.8580 ha        1 TIV      0.138000
     45 H16         4.2390   -0.3950   -4.8010 ha        1 TIV      0.130000
     46 H01         4.5250   -2.8350   -5.0430 ha        1 TIV      0.131000
     47 H03        -3.1570    3.3290   -0.4200 hn        1 TIV      0.301700
@<TRIPOS>BOND
     1    1    9 1   
     2    1   11 1   
     3    1   12 1   
     4    1   29 1   
     5    2   10 1   
     6    2   14 1   
     7    2   47 1   
     8    3   12 2   
     9    4    7 2   
    10    4   11 1   
    11    4   25 1   
    12    5   12 1   
    13    5   13 1   
    14    5   30 1   
    15    6   13 2   
    16    7    8 1   
    17    7   31 1   
    18    8   23 1   
    19    8   24 1   
    20    9   10 2   
    21    9   15 1   
    22   10   32 1   
    23   11   13 1   
    24   11   33 1   
    25   14   15 ar  
    26   14   19 ar  
    27   15   16 ar  
    28   16   17 ar  
    29   16   34 1   
    30   17   18 ar  
    31   17   35 1   
    32   18   19 ar  
    33   18   36 1   
    34   19   37 1   
    35   20   21 1   
    36   20   24 ar  
    37   20   28 ar  
    38   21   22 1   
    39   21   38 1   
    40   21   39 1   
    41   22   23 1   
    42   22   40 1   
    43   22   41 1   
    44   23   42 1   
    45   23   43 1   
    46   24   25 ar  
    47   25   26 ar  
    48   26   27 ar  
    49   26   44 1   
    50   27   28 ar  
    51   27   45 1   
    52   28   46 1   
@<TRIPOS>SUBSTRUCTURE
     1 TIV         1 TEMP              0 ****  ****    0 ROOT
