@<TRIPOS>MOLECULE
TIY
   24    25     1     0     0
SMALL
bcc


@<TRIPOS>ATOM
      1 C13        -0.0320    0.2950    0.0820 ca        1 TIY      0.181100
      2 C15         1.3730    0.2070    0.0870 ca        1 TIY     -0.109900
      3 O01         3.4120   -0.1020    1.3430 oh        1 TIY     -0.472100
      4 C02         2.0460   -0.0620    1.2870 ca        1 TIY      0.202100
      5 C03         1.3270   -0.2920    2.4870 ca        1 TIY     -0.204600
      6 C04        -0.0760   -0.2040    2.4660 ca        1 TIY      0.066200
      7 C05        -0.9230   -0.4000    3.6250 cc        1 TIY     -0.144200
      8 C06        -0.6410   -0.1560    4.9170 cd        1 TIY     -0.076000
      9 C07         0.5970    0.2870    5.4870 cd        1 TIY     -0.163000
     10 C08         1.8180    0.0880    4.9420 cc        1 TIY      0.034900
     11 C09         2.1150   -0.6370    3.6800 c         1 TIY      0.575900
     12 O10         3.0560   -1.4410    3.6550 o         1 TIY     -0.512100
     13 O11         2.9090    0.5630    5.6380 oh        1 TIY     -0.494100
     14 C12        -0.7480    0.0820    1.2610 ca        1 TIY     -0.199000
     15 O14        -0.7360    0.5730   -1.0590 oh        1 TIY     -0.485100
     16 O16         2.0920    0.4800   -1.0630 oh        1 TIY     -0.514100
     17 HO01        3.7550    0.1670    0.4740 ho        1 TIY      0.438000
     18 H06        -1.4520   -0.2940    5.6600 ha        1 TIY      0.135000
     19 H07         0.5320    0.7940    6.4660 ha        1 TIY      0.155000
     20 H4          3.6980    0.1030    5.3060 ho        1 TIY      0.439000
     21 H12        -1.8450    0.1520    1.2390 ha        1 TIY      0.161000
     22 HO14       -0.0980    0.8350   -1.7440 ho        1 TIY      0.437000
     23 HO16        2.2040   -0.3700   -1.5180 ho        1 TIY      0.414000
     24 H05        -1.9480   -0.7410    3.3760 ha        1 TIY      0.136000
@<TRIPOS>BOND
     1    1    2 ar  
     2    1   14 ar  
     3    1   15 1   
     4    2    4 ar  
     5    2   16 1   
     6    3    4 1   
     7    3   17 1   
     8    4    5 ar  
     9    5    6 ar  
    10    5   11 1   
    11    6    7 1   
    12    6   14 ar  
    13    7    8 2   
    14    7   24 1   
    15    8    9 1   
    16    8   18 1   
    17    9   10 2   
    18    9   19 1   
    19   10   11 1   
    20   10   13 1   
    21   11   12 2   
    22   13   20 1   
    23   14   21 1   
    24   15   22 1   
    25   16   23 1   
@<TRIPOS>SUBSTRUCTURE
     1 TIY         1 TEMP              0 ****  ****    0 ROOT
