@<TRIPOS>MOLECULE
TIY
   24    25     1     0     0
SMALL
bcc


@<TRIPOS>ATOM
      1 C13        -2.4460    0.9200    0.1430 ca        1 TIY      0.163100
      2 C15        -2.2440   -0.4640   -0.0390 ca        1 TIY      0.010100
      3 O01        -0.8830   -2.3030   -0.5060 oh        1 TIY     -0.520100
      4 C02        -0.9620   -0.9390   -0.3540 ca        1 TIY      0.135100
      5 C03         0.1350   -0.0530   -0.4560 ca        1 TIY     -0.222600
      6 C04        -0.0830    1.3280   -0.2930 ca        1 TIY      0.029200
      7 C05         0.9440    2.3400   -0.4470 cc        1 TIY     -0.123200
      8 C06         2.2540    2.2490   -0.1580 cd        1 TIY     -0.093000
      9 C07         2.9520    1.0990    0.3380 cd        1 TIY     -0.209000
     10 C08         2.5910   -0.1820    0.1030 cc        1 TIY      0.042900
     11 C09         1.4590   -0.6250   -0.7550 c         1 TIY      0.611900
     12 O10         1.6300   -1.4800   -1.6330 o         1 TIY     -0.521100
     13 O11         3.2740   -1.2660    0.6010 oh        1 TIY     -0.480100
     14 C12        -1.3730    1.8030   -0.0010 ca        1 TIY     -0.174000
     15 O14        -3.6710    1.4520    0.4500 oh        1 TIY     -0.487100
     16 O16        -3.3430   -1.2810    0.1130 oh        1 TIY     -0.512100
     17 HO01       -0.0780   -2.5270   -1.0020 ho        1 TIY      0.460000
     18 H06         2.8850    3.1500   -0.2810 ha        1 TIY      0.134000
     19 H07         3.8600    1.3070    0.9320 ha        1 TIY      0.138000
     20 H4          4.0140   -0.9420    1.1370 ho        1 TIY      0.424000
     21 H12        -1.5540    2.8810    0.1260 ha        1 TIY      0.160000
     22 HO14       -4.3110    0.7240    0.5070 ho        1 TIY      0.445000
     23 HO16       -3.0850   -2.1780   -0.1510 ho        1 TIY      0.450000
     24 H05         0.5570    3.3150   -0.8030 ha        1 TIY      0.137000
@<TRIPOS>BOND
     1    1    2 ar  
     2    1   14 ar  
     3    1   15 1   
     4    2    4 ar  
     5    2   16 1   
     6    3    4 1   
     7    3   17 1   
     8    4    5 ar  
     9    5    6 ar  
    10    5   11 1   
    11    6    7 1   
    12    6   14 ar  
    13    7    8 2   
    14    7   24 1   
    15    8    9 1   
    16    8   18 1   
    17    9   10 2   
    18    9   19 1   
    19   10   11 1   
    20   10   13 1   
    21   11   12 2   
    22   13   20 1   
    23   14   21 1   
    24   15   22 1   
    25   16   23 1   
@<TRIPOS>SUBSTRUCTURE
     1 TIY         1 TEMP              0 ****  ****    0 ROOT
