@<TRIPOS>MOLECULE
TIY
   24    25     1     0     0
SMALL
bcc


@<TRIPOS>ATOM
      1 C13        -0.0620    0.0150    0.0640 ca        1 TIY      0.182100
      2 C15         1.3450   -0.0300    0.0720 ca        1 TIY     -0.105900
      3 O01         3.4040    0.0970    1.3240 oh        1 TIY     -0.478100
      4 C02         2.0360    0.1410    1.2800 ca        1 TIY      0.197100
      5 C03         1.3370    0.3020    2.5010 ca        1 TIY     -0.202600
      6 C04        -0.0700    0.2850    2.4860 ca        1 TIY      0.064200
      7 C05        -0.8990    0.4100    3.6680 cc        1 TIY     -0.143200
      8 C06        -0.6180    0.0340    4.9280 cd        1 TIY     -0.077000
      9 C07         0.6030   -0.5100    5.4420 cd        1 TIY     -0.163000
     10 C08         1.8290   -0.3130    4.9060 cc        1 TIY      0.033900
     11 C09         2.1470    0.5110    3.7110 c         1 TIY      0.575900
     12 O10         3.1170    1.2780    3.7490 o         1 TIY     -0.511100
     13 O11         2.9030   -0.8950    5.5440 oh        1 TIY     -0.494100
     14 C12        -0.7600    0.1650    1.2640 ca        1 TIY     -0.197000
     15 O14        -0.7850   -0.1050   -1.0920 oh        1 TIY     -0.485100
     16 O16         2.0400   -0.1270   -1.1210 oh        1 TIY     -0.514100
     17 HO01        3.7350    0.2260    0.4190 ho        1 TIY      0.440000
     18 H06        -1.4170    0.1370    5.6890 ha        1 TIY      0.135000
     19 H07         0.5230   -1.1020    6.3720 ha        1 TIY      0.154000
     20 H4          3.7080   -0.4350    5.2510 ho        1 TIY      0.439000
     21 H12        -1.8600    0.1810    1.2420 ha        1 TIY      0.161000
     22 HO14       -0.1590   -0.0830   -1.8360 ho        1 TIY      0.438000
     23 HO16        2.2510   -1.0680   -1.2330 ho        1 TIY      0.415000
     24 H05        -1.9090    0.8160    3.4630 ha        1 TIY      0.136000
@<TRIPOS>BOND
     1    1    2 ar  
     2    1   14 ar  
     3    1   15 1   
     4    2    4 ar  
     5    2   16 1   
     6    3    4 1   
     7    3   17 1   
     8    4    5 ar  
     9    5    6 ar  
    10    5   11 1   
    11    6    7 1   
    12    6   14 ar  
    13    7    8 2   
    14    7   24 1   
    15    8    9 1   
    16    8   18 1   
    17    9   10 2   
    18    9   19 1   
    19   10   11 1   
    20   10   13 1   
    21   11   12 2   
    22   13   20 1   
    23   14   21 1   
    24   15   22 1   
    25   16   23 1   
@<TRIPOS>SUBSTRUCTURE
     1 TIY         1 TEMP              0 ****  ****    0 ROOT
