@<TRIPOS>MOLECULE
TIZ
   30    31     1     0     0
SMALL
bcc


@<TRIPOS>ATOM
      1 O2'        -0.1120    0.4250    0.8720 oh        1 TIZ     -0.574800
      2 C2'         1.0300    0.1100    0.1170 c3        1 TIZ      0.099100
      3 C3'         2.1560   -0.4980    0.9930 c3        1 TIZ      0.094100
      4 O3'         1.8150   -0.4090    2.3620 oh        1 TIZ     -0.583800
      5 C4'         3.3840    0.4060    0.7720 c3        1 TIZ      0.096100
      6 C5'         4.4840   -0.3130   -0.0130 c3        1 TIZ      0.127400
      7 O5'         5.2030    0.5190   -0.9080 oh        1 TIZ     -0.651800
      8 O4'         2.9360    1.5850    0.0910 os        1 TIZ     -0.398600
      9 C1'         1.6550    1.3760   -0.5150 c3        1 TIZ      0.074800
     10 C1M         1.8400    1.2500   -2.0010 cc        1 TIZ      0.361700
     11 N1H         2.8070    0.4950   -2.5170 nd        1 TIZ     -0.625000
     12 S1J         0.9680    2.1600   -3.1780 ss        1 TIZ      0.152700
     13 C1F         1.9210    1.5940   -4.3960 cc        1 TIZ     -0.168400
     14 C1L         2.8970    0.7230   -3.8880 cd        1 TIZ      0.200800
     15 C1K         4.0050    0.1680   -4.6480 c         1 TIZ      0.501600
     16 O1B         4.1800    0.1270   -5.8560 o         1 TIZ     -0.417100
     17 N1A         5.1270   -0.4020   -3.8000 n4        1 TIZ     -0.748400
     18 HO2'        0.1680    0.9380    1.6470 ho        1 TIZ      0.431000
     19 H2'         0.6700   -0.6130   -0.6620 h1        1 TIZ      0.101700
     20 H3'         2.3580   -1.5630    0.7070 h1        1 TIZ      0.068700
     21 HO3'        1.1010   -1.0430    2.5210 ho        1 TIZ      0.431000
     22 H4'         3.7880    0.7850    1.7540 h1        1 TIZ      0.118700
     23 H5'1        5.2150   -0.7580    0.7170 h1        1 TIZ      0.052700
     24 H5'2        4.0630   -1.1320   -0.6570 h1        1 TIZ      0.052700
     25 HO5'        5.1640    1.4240   -0.5700 ho        1 TIZ      0.438000
     26 H1'         1.0520    2.2980   -0.2810 h1        1 TIZ      0.111700
     27 H1F         1.8240    1.8600   -5.4540 h4        1 TIZ      0.222000
     28 H1A1        5.9520   -0.5850   -4.3780 hn        1 TIZ      0.477800
     29 H1A2        4.8110   -1.2760   -3.3650 hn        1 TIZ      0.477800
     30 H1A3        5.3670    0.2510   -3.0330 hn        1 TIZ      0.477800
@<TRIPOS>BOND
     1    1    2 1   
     2    1   18 1   
     3    2    3 1   
     4    2    9 1   
     5    2   19 1   
     6    3    4 1   
     7    3    5 1   
     8    3   20 1   
     9    4   21 1   
    10    5    6 1   
    11    5    8 1   
    12    5   22 1   
    13    6    7 1   
    14    6   23 1   
    15    6   24 1   
    16    7   25 1   
    17    8    9 1   
    18    9   10 1   
    19    9   26 1   
    20   10   11 2   
    21   10   12 1   
    22   11   14 1   
    23   12   13 1   
    24   13   14 2   
    25   13   27 1   
    26   14   15 1   
    27   15   16 2   
    28   15   17 1   
    29   17   28 1   
    30   17   29 1   
    31   17   30 1   
@<TRIPOS>SUBSTRUCTURE
     1 TIZ         1 TEMP              0 ****  ****    0 ROOT
