@<TRIPOS>MOLECULE
TIZ
   29    30     1     0     0
SMALL
bcc


@<TRIPOS>ATOM
      1 O2'        -2.0800    1.4440    0.0370 oh        1 TIZ     -0.598800
      2 C2'        -0.8520    0.8390    0.4020 c3        1 TIZ      0.091100
      3 C3'        -1.0860   -0.5790    0.9780 c3        1 TIZ      0.092100
      4 O3'        -2.4420   -0.9500    0.8640 oh        1 TIZ     -0.588800
      5 C4'        -0.6110   -0.5090    2.4370 c3        1 TIZ      0.065100
      6 C5'         0.6120   -1.3890    2.6910 c3        1 TIZ      0.121400
      7 O5'         1.0520   -1.2780    4.0260 oh        1 TIZ     -0.593800
      8 O4'        -0.2820    0.8550    2.7440 os        1 TIZ     -0.408600
      9 C1'        -0.2720    1.6680    1.5670 c3        1 TIZ      0.115800
     10 C1M         1.1130    2.1530    1.2800 cc        1 TIZ      0.349700
     11 N1H         2.1610    1.3710    1.0110 nd        1 TIZ     -0.617000
     12 S1J         1.4690    3.8370    1.3000 ss        1 TIZ     -0.013300
     13 C1F         3.0570    3.5380    0.9310 cc        1 TIZ     -0.197400
     14 C1L         3.2840    2.1660    0.8100 cd        1 TIZ      0.278800
     15 C1K         4.6330    1.6220    0.4850 c         1 TIZ      0.594600
     16 O1B         5.5640    2.3950    0.1710 o         1 TIZ     -0.617100
     17 N1A         4.8360    0.2700    0.5390 n         1 TIZ     -0.657000
     18 HO2'       -2.4900    0.8670   -0.6230 ho        1 TIZ      0.424000
     19 H2'        -0.1630    0.8100   -0.4810 h1        1 TIZ      0.075700
     20 H3'        -0.5280   -1.3600    0.3950 h1        1 TIZ      0.099700
     21 HO3'       -2.9650   -0.3070    1.3630 ho        1 TIZ      0.417000
     22 H4'        -1.4340   -0.7810    3.1550 h1        1 TIZ      0.089700
     23 H5'1        1.4420   -1.1180    1.9850 h1        1 TIZ      0.056700
     24 H5'2        0.3370   -2.4700    2.5620 h1        1 TIZ      0.056700
     25 HO5'        1.2180   -0.3400    4.1920 ho        1 TIZ      0.415000
     26 H1'        -0.9380    2.5480    1.8000 h1        1 TIZ      0.097700
     27 H1F         3.8370    4.2900    0.7920 h4        1 TIZ      0.210000
     28 H1A1        4.1180   -0.3550    0.7990 hn        1 TIZ      0.320500
     29 H1A2        5.7360   -0.0880    0.3350 hn        1 TIZ      0.320500
@<TRIPOS>BOND
     1    1    2 1   
     2    1   18 1   
     3    2    3 1   
     4    2    9 1   
     5    2   19 1   
     6    3    4 1   
     7    3    5 1   
     8    3   20 1   
     9    4   21 1   
    10    5    6 1   
    11    5    8 1   
    12    5   22 1   
    13    6    7 1   
    14    6   23 1   
    15    6   24 1   
    16    7   25 1   
    17    8    9 1   
    18    9   10 1   
    19    9   26 1   
    20   10   11 2   
    21   10   12 1   
    22   11   14 1   
    23   12   13 1   
    24   13   14 2   
    25   13   27 1   
    26   14   15 1   
    27   15   16 2   
    28   15   17 1   
    29   17   28 1   
    30   17   29 1   
@<TRIPOS>SUBSTRUCTURE
     1 TIZ         1 TEMP              0 ****  ****    0 ROOT
