@<TRIPOS>MOLECULE
TIZ
   30    31     1     0     0
SMALL
bcc


@<TRIPOS>ATOM
      1 O2'        -0.0700    0.4210    0.8660 oh        1 TIZ     -0.589800
      2 C2'         1.0630    0.0360    0.1160 c3        1 TIZ      0.093100
      3 C3'         2.1880   -0.5130    1.0320 c3        1 TIZ      0.096100
      4 O3'         1.7860   -0.5120    2.3800 oh        1 TIZ     -0.572800
      5 C4'         3.3980    0.4060    0.7750 c3        1 TIZ      0.063100
      6 C5'         4.4930   -0.3020   -0.0260 c3        1 TIZ      0.128400
      7 O5'         5.1990    0.5380   -0.9240 oh        1 TIZ     -0.651800
      8 O4'         2.9160    1.5730    0.0950 os        1 TIZ     -0.400600
      9 C1'         1.6370    1.3280   -0.5060 c3        1 TIZ      0.107800
     10 C1M         1.8170    1.2200   -1.9940 cc        1 TIZ      0.358700
     11 N1H         2.7960    0.4880   -2.5220 nd        1 TIZ     -0.624000
     12 S1J         0.9260    2.1290   -3.1550 ss        1 TIZ      0.157700
     13 C1F         1.8830    1.5950   -4.3830 cc        1 TIZ     -0.170400
     14 C1L         2.8760    0.7340   -3.8900 cd        1 TIZ      0.200800
     15 C1K         3.9890    0.2050   -4.6620 c         1 TIZ      0.501600
     16 O1B         4.1610    0.1840   -5.8710 o         1 TIZ     -0.417100
     17 N1A         5.1220   -0.3620   -3.8260 n4        1 TIZ     -0.748400
     18 HO2'       -0.3380   -0.3450    1.3960 ho        1 TIZ      0.439000
     19 H2'         0.7730   -0.7140   -0.6640 h1        1 TIZ      0.069700
     20 H3'         2.4180   -1.5890    0.8090 h1        1 TIZ      0.104700
     21 HO3'        1.5500    0.3960    2.6230 ho        1 TIZ      0.425000
     22 H4'         3.8240    0.8020    1.7410 h1        1 TIZ      0.106700
     23 H5'1        5.2340   -0.7490    0.6930 h1        1 TIZ      0.053700
     24 H5'2        4.0650   -1.1180   -0.6690 h1        1 TIZ      0.053700
     25 HO5'        5.1490    1.4420   -0.5870 ho        1 TIZ      0.437000
     26 H1'         1.0040    2.2250   -0.2530 h1        1 TIZ      0.122700
     27 H1F         1.7790    1.8720   -5.4380 h4        1 TIZ      0.222000
     28 H1A1        5.3560    0.2810   -3.0500 hn        1 TIZ      0.477800
     29 H1A2        5.9470   -0.5240   -4.4100 hn        1 TIZ      0.477800
     30 H1A3        4.8200   -1.2470   -3.4060 hn        1 TIZ      0.477800
@<TRIPOS>BOND
     1    1    2 1   
     2    1   18 1   
     3    2    3 1   
     4    2    9 1   
     5    2   19 1   
     6    3    4 1   
     7    3    5 1   
     8    3   20 1   
     9    4   21 1   
    10    5    6 1   
    11    5    8 1   
    12    5   22 1   
    13    6    7 1   
    14    6   23 1   
    15    6   24 1   
    16    7   25 1   
    17    8    9 1   
    18    9   10 1   
    19    9   26 1   
    20   10   11 2   
    21   10   12 1   
    22   11   14 1   
    23   12   13 1   
    24   13   14 2   
    25   13   27 1   
    26   14   15 1   
    27   15   16 2   
    28   15   17 1   
    29   17   28 1   
    30   17   29 1   
    31   17   30 1   
@<TRIPOS>SUBSTRUCTURE
     1 TIZ         1 TEMP              0 ****  ****    0 ROOT
