@<TRIPOS>MOLECULE
TIZ
   30    31     1     0     0
SMALL
bcc


@<TRIPOS>ATOM
      1 O2'        -0.1330    0.4070    0.8420 oh        1 TIZ     -0.574800
      2 C2'         1.0220    0.1000    0.1050 c3        1 TIZ      0.099100
      3 C3'         2.1520   -0.4650    1.0040 c3        1 TIZ      0.094100
      4 O3'         1.7970   -0.3520    2.3670 oh        1 TIZ     -0.583800
      5 C4'         3.3630    0.4610    0.7740 c3        1 TIZ      0.096100
      6 C5'         4.4860   -0.2520    0.0150 c3        1 TIZ      0.127400
      7 O5'         5.1960    0.5760   -0.8920 oh        1 TIZ     -0.651800
      8 O4'         2.8970    1.6150    0.0620 os        1 TIZ     -0.398600
      9 C1'         1.6260    1.3650   -0.5510 c3        1 TIZ      0.074800
     10 C1M         1.8270    1.2100   -2.0310 cc        1 TIZ      0.361700
     11 N1H         2.8150    0.4640   -2.5220 nd        1 TIZ     -0.625000
     12 S1J         0.9480    2.0740   -3.2360 ss        1 TIZ      0.152700
     13 C1F         1.9240    1.5020   -4.4320 cc        1 TIZ     -0.168400
     14 C1L         2.9130    0.6630   -3.8960 cd        1 TIZ      0.200800
     15 C1K         4.0400    0.1150   -4.6330 c         1 TIZ      0.501600
     16 O1B         4.2270    0.0500   -5.8390 o         1 TIZ     -0.417100
     17 N1A         5.1660   -0.4120   -3.7630 nz        1 TIZ     -0.748400
     18 HO2'        0.1280    0.9430    1.6080 ho        1 TIZ      0.431000
     19 H2'         0.6850   -0.6480   -0.6610 h1        1 TIZ      0.101700
     20 H3'         2.3800   -1.5310    0.7430 h1        1 TIZ      0.068700
     21 HO3'        1.0950   -0.9980    2.5340 ho        1 TIZ      0.431000
     22 H4'         3.7500    0.8700    1.7510 h1        1 TIZ      0.118700
     23 H5'1        4.0880   -1.0930   -0.6150 h1        1 TIZ      0.052700
     24 H5'2        5.2190   -0.6640    0.7610 h1        1 TIZ      0.052700
     25 HO5'        5.1340    1.4870   -0.5750 ho        1 TIZ      0.438000
     26 H1'         1.0020    2.2780   -0.3430 h1        1 TIZ      0.111700
     27 H1F         1.8320    1.7420   -5.4970 h4        1 TIZ      0.222000
     28 H1A1        6.0000   -0.5900   -4.3300 hn        1 TIZ      0.477800
     29 H1A2        5.3850    0.2630   -3.0090 hn        1 TIZ      0.477800
     30 H1A3        4.8650   -1.2820   -3.3120 hn        1 TIZ      0.477800
@<TRIPOS>BOND
     1    1    2 1   
     2    1   18 1   
     3    2    3 1   
     4    2    9 1   
     5    2   19 1   
     6    3    4 1   
     7    3    5 1   
     8    3   20 1   
     9    4   21 1   
    10    5    6 1   
    11    5    8 1   
    12    5   22 1   
    13    6    7 1   
    14    6   23 1   
    15    6   24 1   
    16    7   25 1   
    17    8    9 1   
    18    9   10 1   
    19    9   26 1   
    20   10   11 2   
    21   10   12 1   
    22   11   14 1   
    23   12   13 1   
    24   13   14 2   
    25   13   27 1   
    26   14   15 1   
    27   15   16 2   
    28   15   17 1   
    29   17   28 1   
    30   17   29 1   
    31   17   30 1   
@<TRIPOS>SUBSTRUCTURE
     1 TIZ         1 TEMP              0 ****  ****    0 ROOT
