@<TRIPOS>MOLECULE
TJ2
   54    55     1     0     0
SMALL
bcc


@<TRIPOS>ATOM
      1 C           0.0940    0.5570   -0.0250 c2        1 TJ2      0.294000
      2 N           1.8150    2.3720   -0.3570 n         1 TJ2     -0.348000
      3 O          -0.8310    1.2790   -0.4460 o         1 TJ2     -0.382000
      4 CA          1.5220    1.1090    0.2740 c3        1 TJ2      0.082000
      5 OAE         1.6120    4.2900    2.0560 oh        1 TJ2     -0.279000
      6 OAG        -0.1140    3.7230    3.2650 o         1 TJ2     -0.316000
      7 CAJ         0.8870    3.3950   -0.4670 c2        1 TJ2      0.267000
      8 CAK         5.8440    0.2000    0.2830 c2        1 TJ2     -0.165000
      9 CAL         5.8080    2.2280    1.6620 c1        1 TJ2     -0.375000
     10 CAM         2.5180   -2.5170    2.1320 c2        1 TJ2     -0.131000
     11 CAN         4.7980    0.7030   -0.4920 c2        1 TJ2     -0.217000
     12 CAO         4.7880    2.7170    0.8510 c2        1 TJ2     -0.136000
     13 CAP         2.8860   -1.2810    1.7500 c2        1 TJ2     -0.097000
     14 CAQ         1.1140   -1.7580    4.0230 c1        1 TJ2      0.181000
     15 CAR         3.1120    2.4840   -1.0170 c3        1 TJ2      0.011000
     16 NAS        -0.0580   -0.8010    0.1570 n         1 TJ2     -0.366000
     17 NAT         1.8540    1.4130    3.9990 na        1 TJ2     -0.134000
     18 CAW         6.3060    0.9690    1.3570 c2        1 TJ2     -0.054000
     19 CAX         1.5340   -2.7150    3.1820 c2        1 TJ2     -0.343000
     20 CAY         4.2570    1.9640   -0.2030 c2        1 TJ2     -0.150000
     21 CAZ         1.4680    1.9650    2.7730 c2        1 TJ2     -0.121000
     22 CBA         1.7430    1.0380    1.7520 c2        1 TJ2     -0.081000
     23 CBB         2.4170    0.1700    3.7780 c2        1 TJ2     -0.066000
     24 CBC         2.3540   -0.1060    2.3890 c2        1 TJ2     -0.118000
     25 CBF        -1.3390   -1.4910    0.0180 c3        1 TJ2      0.088000
     26 HA          2.2590    0.3620   -0.1820 h1        1 TJ2      0.146000
     27 HAA        -2.0950   -0.2760   -1.6440 hc        1 TJ2      0.083222
     28 HAAA       -1.1900   -1.7660   -2.1560 hc        1 TJ2      0.083222
     29 HAAB       -2.8640   -1.9140   -1.4730 hc        1 TJ2      0.083222
     30 HAB        -3.3530   -1.5090    0.8490 hc        1 TJ2      0.083222
     31 HABA       -2.0630   -1.0970    2.0550 hc        1 TJ2      0.083222
     32 HABB       -2.5750    0.1320    0.8170 hc        1 TJ2      0.083222
     33 HAC        -0.7770   -3.1650    1.3350 hc        1 TJ2      0.083222
     34 HACA       -2.1460   -3.5010    0.1940 hc        1 TJ2      0.083222
     35 HACB       -0.4440   -3.4500   -0.4280 hc        1 TJ2      0.083222
     36 HAJ        -0.0470    3.2540    0.1250 h5        1 TJ2      0.152000
     37 HAK         6.2800   -0.7780    0.0410 ha        1 TJ2      0.097000
     38 HAL         4.3950    3.7280    1.0370 ha        1 TJ2      0.085000
     39 HAM         2.9520   -3.4180    1.6730 ha        1 TJ2      0.145000
     40 HAN         4.4130    0.1170   -1.3380 ha        1 TJ2      0.089000
     41 HAO         2.4450    3.9290    1.6970 ho        1 TJ2      0.270000
     42 HAP         3.6350   -1.0990    0.9510 ha        1 TJ2      0.187000
     43 HAQ         2.9370   -0.3680    4.5780 h4        1 TJ2      0.194000
     44 HAR         3.0560    1.9330   -2.0010 h1        1 TJ2      0.090000
     45 HARA        3.2800    3.5770   -1.2420 h1        1 TJ2      0.090000
     46 HNAS        0.6480   -1.2900    0.6610 hn        1 TJ2      0.234000
     47 HNAT        1.7880    1.8770    4.8680 hn        1 TJ2      0.263000
     48 CLAI        0.8730   -4.2830    3.3490 cl        1 TJ2     -0.008000
     49 CAU         0.9190    3.3300    2.7190 c2        1 TJ2      0.368000
     50 CLAH        7.5610    0.2910    2.3330 cl        1 TJ2     -0.139000
     51 CAA        -1.9040   -1.3500   -1.4060 c3        1 TJ2     -0.226333
     52 CAB        -2.3960   -0.9550    1.0000 c3        1 TJ2     -0.226333
     53 CAC        -1.1570   -2.9940    0.2990 c3        1 TJ2     -0.226333
     54 OAD         1.0960    4.4020   -1.1660 o         1 TJ2     -0.377000
@<TRIPOS>BOND
     1    1    3 1   
     2    1    4 1   
     3    1   16 1   
     4    2    4 1   
     5    2    7 1   
     6    2   15 1   
     7    4   22 1   
     8    4   26 1   
     9    5   41 1   
    10    5   49 1   
    11    6   49 1   
    12    7   36 1   
    13    7   54 1   
    14    8   11 1   
    15    8   18 1   
    16    8   37 1   
    17    9   12 1   
    18    9   18 1   
    19   10   13 1   
    20   10   19 1   
    21   10   39 1   
    22   11   20 1   
    23   11   40 1   
    24   12   20 1   
    25   12   38 1   
    26   13   24 1   
    27   13   42 1   
    28   14   19 1   
    29   15   20 1   
    30   15   44 1   
    31   15   45 1   
    32   16   25 1   
    33   16   46 1   
    34   17   21 1   
    35   17   23 1   
    36   17   47 1   
    37   18   50 1   
    38   19   48 1   
    39   21   22 1   
    40   21   49 1   
    41   22   24 1   
    42   23   24 1   
    43   23   43 1   
    44   25   51 1   
    45   25   52 1   
    46   25   53 1   
    47   27   51 1   
    48   28   51 1   
    49   29   51 1   
    50   30   52 1   
    51   31   52 1   
    52   32   52 1   
    53   33   53 1   
    54   34   53 1   
    55   35   53 1   
@<TRIPOS>SUBSTRUCTURE
     1 TJ2         1 TEMP              0 ****  ****    0 ROOT
