@<TRIPOS>MOLECULE
TJ2
   54    56     1     0     0
SMALL
bcc


@<TRIPOS>ATOM
      1 C           2.8310    0.6500    0.8570 c         1 TJ2      0.651100
      2 N           0.7060    1.9460    0.6960 n         1 TJ2     -0.483800
      3 O           3.4480    0.8500    1.9290 o         1 TJ2     -0.657100
      4 CA          1.2720    0.6280    0.9060 c3        1 TJ2      0.142900
      5 OAE         1.6600    0.9820   -2.6060 o         1 TJ2     -0.801800
      6 OAG        -0.5180    0.7180   -3.0650 o         1 TJ2     -0.801800
      7 CAJ         1.1530    2.8180   -0.2900 c         1 TJ2      0.658900
      8 CAK        -4.0250    1.4300    1.9370 ca        1 TJ2     -0.126500
      9 CAL        -3.4640    1.2800   -0.4200 ca        1 TJ2     -0.126500
     10 CAM        -0.0040   -3.6040    2.1700 ca        1 TJ2     -0.158000
     11 CAN        -2.7080    1.7820    2.2180 ca        1 TJ2     -0.109500
     12 CAO        -2.1470    1.6360   -0.1280 ca        1 TJ2     -0.109500
     13 CAP         0.4440   -2.3080    1.9500 ca        1 TJ2     -0.090000
     14 CAQ        -0.6400   -3.8710   -0.1820 ca        1 TJ2     -0.136000
     15 CAR        -0.3750    2.3460    1.5640 c3        1 TJ2      0.135300
     16 NAS         3.4430    0.4000   -0.3360 n         1 TJ2     -0.549900
     17 NAT        -0.1290   -1.8070   -1.5740 na        1 TJ2     -0.166400
     18 CAW        -4.3980    1.1820    0.6130 ca        1 TJ2      0.008400
     19 CAX        -0.5370   -4.3650    1.1140 ca        1 TJ2      0.017400
     20 CAY        -1.7600    1.8930    1.1910 ca        1 TJ2     -0.090300
     21 CAZ         0.3970   -0.5460   -1.2760 cc        1 TJ2     -0.046300
     22 CBA         0.7180   -0.4810    0.0870 cd        1 TJ2     -0.217400
     23 CBB        -0.1900   -2.5630   -0.4050 ca        1 TJ2     -0.054200
     24 CBC         0.3590   -1.7600    0.6700 ca        1 TJ2     -0.064800
     25 CBF         4.8870    0.4340   -0.5370 c3        1 TJ2      0.130400
     26 HA          1.0540    0.3570    1.9920 h1        1 TJ2      0.074700
     27 HAA         5.4280   -0.4030    1.4140 hc        1 TJ2      0.041367
     28 HAAA        5.2500   -1.6380    0.0930 hc        1 TJ2      0.041367
     29 HAAB        6.7060   -0.5570    0.1300 hc        1 TJ2      0.041367
     30 HAB         6.5850    1.7880   -0.3580 hc        1 TJ2      0.041367
     31 HABA        5.0440    2.6000   -0.8620 hc        1 TJ2      0.041367
     32 HABB        5.2720    2.0750    0.8640 hc        1 TJ2      0.041367
     33 HAC         4.9080   -0.9120   -2.2720 hc        1 TJ2      0.041367
     34 HACA        4.6790    0.8380   -2.6900 hc        1 TJ2      0.041367
     35 HACB        6.3120    0.2320   -2.1670 hc        1 TJ2      0.041367
     36 HAJ         1.8710    2.3890   -1.0310 h5        1 TJ2      0.099200
     37 HAK        -4.7610    1.3450    2.7490 ha        1 TJ2      0.142500
     38 HAL        -3.7520    1.0760   -1.4630 ha        1 TJ2      0.142500
     39 HAM         0.0590   -4.0420    3.1760 ha        1 TJ2      0.131000
     40 HAN        -2.4110    1.9740    3.2600 ha        1 TJ2      0.155000
     41 HAO        -1.4170    1.6950   -0.9600 ha        1 TJ2      0.155000
     42 HAP         0.8670   -1.7210    2.7780 ha        1 TJ2      0.136000
     43 HAQ        -1.0580   -4.4770   -0.9970 ha        1 TJ2      0.138000
     44 HAR        -0.1520    1.9890    2.6120 h1        1 TJ2      0.062200
     45 HARA       -0.3980    3.4790    1.5860 h1        1 TJ2      0.062200
     46 HNAS        2.8780    0.3120   -1.1640 hn        1 TJ2      0.369500
     47 HNAT       -0.5720   -2.0250   -2.4290 hn        1 TJ2      0.308700
     48 CLAI       -1.0770   -5.9560    1.4390 cl        1 TJ2     -0.139400
     49 CAU         0.5210    0.4760   -2.4030 c         1 TJ2      0.921800
     50 CLAH       -6.0130    0.7530    0.2620 cl        1 TJ2     -0.132400
     51 CAA         5.6100   -0.6100    0.3320 c3        1 TJ2     -0.107433
     52 CAB         5.4820    1.8140   -0.2020 c3        1 TJ2     -0.107433
     53 CAC         5.2130    0.1290   -2.0110 c3        1 TJ2     -0.107433
     54 OAD         0.7590    3.9980   -0.3320 o         1 TJ2     -0.629100
@<TRIPOS>BOND
     1    1    3 2   
     2    1    4 1   
     3    1   16 1   
     4    2    4 1   
     5    2    7 1   
     6    2   15 1   
     7    4   22 1   
     8    4   26 1   
     9    5   49 1   
    10    6   49 1   
    11    7   36 1   
    12    7   54 2   
    13    8   11 ar  
    14    8   18 ar  
    15    8   37 1   
    16    9   12 ar  
    17    9   18 ar  
    18    9   38 1   
    19   10   13 ar  
    20   10   19 ar  
    21   10   39 1   
    22   11   20 ar  
    23   11   40 1   
    24   12   20 ar  
    25   12   41 1   
    26   13   24 ar  
    27   13   42 1   
    28   14   19 ar  
    29   14   23 ar  
    30   14   43 1   
    31   15   20 1   
    32   15   44 1   
    33   15   45 1   
    34   16   25 1   
    35   16   46 1   
    36   17   21 1   
    37   17   23 1   
    38   17   47 1   
    39   18   50 1   
    40   19   48 1   
    41   21   22 2   
    42   21   49 1   
    43   22   24 1   
    44   23   24 ar  
    45   25   51 1   
    46   25   52 1   
    47   25   53 1   
    48   27   51 1   
    49   28   51 1   
    50   29   51 1   
    51   30   52 1   
    52   31   52 1   
    53   32   52 1   
    54   33   53 1   
    55   34   53 1   
    56   35   53 1   
@<TRIPOS>SUBSTRUCTURE
     1 TJ2         1 TEMP              0 ****  ****    0 ROOT
