@<TRIPOS>MOLECULE
TJ2
   56    57     1     0     0
SMALL
bcc


@<TRIPOS>ATOM
      1 C           1.1710   -0.2500    0.2790 c2        1 TJ2      0.230000
      2 N           3.5970    0.3320    0.2510 n         1 TJ2     -0.354000
      3 O           1.1200   -0.5320   -0.9120 o         1 TJ2     -0.197000
      4 CA          2.4700    0.0160    1.0850 c3        1 TJ2      0.091000
      5 OAE         2.0570    0.1550    5.5560 oh        1 TJ2     -0.236000
      6 OAG         1.0830    0.6170    3.6700 o         1 TJ2     -0.380000
      7 CAJ         3.9940   -0.5100   -0.7920 c2        1 TJ2      0.267000
      8 CAK         2.6430    4.3120   -1.6520 ca        1 TJ2     -0.126000
      9 CAL         2.1130    4.7400    0.6800 ca        1 TJ2     -0.126000
     10 CAM         1.6760   -4.1150    0.3820 c2        1 TJ2     -0.083000
     11 CAN         3.3520    3.1730   -1.2770 ca        1 TJ2     -0.111000
     12 CAO         2.8210    3.5970    1.0450 ca        1 TJ2     -0.111000
     13 CAP         2.7250   -3.3560    0.7250 c2        1 TJ2     -0.123000
     14 CAQ        -0.2130   -2.9350    1.2700 c1        1 TJ2      0.118000
     15 CAR         4.2510    1.6110    0.4670 c3        1 TJ2      0.005000
     16 NAS        -0.0940   -0.1890    1.0590 n4        1 TJ2     -0.151000
     17 NAT         3.3060   -2.1220    4.1280 n2        1 TJ2     -0.126000
     18 CAW         2.0210    5.0930   -0.6710 ca        1 TJ2     -0.052000
     19 CAX         0.3720   -4.1010    1.0550 c2        1 TJ2     -0.269000
     20 CAY         3.4410    2.8090    0.0710 ca        1 TJ2     -0.138000
     21 CAZ         3.0560   -0.8120    3.4920 c3        1 TJ2     -0.121000
     22 CBA         2.7080   -1.1260    2.0240 c2        1 TJ2     -0.160000
     23 CBB         3.1840   -3.0390    3.2120 c2        1 TJ2     -0.032000
     24 CBC         2.8150   -2.4760    1.8660 c2        1 TJ2     -0.071000
     25 CBF        -1.2350    0.5920    0.4120 c3        1 TJ2      0.007000
     26 HA          2.2570    0.9450    1.7180 h1        1 TJ2      0.167000
     27 HAA        -0.2650    2.5460    0.6800 hc        1 TJ2      0.113000
     28 HAAA        0.0020    1.7810   -0.9550 hc        1 TJ2      0.113000
     29 HAAB       -1.6060    2.4980   -0.5350 hc        1 TJ2      0.113000
     30 HAB        -2.7180    0.3690   -1.1430 hc        1 TJ2      0.113000
     31 HABA       -1.1260   -0.3990   -1.5470 hc        1 TJ2      0.113000
     32 HABB       -2.2520   -1.1960   -0.3570 hc        1 TJ2      0.113000
     33 HAC        -2.7080   -0.1060    1.8920 hc        1 TJ2      0.113000
     34 HACA       -1.8920    1.4640    2.3260 hc        1 TJ2      0.113000
     35 HACB       -3.1410    1.4180    1.0150 hc        1 TJ2      0.113000
     36 HAJ         3.3920   -1.4440   -0.8770 h5        1 TJ2      0.132000
     37 HAK         2.5840    4.6010   -2.7130 ha        1 TJ2      0.161000
     38 HAL         1.6410    5.3670    1.4530 ha        1 TJ2      0.161000
     39 HAM         1.7370   -4.8210   -0.4700 ha        1 TJ2      0.187000
     40 HAN         3.8570    2.5630   -2.0440 ha        1 TJ2      0.145000
     41 HAO         2.9090    3.3340    2.1110 ha        1 TJ2      0.145000
     42 HAP         3.6670   -3.4420    0.1430 ha        1 TJ2      0.180000
     43 HAQ         3.3460   -4.1110    3.3920 h4        1 TJ2      0.211000
     44 HAR         5.2110    1.6030   -0.1340 h1        1 TJ2      0.122000
     45 HARA        4.5270    1.6850    1.5590 h1        1 TJ2      0.122000
     46 HNAS        0.0910    0.2390    1.9760 hn        1 TJ2      0.290000
     47 HNAT        4.0250   -0.2230    3.5140 h1        1 TJ2      0.188000
     48 CAU         2.0070    0.0030    4.2180 c2        1 TJ2      0.356000
     49 CLAH        1.1560    6.4800   -1.1200 cl        1 TJ2      0.018000
     50 CAA        -0.7330    1.9310   -0.1270 c3        1 TJ2     -0.245000
     51 CAB        -1.8610   -0.2170   -0.7250 c3        1 TJ2     -0.245000
     52 CAC        -2.3000    0.8510    1.4860 c3        1 TJ2     -0.245000
     53 OAD         4.9360   -0.2280   -1.5380 o         1 TJ2     -0.294000
     54 H           2.7730   -0.3710    5.9510 ho        1 TJ2      0.269000
     55 HAS2       -0.4230   -1.2010    1.2140 hn        1 TJ2      0.290000
     56 CLAI       -0.3080   -5.5900    1.4620 cl        1 TJ2      0.113000
@<TRIPOS>BOND
     1    1    3 1   
     2    1    4 1   
     3    1   16 1   
     4    2    4 1   
     5    2    7 1   
     6    2   15 1   
     7    4   22 1   
     8    4   26 1   
     9    5   48 1   
    10    5   54 1   
    11    6   48 1   
    12    7   36 1   
    13    7   53 1   
    14    8   11 1   
    15    8   18 1   
    16    8   37 1   
    17    9   12 1   
    18    9   18 1   
    19    9   38 1   
    20   10   13 1   
    21   10   19 1   
    22   10   39 1   
    23   11   20 1   
    24   11   40 1   
    25   12   20 1   
    26   12   41 1   
    27   13   24 1   
    28   13   42 1   
    29   14   19 1   
    30   15   20 1   
    31   15   44 1   
    32   15   45 1   
    33   16   25 1   
    34   16   46 1   
    35   16   55 1   
    36   17   21 1   
    37   17   23 1   
    38   18   49 1   
    39   19   56 1   
    40   21   22 1   
    41   21   47 1   
    42   21   48 1   
    43   22   24 1   
    44   23   24 1   
    45   23   43 1   
    46   25   50 1   
    47   25   51 1   
    48   25   52 1   
    49   27   50 1   
    50   28   50 1   
    51   29   50 1   
    52   30   51 1   
    53   31   51 1   
    54   32   51 1   
    55   33   52 1   
    56   34   52 1   
    57   35   52 1   
@<TRIPOS>SUBSTRUCTURE
     1 TJ2         1 TEMP              0 ****  ****    0 ROOT
