@<TRIPOS>MOLECULE
TJ2
   56    57     1     0     0
SMALL
bcc


@<TRIPOS>ATOM
      1 C          -0.5520    0.5240   -0.3860 c2        1 TJ2      0.264000
      2 N           1.7760    0.6670   -1.2840 n         1 TJ2     -0.201000
      3 O          -1.3000    1.1140   -1.1530 o         1 TJ2     -0.203000
      4 CA          0.9080    0.9400   -0.1170 c3        1 TJ2      0.037000
      5 OAE         1.5950    3.4050    3.4220 oh        1 TJ2     -0.274000
      6 OAG         2.0540    3.4090    1.3000 o         1 TJ2     -0.405000
      7 CAJ         1.4930   -0.4300   -2.1520 c2        1 TJ2      0.310000
      8 CAK         5.0990    2.1460    1.2850 c2        1 TJ2     -0.218000
      9 CAL         7.5520    2.1340    1.1320 c2        1 TJ2     -0.218000
     10 CAM         1.9130   -3.3190    1.6750 ca        1 TJ2     -0.110000
     11 CAN         5.0640    3.4230    0.7880 c2        1 TJ2      0.040500
     12 CAO         7.5380    3.4050    0.6350 c2        1 TJ2      0.040500
     13 CAP         1.5930   -2.1910    0.9510 ca        1 TJ2     -0.175000
     14 CAQ         2.4380   -2.0060    3.6750 ca        1 TJ2     -0.067000
     15 CAR         2.8680    1.3700   -1.5190 c1        1 TJ2     -0.094000
     16 NAS        -1.0580   -0.6560    0.3810 ny        1 TJ2     -0.099000
     17 NAT         2.1840    0.4880    3.3630 n2        1 TJ2     -0.159000
     18 CAW         6.3330    1.4780    1.4680 c2        1 TJ2      0.157000
     19 CAX         2.3210   -3.2210    3.0300 ca        1 TJ2     -0.096000
     20 CAY         6.2880    4.1470    0.4260 c3        1 TJ2     -0.223000
     21 CAZ         1.7840    1.2300    2.2860 c2        1 TJ2     -0.170000
     22 CBA         1.4260    0.4150    1.1540 c2        1 TJ2     -0.340000
     23 CBB         2.1250   -0.8330    2.9500 ca        1 TJ2     -0.078000
     24 CBC         1.6760   -0.9290    1.5650 ca        1 TJ2     -0.111000
     25 CBF        -2.5640   -0.8110    0.5390 c3        1 TJ2      0.001000
     26 HA          0.8460    2.0800   -0.0360 h1        1 TJ2      0.174000
     27 HAA        -2.3850   -1.7770    2.5130 hc        1 TJ2      0.112000
     28 HAAA       -3.9260   -2.1010    1.6200 hc        1 TJ2      0.112000
     29 HAAB       -2.4030   -2.9340    1.1050 hc        1 TJ2      0.112000
     30 HAB        -4.2690    0.2800    1.2900 hc        1 TJ2      0.112000
     31 HABA       -3.0670    1.3240    0.4270 hc        1 TJ2      0.112000
     32 HABB       -2.7150    0.7170    2.1110 hc        1 TJ2      0.112000
     33 HAC        -2.7810   -2.0510   -1.2610 hc        1 TJ2      0.112000
     34 HACA       -3.1100   -0.2790   -1.5210 hc        1 TJ2      0.112000
     35 HACB       -4.3100   -1.3080   -0.6320 hc        1 TJ2      0.112000
     36 HAJ         2.2320   -0.5560   -2.9780 h5        1 TJ2      0.205000
     37 HAK         4.0890    3.9440    0.6550 ha        1 TJ2      0.201500
     38 HAL         8.5080    1.5970    1.2820 ha        1 TJ2      0.207500
     39 HAM         1.8630   -4.3130    1.2040 ha        1 TJ2      0.147000
     40 HAN         1.4330    2.8130    4.1740 ho        1 TJ2      0.260000
     41 HAO         8.4810    3.9200    0.3710 ha        1 TJ2      0.201500
     42 HAP         1.3250   -2.2790   -0.1130 ha        1 TJ2      0.120000
     43 HAQ         2.7620   -1.9360    4.7250 ha        1 TJ2      0.160000
     44 HAR         6.3270    5.1250    1.0080 hc        1 TJ2      0.211500
     45 HARA        3.0770    2.2050   -0.8130 ha        1 TJ2      0.061000
     46 HNAS       -0.6380   -0.6240    1.3270 hn        1 TJ2      0.275500
     47 HNAT        4.1490    1.6300    1.5510 ha        1 TJ2      0.207500
     48 CAU         1.8080    2.6940    2.2870 c2        1 TJ2      0.384000
     49 ClAH        6.3640   -0.0660    2.0730 cl        1 TJ2      0.176000
     50 CAA        -2.8210   -1.9780    1.5040 c3        1 TJ2     -0.243333
     51 CAB        -3.1780    0.4600    1.1280 c3        1 TJ2     -0.243333
     52 CAC        -3.2200   -1.1310   -0.8050 c3        1 TJ2     -0.243333
     53 OAD         0.4980   -1.1420   -1.9690 o         1 TJ2     -0.355000
     54 H           6.2190    4.4710   -0.6640 hc        1 TJ2      0.211500
     55 HAS2       -0.6930   -1.4950   -0.0990 hn        1 TJ2      0.275500
     56 ClAI        2.6840   -4.6580    3.8660 cl        1 TJ2     -0.010000
@<TRIPOS>BOND
     1    1    3 1   
     2    1    4 1   
     3    1   16 1   
     4    2    4 1   
     5    2    7 1   
     6    2   15 1   
     7    4   22 1   
     8    4   26 1   
     9    5   40 1   
    10    5   48 1   
    11    6   48 1   
    12    7   36 1   
    13    7   53 1   
    14    8   11 1   
    15    8   18 1   
    16    8   47 1   
    17    9   12 1   
    18    9   18 1   
    19    9   38 1   
    20   10   13 1   
    21   10   19 1   
    22   10   39 1   
    23   11   20 1   
    24   11   37 1   
    25   12   20 1   
    26   12   41 1   
    27   13   24 1   
    28   13   42 1   
    29   14   19 1   
    30   14   23 1   
    31   14   43 1   
    32   15   45 1   
    33   16   25 1   
    34   16   46 1   
    35   16   55 1   
    36   17   21 1   
    37   17   23 1   
    38   18   49 1   
    39   19   56 1   
    40   20   44 1   
    41   20   54 1   
    42   21   22 1   
    43   21   48 1   
    44   22   24 1   
    45   23   24 1   
    46   25   50 1   
    47   25   51 1   
    48   25   52 1   
    49   27   50 1   
    50   28   50 1   
    51   29   50 1   
    52   30   51 1   
    53   31   51 1   
    54   32   51 1   
    55   33   52 1   
    56   34   52 1   
    57   35   52 1   
@<TRIPOS>SUBSTRUCTURE
     1 TJ2         1 TEMP              0 ****  ****    0 ROOT
