@<TRIPOS>MOLECULE
TJF
   52    53     1     0     0
SMALL
bcc


@<TRIPOS>ATOM
      1 C01        -0.0350   -0.5880    0.2510 c3        1 TJF     -0.096000
      2 N02         1.2140    0.1130    0.3590 nh        1 TJF     -0.256000
      3 C03         1.8780    0.1590    1.5730 c2        1 TJF     -0.123000
      4 N04         1.3620   -0.2310    2.7670 n2        1 TJF     -0.197000
      5 C05         2.2480    0.0650    3.7870 c2        1 TJF      0.056000
      6 C06         1.8810   -0.2650    5.1860 c3        1 TJF     -0.157000
      7 C07         3.4530    0.6630    3.3770 c2        1 TJF     -0.445000
      8 C08         4.5750    1.0750    4.1880 c2        1 TJF      0.216000
      9 N09         4.5280    0.8870    5.5290 n2        1 TJF     -0.246000
     10 C10         5.6170    1.3070    6.2820 c2        1 TJF      0.186000
     11 C11         7.9150    0.2580   10.3330 ca        1 TJF     -0.109000
     12 N11         5.4850    1.1780    7.6720 nh        1 TJF     -0.230000
     13 C12         6.5950    1.2530    8.5480 ca        1 TJF      0.028000
     14 C13         7.3780    2.4220    8.6370 ca        1 TJF     -0.076000
     15 C14         8.4150    2.4930    9.5640 ca        1 TJF     -0.137000
     16 C15         8.6860    1.4250   10.4140 ca        1 TJF     -0.085000
     17 C19         7.2740   -7.1560   12.3230 c2        1 TJF     -0.287000
     18 O19         7.7320   -6.9940   11.0930 os        1 TJF      0.104000
     19 C20         6.0050   -6.6080   12.7910 c3        1 TJF     -0.181000
     20 N21         7.7720   -2.1520   10.9160 n2        1 TJF     -0.241000
     21 O24         8.8440   -0.6480   12.3320 o         1 TJF     -0.315000
     22 C25         8.5130   -3.1900   10.9240 c2        1 TJF     -0.039000
     23 C26         7.0820   -6.2880   10.1850 c2        1 TJF     -0.390000
     24 C27         6.8750    0.1660    9.4060 ca        1 TJF     -0.105000
     25 N28         6.7730    1.8800    5.7540 n2        1 TJF     -0.222000
     26 C29         6.7900    2.0420    4.4300 c2        1 TJF      0.047000
     27 C30         5.7250    1.6670    3.5770 c2        1 TJF     -0.209000
     28 C31         5.8550    1.8890    2.1890 c1        1 TJF     -0.077000
     29 N32         6.0430    2.1060    1.0580 n1        1 TJF     -0.039000
     30 S33         3.4550    0.8720    1.6920 ss        1 TJF      0.488000
     31 H01        -0.4420   -0.4130   -0.7800 h1        1 TJF      0.089333
     32 H01A       -0.7590   -0.1840    1.0060 h1        1 TJF      0.089333
     33 H01B        0.0750   -1.6940    0.4200 h1        1 TJF      0.089333
     34 HN02        1.8230    0.0120   -0.4270 hn        1 TJF      0.213000
     35 H06         0.8650   -0.7280    5.2520 hc        1 TJF      0.102667
     36 H06A        2.6260   -0.9840    5.6110 hc        1 TJF      0.102667
     37 H06B        1.8860    0.6680    5.8050 hc        1 TJF      0.102667
     38 HN11        4.7450    0.5810    7.9820 hn        1 TJF      0.244000
     39 H13         7.1770    3.2830    7.9810 ha        1 TJF      0.157000
     40 H14         9.0220    3.4090    9.6260 ha        1 TJF      0.143000
     41 H15         9.4950    1.4890   11.1600 ha        1 TJF      0.157000
     42 H19A        7.9650   -7.7430   12.9390 h4        1 TJF      0.180000
     43 H20         5.8310   -6.8980   13.8550 hc        1 TJF      0.089667
     44 H20A        5.1530   -6.9890   12.1680 hc        1 TJF      0.089667
     45 H25         9.5940   -3.2210   11.1610 h4        1 TJF      0.130000
     46 H25A        6.1190   -5.8230   10.3800 h4        1 TJF      0.154500
     47 H26         8.0430   -4.1630   10.6610 h4        1 TJF      0.130000
     48 H26A        7.5830   -6.2960    9.2140 h4        1 TJF      0.154500
     49 H27         6.2630   -0.7490    9.3530 ha        1 TJF      0.155000
     50 H29         7.7100    2.4980    4.0150 h4        1 TJF      0.175000
     51 C22         8.2430   -0.8550   11.2630 c2        1 TJF      0.299000
     52 H19         6.0040   -5.4880   12.7170 hc        1 TJF      0.089667
@<TRIPOS>BOND
     1    1    2 1   
     2    1   31 1   
     3    1   32 1   
     4    1   33 1   
     5    2    3 1   
     6    2   34 1   
     7    3    4 1   
     8    3   30 1   
     9    4    5 1   
    10    5    6 1   
    11    5    7 1   
    12    6   35 1   
    13    6   36 1   
    14    6   37 1   
    15    7    8 1   
    16    7   30 1   
    17    8    9 1   
    18    8   27 1   
    19    9   10 1   
    20   10   12 1   
    21   10   25 1   
    22   11   16 1   
    23   11   24 1   
    24   11   51 1   
    25   12   13 1   
    26   12   38 1   
    27   13   14 1   
    28   13   24 1   
    29   14   15 1   
    30   14   39 1   
    31   15   16 1   
    32   15   40 1   
    33   16   41 1   
    34   17   18 1   
    35   17   19 1   
    36   17   42 1   
    37   18   23 1   
    38   19   43 1   
    39   19   44 1   
    40   19   52 1   
    41   20   22 1   
    42   20   51 1   
    43   21   51 1   
    44   22   45 1   
    45   22   47 1   
    46   23   46 1   
    47   23   48 1   
    48   24   49 1   
    49   25   26 1   
    50   26   27 1   
    51   26   50 1   
    52   27   28 1   
    53   28   29 1   
@<TRIPOS>SUBSTRUCTURE
     1 TJF         1 TEMP              0 ****  ****    0 ROOT
