@<TRIPOS>MOLECULE
TJF
   54    55     1     0     0
SMALL
bcc


@<TRIPOS>ATOM
      1 C01       137.1760   81.8950 -254.2480 c3        1 TJF     -0.190000
      2 N02       137.3390   83.3530 -254.4860 n4        1 TJF      0.069000
      3 C03       138.6750   83.6940 -254.9550 c2        1 TJF     -0.485000
      4 N04       139.0880   83.3190 -256.1970 n2        1 TJF     -0.082000
      5 C05       140.3740   83.7630 -256.4020 c2        1 TJF      0.006000
      6 C06       141.0670   83.4910 -257.6850 c3        1 TJF     -0.159000
      7 C07       140.9190   84.4690 -255.2990 c2        1 TJF     -0.348000
      8 C08       142.2450   85.0730 -255.1810 c2        1 TJF      0.167000
      9 N09       143.0900   85.0070 -256.2180 n2        1 TJF     -0.254000
     10 C10       144.3590   85.6040 -256.0630 c2        1 TJF      0.209000
     11 C11       147.9370   85.2160 -259.0340 c2        1 TJF     -0.066000
     12 N11       145.2020   85.5720 -257.1320 nh        1 TJF     -0.268000
     13 C12       146.6000   86.0880 -257.1170 c3        1 TJF      0.158000
     14 C13       147.4980   85.2260 -256.2980 c2        1 TJF     -0.203000
     15 C14       148.3280   84.2940 -256.8500 c2        1 TJF     -0.083000
     16 C15       148.5150   84.2010 -258.2410 c2        1 TJF     -0.218000
     17 C19      -392.3700 -243.4100  761.3620 c3        1 TJF     -0.029000
     18 O19      -393.5090 -244.2530  761.7840 os        1 TJF     -0.061000
     19 C20      -392.3570 -243.3220  759.8360 c3        1 TJF     -0.141000
     20 N21      -393.6240 -242.8570  759.3370 n2        1 TJF     -0.294000
     21 O24       148.6070   85.3270 -261.4920 o         1 TJF     -0.011000
     22 C25      -393.7490 -242.3580  758.1680 c2        1 TJF     -0.033000
     23 C26      -394.6990 -243.7740  761.7980 c2        1 TJF      0.260000
     24 C27       147.0970   86.2000 -258.5050 c2        1 TJF     -0.350000
     25 N28       144.7720   86.2440 -254.8750 n2        1 TJF     -0.213000
     26 C29       143.8950   86.2810 -253.8830 c2        1 TJF      0.076000
     27 C30       142.5930   85.7140 -253.9550 c2        1 TJF     -0.267000
     28 C31       141.7220   85.7990 -252.8530 c1        1 TJF     -0.082000
     29 N32       141.0560   85.9090 -251.8980 n1        1 TJF     -0.043000
     30 S33       139.8170   84.5560 -254.0500 ss        1 TJF      0.769000
     31 H01       136.1360   81.7100 -253.8670 hx        1 TJF      0.151000
     32 H01A      137.3380   81.3400 -255.2120 hx        1 TJF      0.151000
     33 H01B      137.9310   81.5510 -253.4920 hx        1 TJF      0.151000
     34 HN02      136.6510   83.6570 -255.1920 hn        1 TJF      0.257500
     35 H06       141.3400   84.4600 -258.1740 hc        1 TJF      0.117667
     36 H06A      142.0050   82.9120 -257.4880 hc        1 TJF      0.117667
     37 H06B      140.4260   82.9040 -258.3880 hc        1 TJF      0.117667
     38 HN11      146.5270   87.1210 -256.6540 h1        1 TJF      0.117000
     39 H13       147.4520   85.3700 -255.2090 ha        1 TJF      0.145000
     40 H14       148.9100   83.6160 -256.2040 ha        1 TJF      0.140000
     41 H15       149.1150   83.3970 -258.6780 ha        1 TJF      0.139000
     42 H20      -391.4880 -242.6530  759.5630 h1        1 TJF      0.136500
     43 H20A     -392.1390 -244.3490  759.4160 h1        1 TJF      0.136500
     44 H25      -394.7640 -242.0410  757.8520 h4        1 TJF      0.145500
     45 H25A     -392.9420 -242.2090  757.4240 h4        1 TJF      0.145500
     46 H26      -395.4870 -244.5210  762.0590 h4        1 TJF      0.210000
     47 H26A     -394.9390 -242.7110  761.5870 h4        1 TJF      0.210000
     48 H27       146.8250   87.0910 -259.0760 ha        1 TJF      0.135000
     49 H29       144.2310   86.7900 -252.9570 h4        1 TJF      0.184000
     50 H19      -392.4630 -242.4140  761.8650 h1        1 TJF      0.157000
     51 H022      137.1650   83.8710 -253.6150 hn        1 TJF      0.257500
     52 H112      144.9140   85.0780 -257.9500 hn        1 TJF      0.236000
     53 C22       148.2960   85.2770 -260.3680 c1        1 TJF      0.448000
     54 H19A     -391.4950 -243.9990  761.7520 h1        1 TJF      0.157000
@<TRIPOS>BOND
     1    1    2 1   
     2    1   31 1   
     3    1   32 1   
     4    1   33 1   
     5    2    3 1   
     6    2   34 1   
     7    2   51 1   
     8    3    4 1   
     9    3   30 1   
    10    4    5 1   
    11    5    6 1   
    12    5    7 1   
    13    6   35 1   
    14    6   36 1   
    15    6   37 1   
    16    7    8 1   
    17    7   30 1   
    18    8    9 1   
    19    8   27 1   
    20    9   10 1   
    21   10   12 1   
    22   10   25 1   
    23   11   16 1   
    24   11   24 1   
    25   11   53 1   
    26   12   13 1   
    27   12   52 1   
    28   13   14 1   
    29   13   24 1   
    30   13   38 1   
    31   14   15 1   
    32   14   39 1   
    33   15   16 1   
    34   15   40 1   
    35   16   41 1   
    36   17   18 1   
    37   17   19 1   
    38   17   50 1   
    39   17   54 1   
    40   18   23 1   
    41   19   20 1   
    42   19   42 1   
    43   19   43 1   
    44   20   22 1   
    45   21   53 1   
    46   22   44 1   
    47   22   45 1   
    48   23   46 1   
    49   23   47 1   
    50   24   48 1   
    51   25   26 1   
    52   26   27 1   
    53   26   49 1   
    54   27   28 1   
    55   28   29 1   
@<TRIPOS>SUBSTRUCTURE
     1 TJF         1 TEMP              0 ****  ****    0 ROOT
