@<TRIPOS>MOLECULE
TJF
   52    55     1     0     0
SMALL
bcc


@<TRIPOS>ATOM
      1 C01         8.1570    2.6780    0.5780 c3        1 TJF      0.180100
      2 N02         7.3980    1.8010   -0.2690 nh        1 TJF     -0.811900
      3 C03         6.1500    1.3570    0.1360 cc        1 TJF      0.649300
      4 N04         5.4490    1.8410    1.1940 nd        1 TJF     -0.723000
      5 C05         4.1950    1.2600    1.2380 cd        1 TJF      0.480600
      6 C06         3.2510    1.6470    2.3150 c3        1 TJF     -0.133400
      7 C07         3.9380    0.3180    0.2250 cc        1 TJF     -0.349900
      8 C08         2.7400   -0.4580    0.0030 ca        1 TJF      0.652800
      9 N09         1.6460   -0.2220    0.7670 nb        1 TJF     -0.772000
     10 C10         0.5130   -0.9900    0.5330 ca        1 TJF      0.905900
     11 C11        -4.2460   -0.8060    0.9050 ca        1 TJF     -0.120600
     12 N11        -0.5650   -0.7700    1.4020 nh        1 TJF     -0.713300
     13 C12        -1.8680   -1.2500    1.1360 ca        1 TJF      0.125600
     14 C13        -2.1300   -2.6290    0.9990 ca        1 TJF     -0.088000
     15 C14        -3.4360   -3.0740    0.8160 ca        1 TJF     -0.126000
     16 C15        -4.4990   -2.1740    0.7760 ca        1 TJF     -0.095000
     17 C19        -5.4310    1.1990   -2.4490 c3        1 TJF      0.101900
     18 O19        -6.4640    2.1780   -2.4430 os        1 TJF     -0.410600
     19 C20        -4.5950    1.2470   -1.1600 c3        1 TJF      0.046500
     20 N21        -5.3950    1.2250    0.0430 n         1 TJF     -0.457800
     21 O24        -6.3300   -0.0060    1.7390 o         1 TJF     -0.589100
     22 C25        -6.5310    2.1250    0.0060 c3        1 TJF      0.046500
     23 C26        -7.3190    2.0600   -1.3100 c3        1 TJF      0.101900
     24 C27        -2.9450   -0.3370    1.0830 ca        1 TJF     -0.134000
     25 N28         0.4060   -1.9670   -0.4560 nb        1 TJF     -0.750000
     26 C29         1.5000   -2.1690   -1.1940 ca        1 TJF      0.512200
     27 C30         2.7090   -1.4550   -1.0220 ca        1 TJF     -0.342600
     28 C31         3.8040   -1.7590   -1.8600 cg        1 TJF      0.251800
     29 N32         4.6590   -2.0730   -2.5880 n1        1 TJF     -0.363800
     30 S33         5.2870    0.1750   -0.7950 ss        1 TJF     -0.097300
     31 H01         9.0790    2.9890    0.0180 h1        1 TJF      0.050367
     32 H01A        7.5480    3.5890    0.8180 h1        1 TJF      0.050367
     33 H01B        8.4610    2.1890    1.5440 h1        1 TJF      0.050367
     34 HN02        7.9350    1.1050   -0.7450 hn        1 TJF      0.418800
     35 H06         2.3430    2.1200    1.8650 hc        1 TJF      0.063367
     36 H06A        2.9390    0.7380    2.8880 hc        1 TJF      0.063367
     37 H06B        3.7120    2.3750    3.0290 hc        1 TJF      0.063367
     38 HN11       -0.5220    0.0670    1.9460 hn        1 TJF      0.450800
     39 H13        -1.3080   -3.3610    1.0380 ha        1 TJF      0.158000
     40 H14        -3.6300   -4.1530    0.7130 ha        1 TJF      0.143000
     41 H15        -5.5340   -2.5320    0.6600 ha        1 TJF      0.152000
     42 H19A       -4.7940    1.4720   -3.3300 h1        1 TJF      0.057700
     43 H20        -3.8680    0.3890   -1.1730 h1        1 TJF      0.069950
     44 H20A       -4.0070    2.2100   -1.1530 h1        1 TJF      0.069950
     45 H25        -7.2280    1.9000    0.8610 h1        1 TJF      0.069950
     46 H25A       -6.1290    3.1710    0.1340 h1        1 TJF      0.069950
     47 H26        -8.0080    2.9410   -1.3900 h1        1 TJF      0.057700
     48 H26A       -7.9040    1.1050   -1.3790 h1        1 TJF      0.057700
     49 H27        -2.7700    0.7450    1.1930 ha        1 TJF      0.146000
     50 H29         1.4110   -2.9470   -1.9780 h4        1 TJF      0.038100
     51 C22        -5.4030    0.1390    0.9170 c         1 TJF      0.665700
     52 H19        -5.8790    0.1810   -2.5970 h1        1 TJF      0.057700
@<TRIPOS>BOND
     1    1    2 1   
     2    1   31 1   
     3    1   32 1   
     4    1   33 1   
     5    2    3 1   
     6    2   34 1   
     7    3    4 2   
     8    3   30 1   
     9    4    5 1   
    10    5    6 1   
    11    5    7 2   
    12    6   35 1   
    13    6   36 1   
    14    6   37 1   
    15    7    8 1   
    16    7   30 1   
    17    8    9 ar  
    18    8   27 ar  
    19    9   10 ar  
    20   10   12 1   
    21   10   25 ar  
    22   11   16 ar  
    23   11   24 ar  
    24   11   51 1   
    25   12   13 1   
    26   12   38 1   
    27   13   14 ar  
    28   13   24 ar  
    29   14   15 ar  
    30   14   39 1   
    31   15   16 ar  
    32   15   40 1   
    33   16   41 1   
    34   17   18 1   
    35   17   19 1   
    36   17   42 1   
    37   17   52 1   
    38   18   23 1   
    39   19   20 1   
    40   19   43 1   
    41   19   44 1   
    42   20   22 1   
    43   20   51 1   
    44   21   51 2   
    45   22   23 1   
    46   22   45 1   
    47   22   46 1   
    48   23   47 1   
    49   23   48 1   
    50   24   49 1   
    51   25   26 ar  
    52   26   27 ar  
    53   26   50 1   
    54   27   28 1   
    55   28   29 3   
@<TRIPOS>SUBSTRUCTURE
     1 TJF         1 TEMP              0 ****  ****    0 ROOT
