@<TRIPOS>MOLECULE
TJF
   52    55     1     0     0
SMALL
bcc


@<TRIPOS>ATOM
      1 C01        -0.0290   -0.3560    0.0060 c3        1 TJF      0.180100
      2 N02         1.3790   -0.5830    0.1810 nu        1 TJF     -0.811900
      3 C03         1.9870   -0.2610    1.3840 cc        1 TJF      0.649300
      4 N04         1.3370    0.0670    2.5300 nd        1 TJF     -0.723000
      5 C05         2.2430    0.2070    3.5660 cd        1 TJF      0.480600
      6 C06         1.7500    0.5600    4.9200 c3        1 TJF     -0.133400
      7 C07         3.5900    0.0060    3.2130 cc        1 TJF     -0.349900
      8 C08         4.7610    0.0850    4.0540 ca        1 TJF      0.652800
      9 N09         4.6080    0.2720    5.3870 nb        1 TJF     -0.772000
     10 C10         5.7540    0.3520    6.1670 ca        1 TJF      0.905900
     11 C11         7.2940   -0.4830   10.6110 ca        1 TJF     -0.120600
     12 N11         5.5510    0.6310    7.5250 nu        1 TJF     -0.713300
     13 C12         6.5660    0.4680    8.4970 ca        1 TJF      0.125600
     14 C13         7.7740    1.1920    8.4260 ca        1 TJF     -0.088000
     15 C14         8.7190    1.0680    9.4400 ca        1 TJF     -0.126000
     16 C15         8.4870    0.2420   10.5380 ca        1 TJF     -0.095000
     17 C19         8.0510   -4.4950   10.6660 c3        1 TJF      0.101900
     18 O19         7.7230   -5.3310   11.7700 os        1 TJF     -0.410600
     19 C20         6.9980   -3.3970   10.4520 c3        1 TJF      0.046500
     20 N21         6.6880   -2.6580   11.6550 n         1 TJF     -0.457800
     21 O24         7.0730   -0.8110   12.9600 o         1 TJF     -0.589100
     22 C25         6.4820   -3.4970   12.8190 c3        1 TJF      0.046500
     23 C26         7.5430   -4.5950   12.9760 c3        1 TJF      0.101900
     24 C27         6.3360   -0.3790    9.6040 ca        1 TJF     -0.134000
     25 N28         7.0550    0.2210    5.6820 nb        1 TJF     -0.750000
     26 C29         7.1690    0.0310    4.3660 ca        1 TJF      0.512200
     27 C30         6.0660   -0.0440    3.4830 ca        1 TJF     -0.342600
     28 C31         6.3080   -0.2420    2.1060 cg        1 TJF      0.251800
     29 N32         6.5940   -0.4030    0.9870 n1        1 TJF     -0.363800
     30 S33         3.7080   -0.3760    1.5620 ss        1 TJF     -0.097300
     31 H01        -0.3260   -0.7760   -0.9910 h1        1 TJF      0.050367
     32 H01A       -0.5980   -0.8890    0.8140 h1        1 TJF      0.050367
     33 H01B       -0.2980    0.7340    0.0420 h1        1 TJF      0.050367
     34 HN02        1.9410   -0.3780   -0.6190 hn        1 TJF      0.418800
     35 H06         0.6430    0.7190    4.9310 hc        1 TJF      0.063033
     36 H06A        2.2470    1.4990    5.2700 hc        1 TJF      0.063033
     37 H06B        1.9950   -0.2660    5.6340 hc        1 TJF      0.063033
     38 HN11        4.6170    0.5090    7.8610 hn        1 TJF      0.450800
     39 H13         7.9770    1.8600    7.5740 ha        1 TJF      0.158000
     40 H14         9.6580    1.6390    9.3760 ha        1 TJF      0.143000
     41 H15         9.2250    0.1680   11.3510 ha        1 TJF      0.152000
     42 H19A        9.0680   -4.0490   10.8230 h1        1 TJF      0.057700
     43 H20         6.0420   -3.8830   10.1020 h1        1 TJF      0.069950
     44 H20A        7.3600   -2.7060    9.6410 h1        1 TJF      0.069950
     45 H25         5.4720   -3.9860   12.7010 h1        1 TJF      0.069950
     46 H25A        6.4690   -2.8650   13.7510 h1        1 TJF      0.069950
     47 H26         8.5250   -4.1590   13.2980 h1        1 TJF      0.057700
     48 H26A        7.1990   -5.3600   13.7190 h1        1 TJF      0.057700
     49 H27         5.3980   -0.9520    9.6880 ha        1 TJF      0.146000
     50 H29         8.2040   -0.0710    3.9850 h4        1 TJF      0.038100
     51 C22         7.0370   -1.3190   11.8220 c         1 TJF      0.665700
     52 H19         8.0660   -5.1890    9.7860 h1        1 TJF      0.057700
@<TRIPOS>BOND
     1    1    2 1   
     2    1   31 1   
     3    1   32 1   
     4    1   33 1   
     5    2    3 1   
     6    2   34 1   
     7    3    4 2   
     8    3   30 1   
     9    4    5 1   
    10    5    6 1   
    11    5    7 2   
    12    6   35 1   
    13    6   36 1   
    14    6   37 1   
    15    7    8 1   
    16    7   30 1   
    17    8    9 ar  
    18    8   27 ar  
    19    9   10 ar  
    20   10   12 1   
    21   10   25 ar  
    22   11   16 ar  
    23   11   24 ar  
    24   11   51 1   
    25   12   13 1   
    26   12   38 1   
    27   13   14 ar  
    28   13   24 ar  
    29   14   15 ar  
    30   14   39 1   
    31   15   16 ar  
    32   15   40 1   
    33   16   41 1   
    34   17   18 1   
    35   17   19 1   
    36   17   42 1   
    37   17   52 1   
    38   18   23 1   
    39   19   20 1   
    40   19   43 1   
    41   19   44 1   
    42   20   22 1   
    43   20   51 1   
    44   21   51 2   
    45   22   23 1   
    46   22   45 1   
    47   22   46 1   
    48   23   47 1   
    49   23   48 1   
    50   24   49 1   
    51   25   26 ar  
    52   26   27 ar  
    53   26   50 1   
    54   27   28 1   
    55   28   29 3   
@<TRIPOS>SUBSTRUCTURE
     1 TJF         1 TEMP              0 ****  ****    0 ROOT
