@<TRIPOS>MOLECULE
TJF
   52    49     1     0     0
SMALL
bcc


@<TRIPOS>ATOM
      1 C01        -5.9210   -3.7780   -6.2780 c3        1 TJF     -0.096000
      2 N02        -4.4820   -3.8560   -6.2080 n3        1 TJF     -0.256000
      3 C03        -3.7380   -2.7840   -5.6290 c2        1 TJF     -0.122000
      4 N04        -4.1900   -1.4280   -5.4800 n2        1 TJF     -0.197000
      5 C05        -3.0930   -0.6230   -4.7020 c1        1 TJF      0.057000
      6 C06        -3.1940    0.8610   -4.2670 c2        1 TJF     -0.157000
      7 C07        -1.9980   -1.5230   -4.3980 c1        1 TJF     -0.446000
      8 C08        -0.7120   -1.1580   -3.6350 c1        1 TJF      0.216000
      9 N09        -0.7070   -1.1570   -2.2830 n2        1 TJF     -0.244000
     10 C10         0.4650   -0.8950   -1.5950 c1        1 TJF      0.184000
     11 C11         1.7120    0.4400    2.9730 c1        1 TJF     -0.097000
     12 N11         1.1540   -1.1700   -0.3600 n2        1 TJF     -0.228000
     13 C12         1.1980   -0.1780    0.6780 c2        1 TJF      0.044000
     14 C13         0.7720    1.1170    0.4200 c1        1 TJF     -0.089000
     15 C14         0.8120    2.0890    1.4380 c1        1 TJF     -0.117000
     16 C15         1.2810    1.7500    2.7100 c1        1 TJF     -0.117000
     17 C19         3.6030    1.8150    7.3190 c3        1 TJF     -0.038000
     18 O19         3.7140    2.7930    6.4380 os        1 TJF     -0.271000
     19 C20         2.4860    0.8660    6.9350 c3        1 TJF     -0.062000
     20 N21         2.0870    1.0030    5.4610 n         1 TJF     -0.320000
     21 C22         2.1340    0.0400    4.3970 c2        1 TJF      0.345000
     22 O24         2.5430   -1.0850    4.6160 o         1 TJF     -0.349000
     23 C25         1.6240    2.4600    5.4550 c3        1 TJF     -0.062000
     24 C26         2.7410    3.4230    5.8320 c3        1 TJF     -0.038000
     25 C27         1.6720   -0.5230    1.9620 c2        1 TJF     -0.123000
     26 N28         1.6210   -0.6360   -2.2830 n2        1 TJF     -0.219000
     27 C29         1.6180   -0.6360   -3.6420 c1        1 TJF      0.047000
     28 C30         0.4520   -0.8970   -4.3280 c1        1 TJF     -0.206000
     29 C31         0.4430   -0.8700   -5.8640 c1        1 TJF     -0.078000
     30 N32         0.4350   -0.8510   -6.9980 n1        1 TJF     -0.038000
     31 S33        -2.3510   -2.8990   -4.9600 ss        1 TJF      0.487000
     32 H01        -6.2720   -3.3930   -5.4380 h1        1 TJF      0.089667
     33 H01A       -6.1820   -3.2050   -7.0360 h1        1 TJF      0.089667
     34 H01B       -6.2920   -4.6790   -6.4060 h1        1 TJF      0.089667
     35 HN02       -4.0410   -4.5680   -6.5900 hn        1 TJF      0.213000
     36 H06        -3.6320    1.3860   -4.9820 ha        1 TJF      0.102333
     37 H06A       -2.2920    1.2160   -4.1050 ha        1 TJF      0.102333
     38 H06B       -3.7240    0.9260   -3.4410 ha        1 TJF      0.102333
     39 HN11        1.5620   -1.9820   -0.2340 hn        1 TJF      0.242000
     40 H13         0.4550    1.3460   -0.4390 ha        1 TJF      0.159000
     41 H14         0.5160    2.9880    1.2580 ha        1 TJF      0.143000
     42 H15         1.3070    2.4080    3.3970 ha        1 TJF      0.143000
     43 H19         4.4590    1.3120    7.3580 h1        1 TJF      0.095250
     44 H19A        3.4120    2.2000    8.2080 h1        1 TJF      0.095250
     45 H20         1.7130    1.0510    7.4880 h1        1 TJF      0.102000
     46 H20A        2.7850   -0.0690    7.1020 h1        1 TJF      0.102000
     47 H25         0.8900    2.5610    6.0910 h1        1 TJF      0.102000
     48 H25A        1.3020    2.6850    4.5630 h1        1 TJF      0.102000
     49 H26         2.3750    4.1290    6.4430 h1        1 TJF      0.095250
     50 H26A        3.0890    3.8500    5.0180 h1        1 TJF      0.095250
     51 H27         1.9660   -1.4160    2.1400 ha        1 TJF      0.150000
     52 H29         2.4210   -0.4560   -4.1180 ha        1 TJF      0.176000
@<TRIPOS>BOND
     1    1    2 1   
     2    1   32 1   
     3    1   33 1   
     4    1   34 1   
     5    2    3 1   
     6    2   35 1   
     7    3    4 1   
     8    3   31 1   
     9    4    5 1   
    10    5    7 1   
    11    6   36 1   
    12    6   37 1   
    13    6   38 1   
    14    7   31 1   
    15    8    9 1   
    16    8   28 1   
    17    9   10 1   
    18   10   26 1   
    19   11   21 1   
    20   11   25 1   
    21   12   13 1   
    22   12   39 1   
    23   13   14 1   
    24   13   25 1   
    25   14   40 1   
    26   15   16 1   
    27   15   41 1   
    28   16   42 1   
    29   17   18 1   
    30   17   19 1   
    31   17   43 1   
    32   17   44 1   
    33   18   24 1   
    34   19   20 1   
    35   19   45 1   
    36   19   46 1   
    37   20   21 1   
    38   20   23 1   
    39   21   22 1   
    40   23   24 1   
    41   23   47 1   
    42   23   48 1   
    43   24   49 1   
    44   24   50 1   
    45   25   51 1   
    46   26   27 1   
    47   27   52 1   
    48   28   29 1   
    49   29   30 1   
@<TRIPOS>SUBSTRUCTURE
     1 TJF         1 TEMP              0 ****  ****    0 ROOT
