@<TRIPOS>MOLECULE
TJH
   55    59     1     0     0
SMALL
bcc


@<TRIPOS>ATOM
      1 OAB         0.7550    1.5660   -0.1190 o         1 TJH     -0.514100
      2 CBB         1.5000    0.5820   -0.0430 c         1 TJH      0.597900
      3 CBE         2.4040    0.3100    1.0800 ca        1 TJH     -0.113600
      4 CAH         2.4490    1.2330    2.1220 ca        1 TJH     -0.087000
      5 CAE         3.2980    1.0160    3.2210 ca        1 TJH     -0.060000
      6 CAF         4.0930   -0.1120    3.2770 ca        1 TJH     -0.173000
      7 CAV         4.0510   -1.0540    2.2210 ca        1 TJH      0.202100
      8 OAC         4.8130   -2.1830    2.2240 oh        1 TJH     -0.451100
      9 CBF         3.2060   -0.8540    1.1120 ca        1 TJH     -0.189600
     10 CBA         3.1710   -1.8380    0.0300 c         1 TJH      0.564900
     11 OAA         3.8240   -2.8830   -0.0010 o         1 TJH     -0.423100
     12 CAJ         2.2670   -1.5350   -1.1210 cc        1 TJH     -0.083200
     13 CAX         1.5040   -0.4270   -1.1550 cd        1 TJH     -0.130200
     14 NAS         0.6100   -0.1350   -2.2830 n4        1 TJH     -0.640800
     15 CAN         1.3600    0.2020   -3.5330 c3        1 TJH      0.090800
     16 CAO         0.3930    0.5180   -4.7020 c3        1 TJH      0.163800
     17 NAT         1.1630    0.7650   -5.8990 nh        1 TJH     -0.719600
     18 CAZ         0.5600    0.2990   -7.1080 ca        1 TJH      0.094600
     19 CAY         0.8380   -0.9860   -7.5710 ca        1 TJH     -0.154600
     20 CAQ         1.7400   -1.8870   -6.8040 c3        1 TJH     -0.018100
     21 CAM         1.7390   -3.3270   -7.2690 c3        1 TJH     -0.082400
     22 CAL         1.7780   -3.4030   -8.7770 c3        1 TJH     -0.081400
     23 CAP         0.5330   -2.7800   -9.3640 c3        1 TJH     -0.137700
     24 CAW         0.2760   -1.3900   -8.8400 ca        1 TJH      0.449600
     25 NAR        -0.4870   -0.5970   -9.5820 nb        1 TJH     -0.647000
     26 CBC        -0.7740    0.6720   -9.1320 ca        1 TJH      0.416600
     27 CBD        -0.2810    1.1690   -7.8890 ca        1 TJH     -0.167300
     28 CAI        -0.6350    2.4850   -7.4880 ca        1 TJH     -0.132000
     29 CAG        -1.4270    3.2790   -8.2780 ca        1 TJH     -0.102000
     30 CAU        -1.9090    2.7870   -9.5190 ca        1 TJH      0.021400
     31 CL         -2.8830    3.7960  -10.4720 cl        1 TJH     -0.058400
     32 CAK        -1.5980    1.5170   -9.9450 ca        1 TJH     -0.150300
     33 H1          1.8150    2.1360    2.0840 ha        1 TJH      0.174000
     34 H2          3.3230    1.7560    4.0390 ha        1 TJH      0.169000
     35 H3          4.7610   -0.2890    4.1350 ha        1 TJH      0.166000
     36 H4          5.3440   -2.2040    3.0380 ho        1 TJH      0.445000
     37 H5          2.2830   -2.2960   -1.9260 ha        1 TJH      0.179000
     38 H6          0.0020   -0.9450   -2.4550 hn        1 TJH      0.466300
     39 H7          2.0180    1.0900   -3.3130 hx        1 TJH      0.115200
     40 H8          2.0160   -0.6770   -3.7960 hx        1 TJH      0.115200
     41 H9         -0.2900   -0.3650   -4.8650 h1        1 TJH      0.058200
     42 H10        -0.2460    1.4030   -4.4100 h1        1 TJH      0.058200
     43 H11         1.4280    1.7300   -5.9770 hn        1 TJH      0.400800
     44 H12         2.7840   -1.4730   -6.8840 hc        1 TJH      0.041700
     45 H13         1.4600   -1.8670   -5.7150 hc        1 TJH      0.041700
     46 H14         0.8210   -3.8510   -6.8920 hc        1 TJH      0.046700
     47 H15         2.6290   -3.8550   -6.8360 hc        1 TJH      0.046700
     48 H16         2.6910   -2.8780   -9.1620 hc        1 TJH      0.058700
     49 H17         1.8430   -4.4740   -9.1050 hc        1 TJH      0.058700
     50 H18         0.6200   -2.7620  -10.4850 hc        1 TJH      0.076700
     51 H19        -0.3630   -3.4110   -9.1110 hc        1 TJH      0.076700
     52 H20        -0.2770    2.8880   -6.5290 ha        1 TJH      0.119000
     53 H21        -1.6940    4.3000   -7.9620 ha        1 TJH      0.157000
     54 H22        -1.9710    1.1310  -10.9100 ha        1 TJH      0.178000
     55 HAS2        0.0150    0.6700   -2.0180 hn        1 TJH      0.466300
@<TRIPOS>BOND
     1    1    2 2   
     2    2    3 1   
     3    2   13 1   
     4    3    4 ar  
     5    3    9 ar  
     6    4    5 ar  
     7    4   33 1   
     8    5    6 ar  
     9    5   34 1   
    10    6    7 ar  
    11    6   35 1   
    12    7    8 1   
    13    7    9 ar  
    14    8   36 1   
    15    9   10 1   
    16   10   11 2   
    17   10   12 1   
    18   12   13 2   
    19   12   37 1   
    20   13   14 1   
    21   14   15 1   
    22   14   38 1   
    23   14   55 1   
    24   15   16 1   
    25   15   39 1   
    26   15   40 1   
    27   16   17 1   
    28   16   41 1   
    29   16   42 1   
    30   17   18 1   
    31   17   43 1   
    32   18   19 ar  
    33   18   27 ar  
    34   19   20 1   
    35   19   24 ar  
    36   20   21 1   
    37   20   44 1   
    38   20   45 1   
    39   21   22 1   
    40   21   46 1   
    41   21   47 1   
    42   22   23 1   
    43   22   48 1   
    44   22   49 1   
    45   23   24 1   
    46   23   50 1   
    47   23   51 1   
    48   24   25 ar  
    49   25   26 ar  
    50   26   27 ar  
    51   26   32 ar  
    52   27   28 ar  
    53   28   29 ar  
    54   28   52 1   
    55   29   30 ar  
    56   29   53 1   
    57   30   31 1   
    58   30   32 ar  
    59   32   54 1   
@<TRIPOS>SUBSTRUCTURE
     1 TJH         1 TEMP              0 ****  ****    0 ROOT
