@<TRIPOS>MOLECULE
TJH
   55    59     1     0     0
SMALL
bcc


@<TRIPOS>ATOM
      1 OAB         0.7650    1.5840   -0.1260 o         1 TJH     -0.514100
      2 CBB         1.5060    0.5960   -0.0470 c         1 TJH      0.597900
      3 CBE         2.4090    0.3240    1.0770 ca        1 TJH     -0.113600
      4 CAH         2.4600    1.2500    2.1150 ca        1 TJH     -0.087000
      5 CAE         3.3080    1.0340    3.2140 ca        1 TJH     -0.060000
      6 CAF         4.0970   -0.0990    3.2750 ca        1 TJH     -0.173000
      7 CAV         4.0480   -1.0450    2.2230 ca        1 TJH      0.202100
      8 OAC         4.8050   -2.1790    2.2290 oh        1 TJH     -0.451100
      9 CBF         3.2040   -0.8450    1.1130 ca        1 TJH     -0.189600
     10 CBA         3.1630   -1.8330    0.0350 c         1 TJH      0.564900
     11 OAA         3.8100   -2.8810    0.0080 o         1 TJH     -0.423100
     12 CAJ         2.2600   -1.5300   -1.1160 cc        1 TJH     -0.083200
     13 CAX         1.5030   -0.4170   -1.1550 cd        1 TJH     -0.130200
     14 NAS         0.6100   -0.1250   -2.2830 ny        1 TJH     -0.640800
     15 CAN         1.3610    0.2040   -3.5340 c3        1 TJH      0.090800
     16 CAO         0.3940    0.5200   -4.7040 c3        1 TJH      0.163800
     17 NAT         1.1650    0.7610   -5.9020 nu        1 TJH     -0.719600
     18 CAZ         0.5610    0.2930   -7.1100 ca        1 TJH      0.094600
     19 CAY         0.8370   -0.9940   -7.5700 ca        1 TJH     -0.154600
     20 CAQ         1.7380   -1.8940   -6.8010 c3        1 TJH     -0.018100
     21 CAM         1.7360   -3.3350   -7.2620 c3        1 TJH     -0.082400
     22 CAL         1.7740   -3.4150   -8.7700 c3        1 TJH     -0.081400
     23 CAP         0.5290   -2.7920   -9.3580 c3        1 TJH     -0.137700
     24 CAW         0.2740   -1.4010   -8.8360 ca        1 TJH      0.449600
     25 NAR        -0.4890   -0.6080   -9.5790 nb        1 TJH     -0.647000
     26 CBC        -0.7740    0.6620   -9.1330 ca        1 TJH      0.416600
     27 CBD        -0.2800    1.1620   -7.8920 ca        1 TJH     -0.167300
     28 CAI        -0.6320    2.4790   -7.4940 ca        1 TJH     -0.132000
     29 CAG        -1.4240    3.2720   -8.2860 ca        1 TJH     -0.102000
     30 CAU        -1.9090    2.7770   -9.5240 ca        1 TJH      0.021400
     31 Cl         -2.8820    3.7850  -10.4790 cl        1 TJH     -0.058400
     32 CAK        -1.5990    1.5060   -9.9480 ca        1 TJH     -0.150300
     33 H1          1.8310    2.1570    2.0740 ha        1 TJH      0.174000
     34 H2          3.3380    1.7770    4.0290 ha        1 TJH      0.169000
     35 H3          4.7650   -0.2760    4.1330 ha        1 TJH      0.166000
     36 H4          5.3350   -2.1990    3.0440 ho        1 TJH      0.445000
     37 H5          2.2710   -2.2930   -1.9180 ha        1 TJH      0.179000
     38 H6          0.0180    0.6840   -2.0200 hn        1 TJH      0.466300
     39 H7          2.0220    1.0910   -3.3180 hx        1 TJH      0.115200
     40 H8          2.0130   -0.6780   -3.7950 hx        1 TJH      0.115200
     41 H9         -0.2420    1.4080   -4.4150 h1        1 TJH      0.058200
     42 H10        -0.2910   -0.3610   -4.8640 h1        1 TJH      0.058200
     43 H11         1.4320    1.7250   -5.9830 hn        1 TJH      0.400800
     44 H12         1.4600   -1.8710   -5.7110 hc        1 TJH      0.041700
     45 H13         2.7830   -1.4810   -6.8820 hc        1 TJH      0.041700
     46 H14         2.6260   -3.8620   -6.8290 hc        1 TJH      0.046700
     47 H15         0.8180   -3.8570   -6.8830 hc        1 TJH      0.046700
     48 H16         1.8370   -4.4860   -9.0950 hc        1 TJH      0.058700
     49 H17         2.6870   -2.8910   -9.1570 hc        1 TJH      0.058700
     50 H18         0.6150   -2.7770  -10.4790 hc        1 TJH      0.076700
     51 H19        -0.3680   -3.4220   -9.1020 hc        1 TJH      0.076700
     52 H20        -0.2720    2.8850   -6.5370 ha        1 TJH      0.119000
     53 H21        -1.6900    4.2940   -7.9720 ha        1 TJH      0.157000
     54 H22        -1.9740    1.1170  -10.9110 ha        1 TJH      0.178000
     55 HAS2       -0.0020   -0.9320   -2.4520 hn        1 TJH      0.466300
@<TRIPOS>BOND
     1    1    2 2   
     2    2    3 1   
     3    2   13 1   
     4    3    4 ar  
     5    3    9 ar  
     6    4    5 ar  
     7    4   33 1   
     8    5    6 ar  
     9    5   34 1   
    10    6    7 ar  
    11    6   35 1   
    12    7    8 1   
    13    7    9 ar  
    14    8   36 1   
    15    9   10 1   
    16   10   11 2   
    17   10   12 1   
    18   12   13 2   
    19   12   37 1   
    20   13   14 1   
    21   14   15 1   
    22   14   38 1   
    23   14   55 1   
    24   15   16 1   
    25   15   39 1   
    26   15   40 1   
    27   16   17 1   
    28   16   41 1   
    29   16   42 1   
    30   17   18 1   
    31   17   43 1   
    32   18   19 ar  
    33   18   27 ar  
    34   19   20 1   
    35   19   24 ar  
    36   20   21 1   
    37   20   44 1   
    38   20   45 1   
    39   21   22 1   
    40   21   46 1   
    41   21   47 1   
    42   22   23 1   
    43   22   48 1   
    44   22   49 1   
    45   23   24 1   
    46   23   50 1   
    47   23   51 1   
    48   24   25 ar  
    49   25   26 ar  
    50   26   27 ar  
    51   26   32 ar  
    52   27   28 ar  
    53   28   29 ar  
    54   28   52 1   
    55   29   30 ar  
    56   29   53 1   
    57   30   31 1   
    58   30   32 ar  
    59   32   54 1   
@<TRIPOS>SUBSTRUCTURE
     1 TJH         1 TEMP              0 ****  ****    0 ROOT
