@<TRIPOS>MOLECULE
TJH
   54    58     1     0     0
SMALL
bcc


@<TRIPOS>ATOM
      1 OAB         0.1890   -0.8360   -0.0270 o         1 TJH     -0.518100
      2 CBB         1.3550   -0.4230    0.0140 c         1 TJH      0.573900
      3 CBE         2.0750   -0.2260    1.2880 ca        1 TJH     -0.103600
      4 CAH         1.3400   -0.2210    2.4760 ca        1 TJH     -0.119000
      5 CAE         1.9860   -0.0310    3.7000 ca        1 TJH     -0.082000
      6 CAF         3.3600    0.1500    3.7440 ca        1 TJH     -0.200000
      7 CAV         4.1040    0.1380    2.5490 ca        1 TJH      0.167100
      8 OAC         5.4620    0.3200    2.5420 oh        1 TJH     -0.456100
      9 CBF         3.4700   -0.0540    1.3050 ca        1 TJH     -0.153600
     10 CBA         4.2430   -0.0760    0.0440 c         1 TJH      0.587900
     11 OAA         5.4780   -0.1570    0.0220 o         1 TJH     -0.504100
     12 CAJ         3.4700    0.0140   -1.1970 cc        1 TJH     -0.312200
     13 CAX         2.1160   -0.1050   -1.2450 cd        1 TJH      0.095800
     14 NAS         1.3530    0.0980   -2.3870 nh        1 TJH     -0.733000
     15 CAN         1.9940    0.0820   -3.6790 c3        1 TJH      0.188800
     16 CAO         0.9640    0.0580   -4.8310 c3        1 TJH      0.155800
     17 NAT         1.6310    0.0810   -6.1220 nh        1 TJH     -0.712600
     18 CAZ         0.7530   -0.0660   -7.2360 ca        1 TJH      0.118600
     19 CAY         0.5100   -1.3340   -7.7660 ca        1 TJH     -0.160600
     20 CAQ         1.1390   -2.5350   -7.1530 c3        1 TJH     -0.025100
     21 CAM         0.6100   -3.8590   -7.6630 c3        1 TJH     -0.080400
     22 CAL         0.4220   -3.8260   -9.1610 c3        1 TJH     -0.080400
     23 CAP        -0.6160   -2.7920   -9.5310 c3        1 TJH     -0.134700
     24 CAW        -0.3110   -1.4360   -8.9470 ca        1 TJH      0.448600
     25 NAR        -0.8430   -0.3840   -9.5620 nb        1 TJH     -0.670000
     26 CBC        -0.6190    0.8720   -9.0450 ca        1 TJH      0.412600
     27 CBD         0.1630    1.0850   -7.8720 ca        1 TJH     -0.170300
     28 CAI         0.3240    2.4100   -7.3870 ca        1 TJH     -0.114000
     29 CAG        -0.2430    3.4780   -8.0350 ca        1 TJH     -0.120000
     30 CAU        -1.0060    3.2660   -9.2110 ca        1 TJH      0.020400
     31 CL         -1.6870    4.6110   -9.9950 cl        1 TJH     -0.087400
     32 CAK        -1.1990    2.0010   -9.7130 ca        1 TJH     -0.158300
     33 H1          0.2490   -0.3710    2.4370 ha        1 TJH      0.160000
     34 H2          1.3990   -0.0260    4.6320 ha        1 TJH      0.144000
     35 H3          3.8740    0.3010    4.7050 ha        1 TJH      0.142000
     36 H4          5.7570    0.4200    3.4600 ho        1 TJH      0.420000
     37 H5          4.0750    0.1890   -2.1010 ha        1 TJH      0.158000
     38 H6          0.4310   -0.2900   -2.3510 hn        1 TJH      0.429800
     39 H7          2.6840   -0.8080   -3.7780 h1        1 TJH      0.054200
     40 H8          2.6280    1.0120   -3.7560 h1        1 TJH      0.054200
     41 H9          0.3550   -0.8880   -4.7690 h1        1 TJH      0.047200
     42 H10         0.2540    0.9280   -4.7100 h1        1 TJH      0.047200
     43 H11         2.1870    0.9120   -6.2200 hn        1 TJH      0.378800
     44 H12         2.2460   -2.4770   -7.3500 hc        1 TJH      0.060200
     45 H13         1.0060   -2.5100   -6.0370 hc        1 TJH      0.060200
     46 H14        -0.3680   -4.0950   -7.1680 hc        1 TJH      0.044700
     47 H15         1.3300   -4.6720   -7.3840 hc        1 TJH      0.044700
     48 H16         1.3960   -3.5910   -9.6630 hc        1 TJH      0.049200
     49 H17         0.0870   -4.8320   -9.5280 hc        1 TJH      0.049200
     50 H18        -1.6230   -3.1100   -9.1430 hc        1 TJH      0.067200
     51 H19        -0.6950   -2.7270  -10.6500 hc        1 TJH      0.067200
     52 H20         0.9020    2.5960   -6.4680 ha        1 TJH      0.132000
     53 H21        -0.1140    4.5020   -7.6510 ha        1 TJH      0.150000
     54 H22        -1.7960    1.8330  -10.6250 ha        1 TJH      0.167000
@<TRIPOS>BOND
     1    1    2 2   
     2    2    3 1   
     3    2   13 1   
     4    3    4 ar  
     5    3    9 ar  
     6    4    5 ar  
     7    4   33 1   
     8    5    6 ar  
     9    5   34 1   
    10    6    7 ar  
    11    6   35 1   
    12    7    8 1   
    13    7    9 ar  
    14    8   36 1   
    15    9   10 1   
    16   10   11 2   
    17   10   12 1   
    18   12   13 2   
    19   12   37 1   
    20   13   14 1   
    21   14   15 1   
    22   14   38 1   
    23   15   16 1   
    24   15   39 1   
    25   15   40 1   
    26   16   17 1   
    27   16   41 1   
    28   16   42 1   
    29   17   18 1   
    30   17   43 1   
    31   18   19 ar  
    32   18   27 ar  
    33   19   20 1   
    34   19   24 ar  
    35   20   21 1   
    36   20   44 1   
    37   20   45 1   
    38   21   22 1   
    39   21   46 1   
    40   21   47 1   
    41   22   23 1   
    42   22   48 1   
    43   22   49 1   
    44   23   24 1   
    45   23   50 1   
    46   23   51 1   
    47   24   25 ar  
    48   25   26 ar  
    49   26   27 ar  
    50   26   32 ar  
    51   27   28 ar  
    52   28   29 ar  
    53   28   52 1   
    54   29   30 ar  
    55   29   53 1   
    56   30   31 1   
    57   30   32 ar  
    58   32   54 1   
@<TRIPOS>SUBSTRUCTURE
     1 TJH         1 TEMP              0 ****  ****    0 ROOT
