@<TRIPOS>MOLECULE
TJM
   27    28     1     0     0
SMALL
bcc


@<TRIPOS>ATOM
      1 C1          0.0810    0.2110   -0.1330 c3        1 TJM     -0.035800
      2 C2          1.5400    0.0890   -0.0340 cc        1 TJM     -0.103400
      3 C3          2.2790    0.2000    1.1270 cd        1 TJM     -0.132000
      4 C4          3.6830    0.0280    0.8830 cd        1 TJM     -0.110000
      5 C5          3.9390   -0.2090   -0.4680 cc        1 TJM     -0.110400
      6 C6          5.2340   -0.4270   -1.1190 c3        1 TJM     -0.043800
      7 S7          2.5270   -0.2100   -1.3490 ss        1 TJM      0.144200
      8 C8          4.6270    0.1170    1.9560 cd        1 TJM      0.031700
      9 C9          4.4360    0.5800    3.2790 cc        1 TJM     -0.191300
     10 C10         5.7260    0.4270    3.9070 cc        1 TJM      0.169800
     11 N11         6.6360   -0.0990    3.0030 nd        1 TJM     -0.501800
     12 N12         5.9830   -0.2740    1.8810 na        1 TJM      0.058400
     13 C13         6.0190    0.7720    5.2730 c         1 TJM      0.510600
     14 O14         5.2990    1.2370    6.1420 o         1 TJM     -0.412100
     15 N15         7.4570    0.5200    5.7120 n4        1 TJM     -0.757400
     16 H11C       -0.2520    1.2190    0.2230 hc        1 TJM      0.061700
     17 H12C       -0.2670    0.0790   -1.1880 hc        1 TJM      0.061700
     18 H13C       -0.4200   -0.5650    0.5010 hc        1 TJM      0.061700
     19 H3          1.8620    0.3920    2.1180 ha        1 TJM      0.161000
     20 H61C        5.6850   -1.4020   -0.8000 hc        1 TJM      0.056367
     21 H62C        5.9490    0.4020   -0.8830 hc        1 TJM      0.056367
     22 H63C        5.1180   -0.4630   -2.2340 hc        1 TJM      0.056367
     23 H9          3.5270    0.9700    3.7290 ha        1 TJM      0.203000
     24 H12         6.4460   -0.6480    1.0750 hn        1 TJM      0.355700
     25 H151        7.5770    0.7920    6.6930 hn        1 TJM      0.469133
     26 H152        8.0960    1.0640    5.1250 hn        1 TJM      0.469133
     27 H153        7.6800   -0.4740    5.6030 hn        1 TJM      0.469133
@<TRIPOS>BOND
     1    1    2 1   
     2    1   16 1   
     3    1   17 1   
     4    1   18 1   
     5    2    3 2   
     6    2    7 1   
     7    3    4 1   
     8    3   19 1   
     9    4    5 2   
    10    4    8 1   
    11    5    6 1   
    12    5    7 1   
    13    6   20 1   
    14    6   21 1   
    15    6   22 1   
    16    8    9 2   
    17    8   12 1   
    18    9   10 1   
    19    9   23 1   
    20   10   11 2   
    21   10   13 1   
    22   11   12 1   
    23   12   24 1   
    24   13   14 2   
    25   13   15 1   
    26   15   25 1   
    27   15   26 1   
    28   15   27 1   
@<TRIPOS>SUBSTRUCTURE
     1 TJM         1 TEMP              0 ****  ****    0 ROOT
