@<TRIPOS>MOLECULE
TJM
   26    27     1     0     0
SMALL
bcc


@<TRIPOS>ATOM
      1 C1          0.0740    0.1310   -0.0550 c3        1 TJM     -0.025800
      2 C2          1.5370    0.0530    0.0070 cc        1 TJM     -0.101400
      3 C3          2.3010    0.1340    1.1510 cd        1 TJM     -0.135000
      4 C4          3.7070    0.0210    0.8720 cd        1 TJM     -0.049000
      5 C5          3.9420   -0.1430   -0.4870 cc        1 TJM     -0.109400
      6 C6          5.2280   -0.2830   -1.1750 c3        1 TJM     -0.030800
      7 S7          2.5030   -0.1530   -1.3500 ss        1 TJM      0.030200
      8 C8          4.6700    0.0930    1.9340 cd        1 TJM     -0.037300
      9 C9          4.4980    0.5240    3.2660 cc        1 TJM     -0.219300
     10 C10         5.7970    0.3710    3.8760 cc        1 TJM      0.246800
     11 N11         6.6910   -0.1250    2.9610 nd        1 TJM     -0.497800
     12 N12         6.0250   -0.2820    1.8290 na        1 TJM      0.003400
     13 C13         6.0850    0.7090    5.2880 c         1 TJM      0.600600
     14 O14         5.1850    1.1440    6.0380 o         1 TJM     -0.616100
     15 N15         7.3590    0.5370    5.7650 n         1 TJM     -0.666000
     16 H11C       -0.2930    0.0330   -1.1070 hc        1 TJM      0.050367
     17 H12C       -0.2830    1.1110    0.3520 hc        1 TJM      0.050367
     18 H13C       -0.3870   -0.6860    0.5560 hc        1 TJM      0.050367
     19 H3          1.9110    0.2680    2.1630 ha        1 TJM      0.163000
     20 H61C        5.0920   -0.2440   -2.2860 hc        1 TJM      0.049033
     21 H62C        5.7090   -1.2640   -0.9270 hc        1 TJM      0.049033
     22 H63C        5.9280    0.5440   -0.8880 hc        1 TJM      0.049033
     23 H9          3.6030    0.8980    3.7520 ha        1 TJM      0.186000
     24 H12         6.4770   -0.6440    1.0210 hn        1 TJM      0.325700
     25 H151        8.0870    0.1930    5.1950 hn        1 TJM      0.317500
     26 H152        7.5530    0.7610    6.7080 hn        1 TJM      0.317500
@<TRIPOS>BOND
     1    1    2 1   
     2    1   16 1   
     3    1   17 1   
     4    1   18 1   
     5    2    3 2   
     6    2    7 1   
     7    3    4 1   
     8    3   19 1   
     9    4    5 2   
    10    4    8 1   
    11    5    6 1   
    12    5    7 1   
    13    6   20 1   
    14    6   21 1   
    15    6   22 1   
    16    8    9 2   
    17    8   12 1   
    18    9   10 1   
    19    9   23 1   
    20   10   11 2   
    21   10   13 1   
    22   11   12 1   
    23   12   24 1   
    24   13   14 2   
    25   13   15 1   
    26   15   25 1   
    27   15   26 1   
@<TRIPOS>SUBSTRUCTURE
     1 TJM         1 TEMP              0 ****  ****    0 ROOT
