@<TRIPOS>MOLECULE
TJM
   27    28     1     0     0
SMALL
bcc


@<TRIPOS>ATOM
      1 C1          0.1130    0.3230   -0.1930 c3        1 TJM     -0.035800
      2 C2          1.5650    0.1500   -0.0710 cc        1 TJM     -0.103400
      3 C3          2.2920    0.2590    1.0970 cd        1 TJM     -0.132000
      4 C4          3.6920    0.0310    0.8770 cd        1 TJM     -0.110000
      5 C5          3.9570   -0.2440   -0.4650 cc        1 TJM     -0.110400
      6 C6          5.2510   -0.5230   -1.0940 c3        1 TJM     -0.043800
      7 S7          2.5580   -0.2120   -1.3660 ss        1 TJM      0.144200
      8 C8          4.6240    0.1080    1.9620 cd        1 TJM      0.031700
      9 C9          4.4310    0.6010    3.2720 cc        1 TJM     -0.191300
     10 C10         5.7060    0.4170    3.9210 cc        1 TJM      0.169800
     11 N11         6.6110   -0.1550    3.0390 nd        1 TJM     -0.501800
     12 N12         5.9670   -0.3280    1.9120 na        1 TJM      0.058400
     13 C13         5.9930    0.7780    5.2850 c         1 TJM      0.510600
     14 O14         5.2770    1.2820    6.1360 o         1 TJM     -0.412100
     15 N15         7.4160    0.4860    5.7480 nz        1 TJM     -0.757400
     16 H11C       -0.2260    0.1800   -1.2500 hc        1 TJM      0.061700
     17 H12C       -0.4250   -0.4190    0.4510 hc        1 TJM      0.061700
     18 H13C       -0.1880    1.3510    0.1360 hc        1 TJM      0.061700
     19 H3          1.8690    0.4870    2.0780 ha        1 TJM      0.161000
     20 H61C        5.9930    0.2860   -0.8680 hc        1 TJM      0.056700
     21 H62C        5.6630   -1.5060   -0.7460 hc        1 TJM      0.056700
     22 H63C        5.1480   -0.5810   -2.2090 hc        1 TJM      0.056700
     23 H9          3.5300    1.0300    3.7030 ha        1 TJM      0.203000
     24 H12         6.4290   -0.7320    1.1190 hn        1 TJM      0.355700
     25 H151        8.0810    0.9990    5.1600 hn        1 TJM      0.469133
     26 H152        7.6070   -0.5160    5.6600 hn        1 TJM      0.469133
     27 H153        7.5320    0.7720    6.7260 hn        1 TJM      0.469133
@<TRIPOS>BOND
     1    1    2 1   
     2    1   16 1   
     3    1   17 1   
     4    1   18 1   
     5    2    3 2   
     6    2    7 1   
     7    3    4 1   
     8    3   19 1   
     9    4    5 2   
    10    4    8 1   
    11    5    6 1   
    12    5    7 1   
    13    6   20 1   
    14    6   21 1   
    15    6   22 1   
    16    8    9 2   
    17    8   12 1   
    18    9   10 1   
    19    9   23 1   
    20   10   11 2   
    21   10   13 1   
    22   11   12 1   
    23   12   24 1   
    24   13   14 2   
    25   13   15 1   
    26   15   25 1   
    27   15   26 1   
    28   15   27 1   
@<TRIPOS>SUBSTRUCTURE
     1 TJM         1 TEMP              0 ****  ****    0 ROOT
