@<TRIPOS>MOLECULE
TK1
   54    56     1     0     0
SMALL
bcc


@<TRIPOS>ATOM
      1 C1         -0.1910    0.0280    1.0550 c3        1 TK1     -0.934000
      2 C2         13.7430   -2.9330    6.7430 c1        1 TK1      0.302000
      3 C3         12.9080   -2.0320    6.2600 c2        1 TK1     -0.548000
      4 C4         11.7290    0.0010    4.0730 c2        1 TK1     -0.167000
      5 C5          3.8790    1.0190    2.9330 ca        1 TK1     -0.205000
      6 C6          2.5690    3.0800    3.0340 ca        1 TK1     -0.205000
      7 C7          3.0620    0.5710    1.9030 ca        1 TK1      0.013500
      8 C8          1.7730    2.6050    2.0040 ca        1 TK1      0.013500
      9 C9         12.5950   -0.8120    6.9840 c1        1 TK1     -0.034000
     10 C10         6.4110    0.7630    6.8200 ca        1 TK1     -0.171000
     11 C11         6.6420    2.1350    4.2970 ca        1 TK1     -0.050000
     12 C12         0.8860    1.4400   10.7760 c2        1 TK1     -0.160000
     13 C13         0.2950    0.4730   10.0800 c2        1 TK1     -0.203000
     14 C15         3.6270    2.2760    3.5030 ca        1 TK1      0.140000
     15 C16         1.9940    1.3430    1.4270 ca        1 TK1     -0.878000
     16 C17        11.1440    0.2350    5.2630 c2        1 TK1     -0.032000
     17 C18         5.3030    1.4090    6.2580 ca        1 TK1      0.058000
     18 C19         7.6200    0.8000    6.1230 ca        1 TK1      0.007000
     19 C20         7.7550    1.4870    4.8480 ca        1 TK1     -0.101000
     20 C21         5.4480    2.0790    5.0030 ca        1 TK1     -0.020000
     21 C22         9.7200    0.6330    5.3200 c2        1 TK1      0.024000
     22 C23         2.8230    0.3490    8.6070 c2        1 TK1     -0.055000
     23 C24         0.3690    0.3340    8.6080 c2        1 TK1      0.337000
     24 N25         8.8820    0.2780    6.4090 na        1 TK1     -0.235000
     25 N26        11.8210    0.1420    6.5170 n3        1 TK1     -0.174000
     26 N27         9.0760    1.3630    4.3820 n2        1 TK1     -0.110000
     27 N28         1.6160    0.3690    7.9630 n         1 TK1     -0.325000
     28 O30        -0.6380    0.1720    7.8990 o         1 TK1     -0.309000
     29 O31         1.7220   -0.1650   -0.5780 o         1 TK1     -0.940500
     30 O32         0.4760    1.8840   -0.5170 o         1 TK1     -0.940500
     31 S34         1.0360    0.8000    0.1760 s6        1 TK1      2.868000
     32 H1         -0.9810   -0.3760    0.3720 h1        1 TK1      0.151333
     33 H1A        -0.7140    0.7090    1.7690 h1        1 TK1      0.151333
     34 H1B         0.1790   -0.8400    1.6520 h1        1 TK1      0.151333
     35 H2         12.7900   -0.2650    3.9770 ha        1 TK1      0.142500
     36 H3         12.4330   -2.2360    5.2750 ha        1 TK1      0.182000
     37 H4         11.1660    0.0750    3.1320 ha        1 TK1      0.142500
     38 H5          4.7170    0.4050    3.2940 ha        1 TK1      0.159500
     39 H6          2.3980    4.0700    3.4820 ha        1 TK1      0.159500
     40 H7          3.2650   -0.4100    1.4360 ha        1 TK1      0.157000
     41 H8          0.9530    3.2350    1.6140 ha        1 TK1      0.157000
     42 H9         11.6840    0.9320    7.1170 hn        1 TK1      0.257000
     43 H10         6.3200    0.2490    7.7850 ha        1 TK1      0.146000
     44 H11         6.7110    2.6710    3.3390 ha        1 TK1      0.165000
     45 H12         0.7520    1.5340   11.8630 ha        1 TK1      0.130500
     46 H12A        2.8980    0.1280    9.6880 h5        1 TK1      0.209000
     47 H13        -0.3670   -0.2770   10.5480 ha        1 TK1      0.166000
     48 H13A        1.5250    2.2100   10.3190 ha        1 TK1      0.130500
     49 H14         3.1530    1.9000    6.4510 h4        1 TK1      0.166000
     50 H14A        1.6140    0.3010    6.9640 hn        1 TK1      0.254000
     51 HN25        9.1160   -0.3090    7.1640 hn        1 TK1      0.263000
     52 O33         4.3580    2.8260    4.5380 os        1 TK1     -0.150000
     53 C14         4.0310    1.4360    6.9050 c2        1 TK1     -0.304000
     54 O29         3.9520    0.8640    8.1190 os        1 TK1      0.046000
@<TRIPOS>BOND
     1    1   31 1   
     2    1   32 1   
     3    1   33 1   
     4    1   34 1   
     5    2    3 1   
     6    3    9 1   
     7    3   36 1   
     8    4   16 1   
     9    4   35 1   
    10    4   37 1   
    11    5    7 1   
    12    5   14 1   
    13    5   38 1   
    14    6    8 1   
    15    6   14 1   
    16    6   39 1   
    17    7   15 1   
    18    7   40 1   
    19    8   15 1   
    20    8   41 1   
    21    9   25 1   
    22   10   17 1   
    23   10   18 1   
    24   10   43 1   
    25   11   19 1   
    26   11   20 1   
    27   11   44 1   
    28   12   13 1   
    29   12   45 1   
    30   12   48 1   
    31   13   23 1   
    32   13   47 1   
    33   14   52 1   
    34   15   31 1   
    35   16   21 1   
    36   16   25 1   
    37   17   20 1   
    38   17   53 1   
    39   18   19 1   
    40   18   24 1   
    41   19   26 1   
    42   20   52 1   
    43   21   24 1   
    44   21   26 1   
    45   22   27 1   
    46   22   46 1   
    47   22   54 1   
    48   23   27 1   
    49   23   28 1   
    50   24   51 1   
    51   25   42 1   
    52   27   50 1   
    53   29   31 1   
    54   30   31 1   
    55   49   53 1   
    56   53   54 1   
@<TRIPOS>SUBSTRUCTURE
     1 TK1         1 TEMP              0 ****  ****    0 ROOT
