@<TRIPOS>MOLECULE
TK1
   54    58     1     0     0
SMALL
bcc


@<TRIPOS>ATOM
      1 C1         -6.5410   -1.1620    1.1780 c3        1 TK1     -0.354300
      2 C2          6.6180   -3.9320    0.5360 ca        1 TK1     -0.098000
      3 C3          7.6840   -3.1650    0.9970 ca        1 TK1     -0.231300
      4 C4          5.4240   -3.2990    0.1770 ca        1 TK1     -0.192300
      5 C5         -2.1340   -0.9080   -0.0570 ca        1 TK1     -0.197000
      6 C6         -3.4290   -0.4140   -2.0710 ca        1 TK1     -0.197000
      7 C7         -3.2400   -1.5640    0.4710 ca        1 TK1      0.015000
      8 C8         -4.5130   -1.0750   -1.5170 ca        1 TK1      0.015000
      9 C9          7.5120   -1.7680    1.0840 ca        1 TK1      0.399200
     10 C10         1.9350    1.6730   -0.5770 ca        1 TK1     -0.108000
     11 C11         0.7190   -0.8510   -1.2280 ca        1 TK1     -0.093000
     12 C12        -0.0410    5.2310    1.7410 c3        1 TK1     -0.162900
     13 C13        -1.4270    4.6090    1.8890 c3        1 TK1     -0.162900
     14 C15        -2.2340   -0.3260   -1.3280 ca        1 TK1      0.194100
     15 C16        -4.4450   -1.6540   -0.2390 ca        1 TK1     -0.430500
     16 C17         5.3430   -1.8950    0.2970 ca        1 TK1      0.382000
     17 C18         0.6220    1.6130   -1.0280 ca        1 TK1     -0.093300
     18 C19         2.6410    0.4740   -0.4340 ca        1 TK1     -0.078200
     19 C20         2.0370   -0.8110   -0.7560 ca        1 TK1      0.082400
     20 C21         0.0410    0.3590   -1.3510 ca        1 TK1      0.074100
     21 C22         4.0870   -1.2140   -0.0790 cc        1 TK1      0.365800
     22 C23         0.5590    4.5810    0.4970 c         1 TK1      0.701000
     23 C24        -1.5610    3.6430    0.7140 c         1 TK1      0.701000
     24 N25         3.9370    0.1890   -0.0070 na        1 TK1     -0.248300
     25 N26         6.3800   -1.1340    0.7470 nb        1 TK1     -0.675000
     26 N27         2.9650   -1.8370   -0.5220 nd        1 TK1     -0.562100
     27 N28        -0.3710    3.6720   -0.0500 n         1 TK1     -0.513400
     28 O30        -2.5490    2.9540    0.4460 o         1 TK1     -0.586500
     29 O31        -5.3410   -3.3720    1.3800 o         1 TK1     -0.662800
     30 O32        -6.5900   -2.9310   -0.6190 o         1 TK1     -0.662800
     31 S34        -5.7580   -2.4520    0.4050 sy        1 TK1      1.404300
     32 H1         -6.8390   -0.3470    0.4750 h1        1 TK1      0.112033
     33 H1A        -7.4810   -1.5040    1.6800 h1        1 TK1      0.112033
     34 H1B        -5.9170   -0.6850    1.9720 h1        1 TK1      0.112033
     35 H2          6.7080   -5.0260    0.4520 ha        1 TK1      0.147000
     36 H3          8.6380   -3.6240    1.2880 ha        1 TK1      0.149000
     37 H4          4.5690   -3.8850   -0.1910 ha        1 TK1      0.173000
     38 H5         -1.1970   -0.8420    0.5150 ha        1 TK1      0.158000
     39 H6         -3.4840    0.0420   -3.0700 ha        1 TK1      0.158000
     40 H7         -3.1670   -2.0370    1.4670 ha        1 TK1      0.156000
     41 H8         -5.4500   -1.1660   -2.0960 ha        1 TK1      0.156000
     42 H9          8.3300   -1.1190    1.4450 h4        1 TK1      0.027100
     43 H10         2.4030    2.6450   -0.3500 ha        1 TK1      0.167000
     44 H11         0.2370   -1.8030   -1.4930 ha        1 TK1      0.167000
     45 H12        -0.0890    6.3380    1.5930 hc        1 TK1      0.091200
     46 H12A        0.6130    5.0190    2.6220 hc        1 TK1      0.091200
     47 H13        -1.5350    4.0420    2.8460 hc        1 TK1      0.091200
     48 H13A       -2.2410    5.3730    1.8350 hc        1 TK1      0.091200
     49 H14         0.4270    3.5270   -1.9680 h1        1 TK1      0.087700
     50 H14A       -1.1630    2.6460   -1.6780 h1        1 TK1      0.087700
     51 HN25        4.6250    0.8380    0.2750 hn        1 TK1      0.327700
     52 O33        -1.2240    0.3840   -1.9500 os        1 TK1     -0.246200
     53 C14        -0.1510    2.8870   -1.2370 c3        1 TK1      0.146300
     54 O29         1.6780    4.8090    0.0250 o         1 TK1     -0.586500
@<TRIPOS>BOND
     1    1   31 1   
     2    1   32 1   
     3    1   33 1   
     4    1   34 1   
     5    2    3 ar  
     6    2    4 ar  
     7    2   35 1   
     8    3    9 ar  
     9    3   36 1   
    10    4   16 ar  
    11    4   37 1   
    12    5    7 ar  
    13    5   14 ar  
    14    5   38 1   
    15    6    8 ar  
    16    6   14 ar  
    17    6   39 1   
    18    7   15 ar  
    19    7   40 1   
    20    8   15 ar  
    21    8   41 1   
    22    9   25 ar  
    23    9   42 1   
    24   10   17 ar  
    25   10   18 ar  
    26   10   43 1   
    27   11   19 ar  
    28   11   20 ar  
    29   11   44 1   
    30   12   13 1   
    31   12   22 1   
    32   12   45 1   
    33   12   46 1   
    34   13   23 1   
    35   13   47 1   
    36   13   48 1   
    37   14   52 1   
    38   15   31 1   
    39   16   21 1   
    40   16   25 ar  
    41   17   20 ar  
    42   17   53 1   
    43   18   19 ar  
    44   18   24 1   
    45   19   26 1   
    46   20   52 1   
    47   21   24 1   
    48   21   26 2   
    49   22   27 1   
    50   22   54 2   
    51   23   27 1   
    52   23   28 2   
    53   24   51 1   
    54   27   53 1   
    55   29   31 2   
    56   30   31 2   
    57   49   53 1   
    58   50   53 1   
@<TRIPOS>SUBSTRUCTURE
     1 TK1         1 TEMP              0 ****  ****    0 ROOT
