@<TRIPOS>MOLECULE
TK1
   54    56     1     0     0
SMALL
bcc


@<TRIPOS>ATOM
      1 C1         -0.7220   -0.0850    2.8570 c3        1 TK1     -0.954000
      2 C2         14.5080   -2.7800    6.1570 c1        1 TK1      0.302000
      3 C3         13.6260   -1.8360    5.8890 c2        1 TK1     -0.548000
      4 C4         12.5160    0.8430    4.5060 c2        1 TK1     -0.173000
      5 C5          3.7840    0.8200    3.0860 ca        1 TK1     -0.199500
      6 C6          2.6640    2.9790    3.3360 ca        1 TK1     -0.199500
      7 C7          2.6440    0.3210    2.4650 ca        1 TK1      0.013000
      8 C8          1.5430    2.4510    2.7140 ca        1 TK1      0.013000
      9 C9         12.9480   -1.1000    6.9410 c1        1 TK1     -0.034000
     10 C10         6.6750   -0.2690    5.7430 cx        1 TK1     -0.089000
     11 C11         7.1840    2.2340    4.2080 c2        1 TK1     -0.033000
     12 C12        -0.5250    2.4170    9.1570 c2        1 TK1     -0.162000
     13 C13        -0.7020    1.3320    8.4090 c2        1 TK1     -0.208000
     14 C15         3.7860    2.1490    3.5280 ca        1 TK1      0.137000
     15 C16         1.5050    1.1160    2.2810 ca        1 TK1     -0.861000
     16 C17        11.6780    0.4640    5.4890 c2        1 TK1     -0.022000
     17 C18         5.7130    0.8770    5.4930 cu        1 TK1     -0.144000
     18 C19         8.0280    0.2530    5.5450 c2        1 TK1     -0.061000
     19 C20         8.2540    1.4490    4.7780 c2        1 TK1     -0.113000
     20 C21         5.8980    1.9400    4.5690 c2        1 TK1      0.054000
     21 C22        10.2230    0.6550    5.3350 c2        1 TK1     -0.033000
     22 C23         2.1350    0.6230    8.7810 c2        1 TK1      0.271000
     23 C24         0.1870    0.9410    7.2870 c2        1 TK1      0.344000
     24 N25         9.2720   -0.2370    5.8860 na        1 TK1     -0.168000
     25 N26        12.1060   -0.1150    6.7230 n7        1 TK1     -0.177000
     26 N27         9.6250    1.6790    4.6670 n2        1 TK1     -0.092000
     27 N28         1.5380    0.6660    7.5290 ns        1 TK1     -0.392000
     28 O30        -0.2340    0.8330    6.1230 o         1 TK1     -0.328000
     29 O31         0.5000   -0.5810    0.7090 o         1 TK1     -0.943500
     30 O32        -0.5870    1.5460    0.9340 o         1 TK1     -0.943500
     31 S34         0.1430    0.5040    1.5290 s6        1 TK1      2.864000
     32 H1         -0.4740    0.4060    3.8340 h1        1 TK1      0.162333
     33 H1A        -0.5630   -1.1810    3.0140 h1        1 TK1      0.162333
     34 H1B        -1.8240    0.0590    2.7190 h1        1 TK1      0.162333
     35 H2         13.6070    0.7550    4.5900 ha        1 TK1      0.141000
     36 H3         13.4030   -1.6190    4.8210 ha        1 TK1      0.182000
     37 H4         12.1400    1.2740    3.5680 ha        1 TK1      0.141000
     38 H5          4.6710    0.1850    3.2230 ha        1 TK1      0.157500
     39 H6          2.6950    4.0240    3.6730 ha        1 TK1      0.157500
     40 H7          2.6380   -0.7200    2.0930 ha        1 TK1      0.158000
     41 H8          0.6600    3.0940    2.5450 ha        1 TK1      0.158000
     42 H9         11.7090    0.3140    7.5370 hn        1 TK1      0.256000
     43 H10         6.5150   -1.3010    5.3810 hc        1 TK1      0.130000
     44 H11         7.4260    3.0580    3.5210 ha        1 TK1      0.171000
     45 H12        -1.2430    2.7030    9.9390 ha        1 TK1      0.130500
     46 H12A        1.4660    0.8490    9.6420 h5        1 TK1      0.146000
     47 H13        -1.5760    0.6680    8.5170 ha        1 TK1      0.164000
     48 H13A        0.3280    3.1000    9.0380 ha        1 TK1      0.130500
     49 H14         5.2980    0.2750    7.6950 ha        1 TK1      0.227000
     50 H14A        2.0980    0.4440    6.7290 hn        1 TK1      0.249000
     51 HN25        9.4640   -1.0660    6.3860 hn        1 TK1      0.266000
     52 O33         4.8600    2.7640    4.1480 os        1 TK1     -0.140000
     53 C14         5.6970    0.3400    6.6990 cu        1 TK1     -0.093000
     54 O29         3.3380    0.3490    8.8970 o         1 TK1     -0.344000
@<TRIPOS>BOND
     1    1   31 1   
     2    1   32 1   
     3    1   33 1   
     4    1   34 1   
     5    2    3 1   
     6    3    9 1   
     7    3   36 1   
     8    4   16 1   
     9    4   35 1   
    10    4   37 1   
    11    5    7 1   
    12    5   14 1   
    13    5   38 1   
    14    6    8 1   
    15    6   14 1   
    16    6   39 1   
    17    7   15 1   
    18    7   40 1   
    19    8   15 1   
    20    8   41 1   
    21    9   25 1   
    22   10   17 1   
    23   10   18 1   
    24   10   43 1   
    25   10   53 1   
    26   11   19 1   
    27   11   20 1   
    28   11   44 1   
    29   12   13 1   
    30   12   45 1   
    31   12   48 1   
    32   13   23 1   
    33   13   47 1   
    34   14   52 1   
    35   15   31 1   
    36   16   21 1   
    37   16   25 1   
    38   17   20 1   
    39   17   53 1   
    40   18   19 1   
    41   18   24 1   
    42   19   26 1   
    43   20   52 1   
    44   21   24 1   
    45   21   26 1   
    46   22   27 1   
    47   22   46 1   
    48   22   54 1   
    49   23   27 1   
    50   23   28 1   
    51   24   51 1   
    52   25   42 1   
    53   27   50 1   
    54   29   31 1   
    55   30   31 1   
    56   49   53 1   
@<TRIPOS>SUBSTRUCTURE
     1 TK1         1 TEMP              0 ****  ****    0 ROOT
