@<TRIPOS>MOLECULE
TK4
   31    32     1     0     0
SMALL
bcc


@<TRIPOS>ATOM
      1 C1          0.0220    0.0390   -0.0190 ca        1 TK4     -0.304500
      2 C2          1.4190    0.0950    0.0220 ca        1 TK4      0.128600
      3 C3          2.1140    0.1470    1.2750 ca        1 TK4     -0.179000
      4 C4          1.4300    0.1040    2.4560 ca        1 TK4     -0.072000
      5 C5         -0.6860   -0.0730    3.7180 ca        1 TK4     -0.257500
      6 C6         -2.0580   -0.1600    3.6950 ca        1 TK4     -0.074000
      7 C7         -2.7670   -0.1770    2.4750 ca        1 TK4     -0.167000
      8 C8         -2.0990   -0.1100    1.2780 ca        1 TK4     -0.097000
      9 C9         -0.6750   -0.0200    1.2330 ca        1 TK4      0.024000
     10 C10         0.0120    0.0030    2.4770 ca        1 TK4      0.012000
     11 S1         -0.9810    0.0430   -1.4910 s6        1 TK4      1.452100
     12 O11        -1.6850   -1.1870   -1.5000 o         1 TK4     -0.750867
     13 O12        -1.8250    1.1760   -1.4050 o         1 TK4     -0.750867
     14 O13        -0.1050    0.1350   -2.6180 o         1 TK4     -0.750867
     15 N2          2.1880    0.0430   -1.1620 ns        1 TK4     -0.461100
     16 C21         3.4060    0.6450   -1.3890 c         1 TK4      0.658100
     17 O2          4.1390    1.1570   -0.5140 o         1 TK4     -0.641100
     18 C22         3.8860    0.6170   -2.8310 c3        1 TK4     -0.178100
     19 S5          0.1130   -0.0720    5.2960 s6        1 TK4      1.450100
     20 O51         0.9720   -1.2010    5.3160 o         1 TK4     -0.752867
     21 O52         0.8220    1.1510    5.3940 o         1 TK4     -0.752867
     22 O53        -0.9410   -0.1720    6.2490 o         1 TK4     -0.752867
     23 H3          3.2120    0.2290    1.2830 ha        1 TK4      0.145000
     24 H4          1.9700    0.1440    3.4200 ha        1 TK4      0.159000
     25 H6         -2.6170   -0.2190    4.6450 ha        1 TK4      0.141000
     26 H7         -3.8640   -0.2450    2.4920 ha        1 TK4      0.101000
     27 H8         -2.6750   -0.1290    0.3370 ha        1 TK4      0.153000
     28 HN2         1.6820   -0.2200   -1.9930 hn        1 TK4      0.359500
     29 H221        4.8690    1.1410   -2.8920 hc        1 TK4      0.053033
     30 H222        3.1500    1.1330   -3.4930 hc        1 TK4      0.053033
     31 H223        4.0100   -0.4360   -3.1790 hc        1 TK4      0.053033
@<TRIPOS>BOND
     1    1    2 ar  
     2    1    9 ar  
     3    1   11 1   
     4    2    3 ar  
     5    2   15 1   
     6    3    4 ar  
     7    3   23 1   
     8    4   10 ar  
     9    4   24 1   
    10    5    6 ar  
    11    5   10 ar  
    12    5   19 1   
    13    6    7 ar  
    14    6   25 1   
    15    7    8 ar  
    16    7   26 1   
    17    8    9 ar  
    18    8   27 1   
    19    9   10 ar  
    20   11   12 1   
    21   11   13 1   
    22   11   14 1   
    23   15   16 1   
    24   15   28 1   
    25   16   17 2   
    26   16   18 1   
    27   18   29 1   
    28   18   30 1   
    29   18   31 1   
    30   19   20 1   
    31   19   21 1   
    32   19   22 1   
@<TRIPOS>SUBSTRUCTURE
     1 TK4         1 TEMP              0 ****  ****    0 ROOT
