@<TRIPOS>MOLECULE
TK4
   31    32     1     0     0
SMALL
bcc


@<TRIPOS>ATOM
      1 C1         -0.4390    0.0530    1.2560 ca        1 TK4     -0.304500
      2 C2          0.9390    0.1940    1.4510 ca        1 TK4      0.128600
      3 C3          1.8400    0.1970    0.3370 ca        1 TK4     -0.179000
      4 C4          1.3720    0.1020   -0.9420 ca        1 TK4     -0.072000
      5 C5         -0.4980   -0.0660   -2.5470 ca        1 TK4     -0.257500
      6 C6         -1.8530   -0.1730   -2.7570 ca        1 TK4     -0.074000
      7 C7         -2.7580   -0.2140   -1.6760 ca        1 TK4     -0.167000
      8 C8         -2.3040   -0.1440   -0.3830 ca        1 TK4     -0.097000
      9 C9         -0.9110   -0.0300   -0.0960 ca        1 TK4      0.024000
     10 C10        -0.0220    0.0010   -1.2050 ca        1 TK4      0.012000
     11 S1         -1.6720   -0.0420    2.5380 s6        1 TK4      1.452100
     12 O11        -2.5240    1.0760    2.3570 o         1 TK4     -0.750867
     13 O12        -2.3300   -1.2850    2.3780 o         1 TK4     -0.750867
     14 O13        -1.0000    0.0300    3.7990 o         1 TK4     -0.750867
     15 N2          1.4770    0.3950    2.7420 n         1 TK4     -0.461100
     16 C21         2.7080   -0.0210    3.2030 c         1 TK4      0.658100
     17 O2          3.6420   -0.4540    2.4940 o         1 TK4     -0.641100
     18 C22         2.9230    0.1250    4.7010 c3        1 TK4     -0.178100
     19 S5          0.5540   -0.0080   -3.9670 s6        1 TK4      1.450100
     20 O51         1.2470    1.2280   -3.9090 o         1 TK4     -0.752867
     21 O52         1.4260   -1.1230   -3.8750 o         1 TK4     -0.752867
     22 O53        -0.3220   -0.0910   -5.0870 o         1 TK4     -0.752867
     23 H3          2.9250    0.2710    0.5160 ha        1 TK4      0.145000
     24 H4          2.0710    0.1050   -1.7990 ha        1 TK4      0.159000
     25 H6         -2.2420   -0.2270   -3.7890 ha        1 TK4      0.141000
     26 H7         -3.8350   -0.3020   -1.8800 ha        1 TK4      0.101000
     27 H8         -3.0320   -0.1740    0.4460 ha        1 TK4      0.153000
     28 HN2         0.8050    0.6130    3.4600 hn        1 TK4      0.359500
     29 H221        3.9410   -0.2530    4.9550 hc        1 TK4      0.053033
     30 H222        2.8430    1.1960    5.0020 hc        1 TK4      0.053033
     31 H223        2.1580   -0.4670    5.2600 hc        1 TK4      0.053033
@<TRIPOS>BOND
     1    1    2 ar  
     2    1    9 ar  
     3    1   11 1   
     4    2    3 ar  
     5    2   15 1   
     6    3    4 ar  
     7    3   23 1   
     8    4   10 ar  
     9    4   24 1   
    10    5    6 ar  
    11    5   10 ar  
    12    5   19 1   
    13    6    7 ar  
    14    6   25 1   
    15    7    8 ar  
    16    7   26 1   
    17    8    9 ar  
    18    8   27 1   
    19    9   10 ar  
    20   11   12 1   
    21   11   13 1   
    22   11   14 1   
    23   15   16 1   
    24   15   28 1   
    25   16   17 2   
    26   16   18 1   
    27   18   29 1   
    28   18   30 1   
    29   18   31 1   
    30   19   20 1   
    31   19   21 1   
    32   19   22 1   
@<TRIPOS>SUBSTRUCTURE
     1 TK4         1 TEMP              0 ****  ****    0 ROOT
