@<TRIPOS>MOLECULE
TK4
   32    33     1     0     0
SMALL
bcc


@<TRIPOS>ATOM
      1 C1          0.0870   -0.0260   -0.0010 ca        1 TK4     -0.544500
      2 C2          1.5020    0.0650    0.0750 ca        1 TK4      0.254600
      3 C3          2.1460    0.2380    1.3340 ca        1 TK4     -0.226000
      4 C4          1.4170    0.2540    2.4930 ca        1 TK4      0.031000
      5 C5         -0.7080   -0.0210    3.7090 ca        1 TK4     -0.195500
      6 C6         -2.0580   -0.2870    3.6790 ca        1 TK4     -0.087000
      7 C7         -2.7180   -0.5060    2.4540 ca        1 TK4     -0.101000
      8 C8         -2.0320   -0.4340    1.2630 ca        1 TK4     -0.182000
      9 C9         -0.6440   -0.1300    1.2370 ca        1 TK4      0.059000
     10 C10         0.0090    0.0420    2.4860 ca        1 TK4     -0.015000
     11 S1         -0.6840    0.0190   -1.4330 sy        1 TK4      1.677800
     12 O11        -0.2410   -0.9720   -2.3050 o         1 TK4     -0.687300
     13 O12        -2.0260    0.3670   -1.4580 o         1 TK4     -0.687300
     14 O13        -0.0290    1.3840   -2.1590 oh        1 TK4     -0.770700
     15 N2          2.2590   -0.0330   -1.0970 n         1 TK4     -0.483100
     16 C21         3.5790    0.3700   -1.3050 c         1 TK4      0.674100
     17 O2          4.3030    0.8610   -0.4240 o         1 TK4     -0.578100
     18 C22         4.1010    0.1640   -2.7110 c3        1 TK4     -0.179100
     19 S5          0.0710    0.2300    5.3190 s6        1 TK4      1.454100
     20 O51         1.0850   -0.7500    5.3700 o         1 TK4     -0.737867
     21 O52         0.5780    1.5440    5.2580 o         1 TK4     -0.737867
     22 O53        -0.9760    0.0440    6.2440 o         1 TK4     -0.737867
     23 H3          3.2400    0.3640    1.3830 ha        1 TK4      0.174000
     24 H4          1.9240    0.4060    3.4690 ha        1 TK4      0.189000
     25 H6         -2.6250   -0.3390    4.6250 ha        1 TK4      0.164000
     26 H7         -3.7930   -0.7410    2.4540 ha        1 TK4      0.120000
     27 H8         -2.5890   -0.6200    0.3330 ha        1 TK4      0.139000
     28 HN2         1.7820   -0.3470   -1.9210 hn        1 TK4      0.339500
     29 H221        3.5050    0.7680   -3.4380 hc        1 TK4      0.068367
     30 H222        5.1660    0.4960   -2.7460 hc        1 TK4      0.068367
     31 H223        4.0430   -0.9130   -2.9980 hc        1 TK4      0.068367
     32 H22        -0.6080    2.1360   -2.2450 ho        1 TK4      0.468000
@<TRIPOS>BOND
     1    1    2 ar  
     2    1    9 ar  
     3    1   11 1   
     4    2    3 ar  
     5    2   15 1   
     6    3    4 ar  
     7    3   23 1   
     8    4   10 ar  
     9    4   24 1   
    10    5    6 ar  
    11    5   10 ar  
    12    5   19 1   
    13    6    7 ar  
    14    6   25 1   
    15    7    8 ar  
    16    7   26 1   
    17    8    9 ar  
    18    8   27 1   
    19    9   10 ar  
    20   11   12 2   
    21   11   13 2   
    22   11   14 1   
    23   14   32 1   
    24   15   16 1   
    25   15   28 1   
    26   16   17 2   
    27   16   18 1   
    28   18   29 1   
    29   18   30 1   
    30   18   31 1   
    31   19   20 1   
    32   19   21 1   
    33   19   22 1   
@<TRIPOS>SUBSTRUCTURE
     1 TK4         1 TEMP              0 ****  ****    0 ROOT
