@<TRIPOS>MOLECULE
TK4
   31    32     1     0     0
SMALL
bcc


@<TRIPOS>ATOM
      1 C1          0.0210    0.0420   -0.0190 ca        1 TK4     -0.304500
      2 C2          1.4180    0.0960    0.0220 ca        1 TK4      0.128600
      3 C3          2.1130    0.1430    1.2740 ca        1 TK4     -0.179000
      4 C4          1.4310    0.0990    2.4560 ca        1 TK4     -0.072000
      5 C5         -0.6850   -0.0790    3.7180 ca        1 TK4     -0.257500
      6 C6         -2.0580   -0.1630    3.6960 ca        1 TK4     -0.074000
      7 C7         -2.7680   -0.1760    2.4770 ca        1 TK4     -0.167000
      8 C8         -2.1000   -0.1080    1.2800 ca        1 TK4     -0.097000
      9 C9         -0.6760   -0.0190    1.2340 ca        1 TK4      0.024000
     10 C10         0.0120   -0.0000    2.4780 ca        1 TK4      0.012000
     11 S1         -0.9830    0.0510   -1.4900 s6        1 TK4      1.452100
     12 O11        -1.6890   -1.1780   -1.5010 o         1 TK4     -0.750867
     13 O12        -1.8260    1.1850   -1.4010 o         1 TK4     -0.750867
     14 O13        -0.1080    0.1440   -2.6180 o         1 TK4     -0.750867
     15 N2          2.1860    0.0460   -1.1630 n         1 TK4     -0.461100
     16 C21         3.4050    0.6480   -1.3890 c         1 TK4      0.658100
     17 O2          4.1390    1.1560   -0.5140 o         1 TK4     -0.641100
     18 C22         3.8840    0.6220   -2.8310 c3        1 TK4     -0.178100
     19 S5          0.1150   -0.0820    5.2960 s6        1 TK4      1.450100
     20 O51         0.9760   -1.2090    5.3110 o         1 TK4     -0.752867
     21 O52         0.8220    1.1430    5.3980 o         1 TK4     -0.752867
     22 O53        -0.9380   -0.1870    6.2490 o         1 TK4     -0.752867
     23 H3          3.2120    0.2240    1.2820 ha        1 TK4      0.145000
     24 H4          1.9710    0.1350    3.4190 ha        1 TK4      0.159000
     25 H6         -2.6160   -0.2240    4.6460 ha        1 TK4      0.141000
     26 H7         -3.8650   -0.2430    2.4940 ha        1 TK4      0.101000
     27 H8         -2.6770   -0.1230    0.3390 ha        1 TK4      0.153000
     28 HN2         1.6790   -0.2150   -1.9940 hn        1 TK4      0.359500
     29 H221        3.1470    1.1380   -3.4930 hc        1 TK4      0.053033
     30 H222        4.0080   -0.4300   -3.1810 hc        1 TK4      0.053033
     31 H223        4.8670    1.1470   -2.8920 hc        1 TK4      0.053033
@<TRIPOS>BOND
     1    1    2 ar  
     2    1    9 ar  
     3    1   11 1   
     4    2    3 ar  
     5    2   15 1   
     6    3    4 ar  
     7    3   23 1   
     8    4   10 ar  
     9    4   24 1   
    10    5    6 ar  
    11    5   10 ar  
    12    5   19 1   
    13    6    7 ar  
    14    6   25 1   
    15    7    8 ar  
    16    7   26 1   
    17    8    9 ar  
    18    8   27 1   
    19    9   10 ar  
    20   11   12 1   
    21   11   13 1   
    22   11   14 1   
    23   15   16 1   
    24   15   28 1   
    25   16   17 2   
    26   16   18 1   
    27   18   29 1   
    28   18   30 1   
    29   18   31 1   
    30   19   20 1   
    31   19   21 1   
    32   19   22 1   
@<TRIPOS>SUBSTRUCTURE
     1 TK4         1 TEMP              0 ****  ****    0 ROOT
