@<TRIPOS>MOLECULE
TK4
   31    25     1     0     0
SMALL
bcc


@<TRIPOS>ATOM
      1 C1         -0.3420   -0.2020   -0.8960 c1        1 TK4     -0.290400
      2 C2          1.0320    0.0040   -0.9130 c1        1 TK4      0.142200
      3 C3          1.7160    0.2380    0.2770 c1        1 TK4     -0.121500
      4 C4          1.0250    0.2660    1.4820 c1        1 TK4     -0.014500
      5 C5         -1.0690    0.0880    2.7220 c1        1 TK4     -0.243400
      6 C6         -2.4430   -0.1150    2.7380 c1        1 TK4     -0.016500
      7 C7         -3.1270   -0.3490    1.5490 c1        1 TK4     -0.074500
      8 C8         -2.4360   -0.3800    0.3440 c1        1 TK4     -0.074500
      9 C9         -1.0440   -0.1740    0.3250 cg        1 TK4      0.024000
     10 C10        -0.3670    0.0570    1.5010 cg        1 TK4      0.012000
     11 S1         -1.4160   -0.6060   -2.2510 s4        1 TK4      1.623200
     12 O11        -2.1040   -1.9260   -1.9970 os        1 TK4     -1.067500
     13 O12        -0.6640   -0.6230   -3.5600 o         1 TK4     -0.687400
     14 O13        -2.4180    0.4950   -2.5020 o         1 TK4     -0.687400
     15 N2          1.7370   -0.2720   -2.1130 n         1 TK4     -0.474700
     16 C21         2.6750    0.6630   -2.6140 c         1 TK4      0.658100
     17 O2          2.8760    1.7010   -2.0170 o         1 TK4     -0.641100
     18 C22         3.4210    0.3720   -3.8980 c3        1 TK4     -0.178100
     19 S5         -0.8830    0.2360    4.4820 s4        1 TK4      1.621200
     20 O51        -1.3090   -1.0430    5.1620 os        1 TK4     -1.067500
     21 O52        -1.6490    1.4230    5.0170 o         1 TK4     -0.685900
     22 O53         0.5330    0.6090    4.8540 o         1 TK4     -0.685900
     23 H3          2.6810    0.3830    0.2640 ha        1 TK4      0.087500
     24 H4          1.5030    0.4400    2.3150 ha        1 TK4      0.101500
     25 H6         -3.0600   -0.0630    3.4960 ha        1 TK4      0.083500
     26 H7         -4.0650   -0.6080    1.6270 ha        1 TK4      0.069500
     27 H8         -3.1500   -0.4820   -0.3170 ha        1 TK4      0.069500
     28 HN2         1.5990   -1.0600   -2.5520 hn        1 TK4      0.359500
     29 H221        3.8070    1.2030   -4.2470 hc        1 TK4      0.053033
     30 H222        2.8020   -0.0030   -4.5580 hc        1 TK4      0.053033
     31 H223        4.1400   -0.2720   -3.7200 hc        1 TK4      0.053033
@<TRIPOS>BOND
     1    1    9 3   
     2    1   11 1   
     3    2    3 3   
     4    2   15 1   
     5    3   23 1   
     6    4   10 3   
     7    4   24 1   
     8    5    6 3   
     9    5   19 1   
    10    6   25 1   
    11    7    8 3   
    12    7   26 1   
    13    8   27 1   
    14    9   10 1   
    15   11   13 1   
    16   11   14 1   
    17   15   16 1   
    18   15   28 1   
    19   16   17 2   
    20   16   18 1   
    21   18   29 1   
    22   18   30 1   
    23   18   31 1   
    24   19   21 1   
    25   19   22 1   
@<TRIPOS>SUBSTRUCTURE
     1 TK4         1 TEMP              0 ****  ****    0 ROOT
