@<TRIPOS>MOLECULE
TKT
   41    38     1     0     0
SMALL
bcc


@<TRIPOS>ATOM
      1 C12         0.0800   -0.2360    1.0240 c2        1 TKT     -0.180000
      2 O4         -1.2880    1.3200   -0.2370 o         1 TKT     -0.398000
      3 C9         -0.3600    0.5020   -0.1440 c2        1 TKT      0.380000
      4 C11         1.2530   -1.2090    1.0050 c3        1 TKT     -0.102000
      5 O3          0.3500    0.2470   -1.2740 oh        1 TKT     -0.327000
      6 C7          0.7620   -1.4460   -4.5560 c3        1 TKT     -0.187000
      7 C6         -0.5620    1.2800   -6.7460 c2        1 TKT     -0.215000
      8 N1          1.8040   -3.7040   -4.6860 n3        1 TKT     -0.286000
      9 C5         -1.2110    2.2540   -6.1040 c2        1 TKT     -0.091000
     10 C4         -1.3800    2.3140   -4.6680 c2        1 TKT     -0.414000
     11 C1          1.3730   -2.6320   -3.8750 c2        1 TKT      0.002000
     12 C2          1.5680   -2.6120   -2.5380 c2        1 TKT     -0.322000
     13 C3         -0.7630    1.6240   -3.7370 c1        1 TKT      0.161000
     14 C13         0.7700   -2.2080    5.3110 c1        1 TKT      0.270000
     15 C15         0.4000   -1.1730    3.0860 c2        1 TKT      0.035000
     16 C16        -0.4310   -0.2180    2.2860 c2        1 TKT     -0.086000
     17 C17        -2.9970    1.8170    2.7000 c1        1 TKT      0.126000
     18 C18        -3.4800    2.5500    1.7410 c2        1 TKT     -0.536000
     19 N10         1.3530   -1.7370    2.3670 n2        1 TKT     -0.142000
     20 C21         0.1280   -1.4010    4.4870 c2        1 TKT     -0.448000
     21 H11         2.2080   -0.6900    0.7250 h1        1 TKT      0.151500
     22 H81C       -0.0250   -4.2440   -5.6750 h1        1 TKT      0.071000
     23 H82C        1.0870   -3.1080   -6.5620 h1        1 TKT      0.071000
     24 H83C        1.5320   -4.8680   -6.3920 h1        1 TKT      0.071000
     25 H10         1.0770   -2.0480    0.2780 h1        1 TKT      0.151500
     26 H3         -0.0170    0.7620   -2.0280 ho        1 TKT      0.279000
     27 H71C        0.5290   -0.6450   -3.8080 hc        1 TKT      0.086333
     28 H72C        1.4670   -1.0270   -5.3170 hc        1 TKT      0.086333
     29 H61C       -0.1880   -1.7360   -5.0710 hc        1 TKT      0.086333
     30 H62C       -0.4590    1.2780   -7.8390 ha        1 TKT      0.121500
     31 H1         -0.0980    0.4270   -6.2310 ha        1 TKT      0.121500
     32 H5          2.0110   -4.5250   -4.1510 hn        1 TKT      0.182000
     33 H41C       -1.6690    3.0910   -6.6600 ha        1 TKT      0.132000
     34 H42C       -2.1330    3.0550   -4.3120 ha        1 TKT      0.201000
     35 H21C        1.9970   -3.4510   -1.9780 ha        1 TKT      0.123000
     36 H22C        1.3190   -1.7240   -1.9440 ha        1 TKT      0.123000
     37 H13        -3.0290    2.4980    0.7260 ha        1 TKT      0.205000
     38 H18        -4.3220    3.2510    1.8090 ha        1 TKT      0.205000
     39 H21        -0.7260   -0.8160    4.8960 ha        1 TKT      0.205000
     40 H17        -1.2700    0.3500    2.6980 ha        1 TKT      0.193000
     41 C8          1.0540   -3.9940   -5.8740 c3        1 TKT     -0.105000
@<TRIPOS>BOND
     1    1    3 1   
     2    1    4 1   
     3    1   16 1   
     4    2    3 1   
     5    3    5 1   
     6    4   19 1   
     7    4   21 1   
     8    4   25 1   
     9    5   26 1   
    10    6   11 1   
    11    6   27 1   
    12    6   28 1   
    13    6   29 1   
    14    7    9 1   
    15    7   30 1   
    16    7   31 1   
    17    8   11 1   
    18    8   32 1   
    19    8   41 1   
    20    9   10 1   
    21    9   33 1   
    22   10   13 1   
    23   10   34 1   
    24   11   12 1   
    25   12   35 1   
    26   12   36 1   
    27   14   20 1   
    28   15   16 1   
    29   15   19 1   
    30   15   20 1   
    31   16   40 1   
    32   17   18 1   
    33   18   37 1   
    34   18   38 1   
    35   20   39 1   
    36   22   41 1   
    37   23   41 1   
    38   24   41 1   
@<TRIPOS>SUBSTRUCTURE
     1 TKT         1 TEMP              0 ****  ****    0 ROOT
