@<TRIPOS>MOLECULE
TKT
   41    40     1     0     0
SMALL
bcc


@<TRIPOS>ATOM
      1 C12         0.3720    0.1010    0.5260 c2        1 TKT     -0.158000
      2 O4         -1.2640   -0.0750   -1.2670 o         1 TKT     -0.352000
      3 C9         -0.1070   -0.0110   -0.8370 c2        1 TKT      0.367000
      4 C11         1.8550    0.1470    0.8670 c3        1 TKT     -0.103000
      5 O3          0.8910   -0.0530   -1.7700 oh        1 TKT     -0.320000
      6 C7         -0.9770   -2.0280   -3.9770 c3        1 TKT     -0.195000
      7 C6          1.4540    0.7410   -4.8920 c2        1 TKT     -0.202000
      8 N1         -0.3030   -2.3340   -6.3930 ny        1 TKT      0.206000
      9 C5          0.4660    1.5620   -5.2590 c2        1 TKT     -0.153000
     10 C4         -0.8770    1.1480   -5.6110 c2        1 TKT     -0.051000
     11 C1         -1.1190   -1.5340   -5.3860 cx        1 TKT     -0.156000
     12 C2         -2.4740   -0.9800   -5.8270 cx        1 TKT     -0.181000
     13 C3         -1.3300   -0.0920   -5.6180 cu        1 TKT     -0.180000
     14 C13         0.0060    0.4650    5.2960 c1        1 TKT     -0.139000
     15 C15         0.7040    0.2810    2.7960 c2        1 TKT      0.083000
     16 C16        -0.3300    0.1820    1.7000 c2        1 TKT      0.087000
     17 C17        -1.7000    0.1820    1.9290 c1        1 TKT     -0.139000
     18 C18        -2.8830    0.1810    2.1250 c1        1 TKT     -0.125000
     19 N10         1.9350    0.2620    2.3220 n2        1 TKT     -0.105000
     20 C21         0.3310    0.3810    4.1480 c1        1 TKT     -0.128000
     21 H11         2.3540    1.0320    0.3860 h1        1 TKT      0.155500
     22 H81C        1.2590   -3.3660   -5.3780 hx        1 TKT      0.125000
     23 H82C        1.7670   -1.8370   -6.3610 hx        1 TKT      0.125000
     24 H83C       -0.8120   -3.2170   -6.4740 hn        1 TKT      0.199000
     25 H10         2.3790   -0.7870    0.5270 h1        1 TKT      0.155500
     26 H3          0.5030   -0.1130   -2.6630 ho        1 TKT      0.256000
     27 H71C       -1.4600   -1.3140   -3.2640 hc        1 TKT      0.097000
     28 H72C       -1.4630   -3.0280   -3.8670 hc        1 TKT      0.097000
     29 H61C        1.3320   -0.3540   -4.8430 ha        1 TKT      0.129500
     30 H62C        2.4520    1.1140   -4.6290 ha        1 TKT      0.129500
     31 H1          0.1060   -2.1260   -3.7080 hc        1 TKT      0.097000
     32 H5         -0.3720   -1.8230   -7.2740 hn        1 TKT      0.199000
     33 H41C        0.6350    2.6520   -5.3070 ha        1 TKT      0.124000
     34 H42C       -1.5660    1.9690   -5.8860 ha        1 TKT      0.132000
     35 H21C       -2.8340   -1.1680   -6.8560 hc        1 TKT      0.119500
     36 H22C       -3.3040   -0.9780   -5.0950 hc        1 TKT      0.119500
     37 H13         3.6000   -2.7360    7.9580 ha        1 TKT      0.000000
     38 H18        -3.9300    0.1810    2.2930 ha        1 TKT      0.231000
     39 H21        -0.2850    0.5400    6.3140 ha        1 TKT      0.231000
     40 H17         3.1960   -2.7430    8.5010 ha        1 TKT      0.000000
     41 C8          1.0280   -2.5920   -6.1050 c2        1 TKT     -0.778000
@<TRIPOS>BOND
     1    1    3 1   
     2    1    4 1   
     3    1   16 1   
     4    2    3 1   
     5    3    5 1   
     6    4   19 1   
     7    4   21 1   
     8    4   25 1   
     9    5   26 1   
    10    6   11 1   
    11    6   27 1   
    12    6   28 1   
    13    6   31 1   
    14    7    9 1   
    15    7   29 1   
    16    7   30 1   
    17    8   11 1   
    18    8   24 1   
    19    8   32 1   
    20    8   41 1   
    21    9   10 1   
    22    9   33 1   
    23   10   13 1   
    24   10   34 1   
    25   11   12 1   
    26   11   13 1   
    27   12   13 1   
    28   12   35 1   
    29   12   36 1   
    30   14   20 1   
    31   14   39 1   
    32   15   16 1   
    33   15   19 1   
    34   15   20 1   
    35   16   17 1   
    36   17   18 1   
    37   18   38 1   
    38   22   41 1   
    39   23   41 1   
    40   37   40 1   
@<TRIPOS>SUBSTRUCTURE
     1 TKT         1 TEMP              0 ****  ****    0 ROOT
