@<TRIPOS>MOLECULE
TKT
   41    38     1     0     0
SMALL
bcc


@<TRIPOS>ATOM
      1 C12         0.3090    0.1440    0.1140 c2        1 TKT     -0.157000
      2 O4         -0.9580   -1.7270   -0.7920 o         1 TKT     -0.354000
      3 C9         -0.2220   -0.7390   -0.9040 c2        1 TKT      0.369000
      4 C11         1.2930    1.2610   -0.1970 c3        1 TKT     -0.118000
      5 O3          0.1660   -0.4260   -2.1780 oh        1 TKT     -0.331000
      6 C7          0.0390   -3.4660   -3.6830 c3        1 TKT     -0.199000
      7 C6          1.0390    1.1520   -5.1200 c2        1 TKT     -0.226000
      8 N1         -0.8740   -2.9570   -5.9440 n3        1 TKT     -0.286000
      9 C5          0.9900    2.4780   -5.2700 c2        1 TKT     -0.085000
     10 C4          0.7670    3.4140   -4.1890 c2        1 TKT     -0.438000
     11 C1         -1.0100   -2.8330   -4.5460 c2        1 TKT     -0.003000
     12 C2         -2.0770   -2.2360   -3.9690 c2        1 TKT     -0.337000
     13 C3          0.6170    3.1560   -2.9070 c1        1 TKT      0.192000
     14 C13         0.8670    1.8720    4.5550 c1        1 TKT     -0.146000
     15 C15         0.8910    1.2980    2.0170 c2        1 TKT      0.076000
     16 C16         0.0590    0.1690    1.4620 c2        1 TKT      0.086000
     17 C17        -0.7680   -0.6350    2.2360 c1        1 TKT     -0.139000
     18 C18        -1.4830   -1.3290    2.9020 c1        1 TKT     -0.130000
     19 N10         1.5900    1.9090    1.0780 n2        1 TKT     -0.100000
     20 C21         0.8810    1.6110    3.3880 c1        1 TKT     -0.123000
     21 H11         0.8490    2.0130   -0.9160 h1        1 TKT      0.168000
     22 H81C        0.9800   -1.9400   -6.3110 h1        1 TKT      0.072333
     23 H82C        0.3670   -3.0610   -7.6120 h1        1 TKT      0.072333
     24 H83C        1.0640   -3.7440   -6.0720 h1        1 TKT      0.072333
     25 H10         2.2400    0.8580   -0.6480 h1        1 TKT      0.168000
     26 H3         -0.2600   -1.0440   -2.8030 ho        1 TKT      0.256000
     27 H71C       -0.2410   -3.3660   -2.6030 hc        1 TKT      0.093000
     28 H72C        0.1430   -4.5530   -3.9240 hc        1 TKT      0.093000
     29 H61C        0.9090    0.6520   -4.1500 ha        1 TKT      0.121500
     30 H62C        1.2140    0.4810   -5.9720 ha        1 TKT      0.121500
     31 H1          1.0290   -2.9700   -3.8400 hc        1 TKT      0.093000
     32 H5         -1.5270   -2.3860   -6.4440 hn        1 TKT      0.183000
     33 H41C        1.1230    2.9400   -6.2640 ha        1 TKT      0.126000
     34 H42C        0.7210    4.4840   -4.4920 ha        1 TKT      0.193000
     35 H21C       -2.2160   -2.2520   -2.8800 ha        1 TKT      0.127000
     36 H22C       -2.8740   -1.7460   -4.5380 ha        1 TKT      0.127000
     37 H13        -3.6690   -3.0190    4.7880 ha        1 TKT      0.001000
     38 H18        -2.1180   -1.9480    3.4880 ha        1 TKT      0.233000
     39 H21         0.8510    2.1000    5.5910 ha        1 TKT      0.230000
     40 H17        -3.2780   -3.5530    4.6470 ha        1 TKT      0.001000
     41 C8          0.4460   -2.9120   -6.5030 c3        1 TKT     -0.104000
@<TRIPOS>BOND
     1    1    3 1   
     2    1    4 1   
     3    1   16 1   
     4    2    3 1   
     5    3    5 1   
     6    4   19 1   
     7    4   21 1   
     8    4   25 1   
     9    5   26 1   
    10    6   11 1   
    11    6   27 1   
    12    6   28 1   
    13    6   31 1   
    14    7    9 1   
    15    7   29 1   
    16    7   30 1   
    17    8   11 1   
    18    8   32 1   
    19    8   41 1   
    20    9   10 1   
    21    9   33 1   
    22   10   13 1   
    23   10   34 1   
    24   11   12 1   
    25   12   35 1   
    26   12   36 1   
    27   14   20 1   
    28   14   39 1   
    29   15   16 1   
    30   15   19 1   
    31   15   20 1   
    32   16   17 1   
    33   17   18 1   
    34   18   38 1   
    35   22   41 1   
    36   23   41 1   
    37   24   41 1   
    38   37   40 1   
@<TRIPOS>SUBSTRUCTURE
     1 TKT         1 TEMP              0 ****  ****    0 ROOT
