@<TRIPOS>MOLECULE
TKT
   41    44     1     0     0
SMALL
bcc


@<TRIPOS>ATOM
      1 C12         1.6630    0.0150    0.3050 cc        1 TKT     -0.206400
      2 O4          0.5270   -2.0800   -0.0940 o         1 TKT     -0.556000
      3 C9          0.5350   -0.8840    0.2200 c         1 TKT      0.680300
      4 C11         1.6310    1.3720    0.6580 cd        1 TKT     -0.022100
      5 O3         -0.6590   -0.2860    0.5430 os        1 TKT     -0.459900
      6 C7         -2.6770    1.2880   -1.1910 c3        1 TKT     -0.105900
      7 C6         -2.9310    1.7240    0.2530 c3        1 TKT     -0.105900
      8 N1         -4.4500   -0.1080   -0.2730 n3        1 TKT     -0.693600
      9 C5         -3.7640    0.5600    0.8600 c3        1 TKT      0.155500
     10 C4         -2.8140   -0.4590    1.5060 c3        1 TKT     -0.073400
     11 C1         -3.3730   -0.0990   -1.2940 c3        1 TKT      0.155500
     12 C2         -2.3680   -1.2010   -0.9330 c3        1 TKT     -0.073400
     13 C3         -1.8520   -1.1040    0.5040 c3        1 TKT      0.162100
     14 C13         5.8110   -0.2830   -0.3080 ca        1 TKT     -0.114000
     15 C15         3.8060    0.8820    0.2510 ca        1 TKT     -0.062200
     16 C16         3.0450   -0.3270    0.0380 ca        1 TKT     -0.051800
     17 C17         3.6990   -1.4970   -0.3470 ca        1 TKT     -0.078000
     18 C18         5.0750   -1.4630   -0.5170 ca        1 TKT     -0.148000
     19 N10         2.9130    1.8980    0.6270 na        1 TKT     -0.183400
     20 C21         5.1970    0.9010    0.0750 ca        1 TKT     -0.140000
     21 H11         0.7610    1.9800    0.9260 h4        1 TKT      0.182000
     22 H81C       -5.5020    1.6340   -0.9960 h1        1 TKT      0.032700
     23 H82C       -6.0830    0.0050   -1.5720 h1        1 TKT      0.032700
     24 H83C       -6.3960    0.5290    0.1460 h1        1 TKT      0.032700
     25 H10         3.1650    2.8280    0.8360 hn        1 TKT      0.303700
     26 H3         -1.5800   -2.1380    0.8620 h1        1 TKT      0.070700
     27 H71C       -3.1250    2.0060   -1.9180 hc        1 TKT      0.048700
     28 H72C       -1.5860    1.1990   -1.4040 hc        1 TKT      0.048700
     29 H61C       -1.9730    1.8570    0.8110 hc        1 TKT      0.048700
     30 H62C       -3.5060    2.6800    0.2950 hc        1 TKT      0.048700
     31 H1         -3.7870   -0.2790   -2.3190 h1        1 TKT      0.063200
     32 H5         -4.5020    0.9290    1.6170 h1        1 TKT      0.063200
     33 H41C       -2.2250    0.0570    2.3080 hc        1 TKT      0.059450
     34 H42C       -3.4160   -1.2760    1.9820 hc        1 TKT      0.059450
     35 H21C       -2.8580   -2.2010   -1.0620 hc        1 TKT      0.059450
     36 H22C       -1.4980   -1.1500   -1.6370 hc        1 TKT      0.059450
     37 H13         6.9020   -0.3010   -0.4540 ha        1 TKT      0.132000
     38 H18         5.6090   -2.3760   -0.8210 ha        1 TKT      0.134000
     39 H21         5.7790    1.8180    0.2360 ha        1 TKT      0.133000
     40 H17         3.1140   -2.4170   -0.5080 ha        1 TKT      0.161000
     41 C8         -5.6560    0.5610   -0.6970 c3        1 TKT      0.144100
@<TRIPOS>BOND
     1    1    3 1   
     2    1    4 2   
     3    1   16 1   
     4    2    3 2   
     5    3    5 1   
     6    4   19 1   
     7    4   21 1   
     8    5   13 1   
     9    6    7 1   
    10    6   11 1   
    11    6   27 1   
    12    6   28 1   
    13    7    9 1   
    14    7   29 1   
    15    7   30 1   
    16    8    9 1   
    17    8   11 1   
    18    8   41 1   
    19    9   10 1   
    20    9   32 1   
    21   10   13 1   
    22   10   33 1   
    23   10   34 1   
    24   11   12 1   
    25   11   31 1   
    26   12   13 1   
    27   12   35 1   
    28   12   36 1   
    29   13   26 1   
    30   14   18 ar  
    31   14   20 ar  
    32   14   37 1   
    33   15   16 ar  
    34   15   19 1   
    35   15   20 ar  
    36   16   17 ar  
    37   17   18 ar  
    38   17   40 1   
    39   18   38 1   
    40   19   25 1   
    41   20   39 1   
    42   22   41 1   
    43   23   41 1   
    44   24   41 1   
@<TRIPOS>SUBSTRUCTURE
     1 TKT         1 TEMP              0 ****  ****    0 ROOT
