@<TRIPOS>MOLECULE
TKW
   34    35     1     0     0
SMALL
bcc


@<TRIPOS>ATOM
      1 OAF        -0.8410    1.6250    0.2580 o         1 TKW     -0.927833
      2 PAV        -2.2720    1.2960   -0.1370 p5        1 TKW      1.356900
      3 OAG        -2.8610    0.2570    0.7860 o         1 TKW     -0.927833
      4 OAH        -3.1110    2.4230   -0.6350 o         1 TKW     -0.927833
      5 O5'        -2.0400    0.2640   -1.5040 os        1 TKW     -0.571200
      6 C5'        -0.7870   -0.2180   -1.7600 c3        1 TKW      0.218400
      7 C4'        -0.5480   -1.6340   -1.1800 c3        1 TKW      0.063100
      8 O4'         0.8430   -1.9870   -1.3570 os        1 TKW     -0.439600
      9 C3'        -0.8730   -1.7700    0.3210 c3        1 TKW      0.070100
     10 O3'        -2.0160   -2.5710    0.5260 oh        1 TKW     -0.653800
     11 C2'         0.3700   -2.4190    0.9550 c3        1 TKW      0.107100
     12 O2'         0.2700   -3.8150    1.1540 oh        1 TKW     -0.613800
     13 C1'         1.4980   -2.1400   -0.0940 c3        1 TKW      0.264500
     14 NAU         2.3070   -0.9650    0.2350 n         1 TKW     -0.361000
     15 CAP         3.7350   -1.0140    0.1630 c         1 TKW      0.820900
     16 OAB         4.2960   -2.1260   -0.0150 o         1 TKW     -0.695500
     17 NAK         4.5020    0.1500    0.3290 nc        1 TKW     -0.756100
     18 CAN         3.8770    1.3310    0.4930 cd        1 TKW      0.709500
     19 NAA         4.6200    2.5150    0.5300 nh        1 TKW     -0.897800
     20 CAO         2.4260    1.4100    0.5920 cd        1 TKW     -0.152500
     21 OAC         1.8360    2.6270    0.8310 oh        1 TKW     -0.566100
     22 CAI         1.6950    0.2460    0.4610 cc        1 TKW     -0.025400
     23 H3         -0.6580   -0.3160   -2.8790 h1        1 TKW      0.003200
     24 H4          0.0090    0.4810   -1.3790 h1        1 TKW      0.003200
     25 H5         -1.1250   -2.3930   -1.7720 h1        1 TKW      0.047700
     26 H6         -1.0660   -0.7370    0.7650 h1        1 TKW      0.158700
     27 H7         -2.7430   -1.9260    0.6560 ho        1 TKW      0.480000
     28 H8          0.6030   -1.9870    1.9620 h1        1 TKW      0.077700
     29 H9         -0.4450   -4.1330    0.5880 ho        1 TKW      0.417000
     30 H10         2.1930   -3.0210   -0.2110 h2        1 TKW      0.108700
     31 H11         5.5720    2.4400    0.8020 hn        1 TKW      0.404300
     32 H12         4.1200    3.2850    0.9150 hn        1 TKW      0.404300
     33 H13         0.8680    2.5310    0.6280 ho        1 TKW      0.522000
     34 H14         0.5680    0.3140    0.5200 h4        1 TKW      0.282000
@<TRIPOS>BOND
     1    1    2 1   
     2    2    3 1   
     3    2    4 1   
     4    2    5 1   
     5    5    6 1   
     6    6    7 1   
     7    6   23 1   
     8    6   24 1   
     9    7    8 1   
    10    7    9 1   
    11    7   25 1   
    12    8   13 1   
    13    9   10 1   
    14    9   11 1   
    15    9   26 1   
    16   10   27 1   
    17   11   12 1   
    18   11   13 1   
    19   11   28 1   
    20   12   29 1   
    21   13   14 1   
    22   13   30 1   
    23   14   15 1   
    24   14   22 1   
    25   15   16 2   
    26   15   17 1   
    27   17   18 2   
    28   18   19 1   
    29   18   20 1   
    30   19   31 1   
    31   19   32 1   
    32   20   21 1   
    33   20   22 2   
    34   21   33 1   
    35   22   34 1   
@<TRIPOS>SUBSTRUCTURE
     1 TKW         1 TEMP              0 ****  ****    0 ROOT
