@<TRIPOS>MOLECULE
TKW
   35    36     1     0     0
SMALL
bcc


@<TRIPOS>ATOM
      1 OAF         0.0000    0.0000    0.0000 o         1 TKW     -0.510167
      2 PAV         1.4800    0.0000    0.0000 p5        1 TKW      0.808900
      3 OAG         2.0170    0.0000    1.5180 o         1 TKW     -0.510167
      4 OAH         2.0170    1.3130   -0.7600 o         1 TKW     -0.510167
      5 O5'         2.0160   -1.3160   -0.7590 os        1 TKW     -0.484200
      6 C5'         1.6270   -1.6590   -2.0910 c3        1 TKW      0.296400
      7 C4'         2.3150   -2.9610   -2.5040 c3        1 TKW      0.149100
      8 O4'         1.7730   -4.0740   -1.7610 os        1 TKW     -0.349600
      9 C3'         2.0090   -3.2860   -3.9830 c3        1 TKW      0.140100
     10 O3'         3.0900   -2.8730   -4.8210 oh        1 TKW     -0.565800
     11 C2'         1.8630   -4.8230   -4.0060 c3        1 TKW      0.108100
     12 O2'         2.8490   -5.4070   -4.8600 oh        1 TKW     -0.569800
     13 C1'         2.0990   -5.2460   -2.5400 c3        1 TKW      0.207500
     14 NAU         1.2160   -6.3590   -2.1810 n         1 TKW      0.063000
     15 CAP        -0.1190   -6.1920   -2.2170 c         1 TKW      0.716900
     16 OAB        -0.5790   -5.1130   -2.5500 o         1 TKW     -0.693500
     17 NAK        -0.9460   -7.1850   -1.8970 nc        1 TKW     -0.667100
     18 CAN        -0.4750   -8.3700   -1.5310 cd        1 TKW     -0.009500
     19 NAA        -1.3410   -9.3880   -1.2030 nz        1 TKW      0.301400
     20 CAO         0.9210   -8.5810   -1.4820 cd        1 TKW     -0.063500
     21 OAC         1.4260   -9.7900   -1.1100 oh        1 TKW     -0.516100
     22 CAI         1.7510   -7.5620   -1.8170 cc        1 TKW     -0.208400
     23 H3          1.9200   -0.8650   -2.7680 h1        1 TKW     -0.008800
     24 H4          0.5530   -1.7900   -2.1300 h1        1 TKW     -0.008800
     25 H5          3.3850   -2.8940   -2.3490 h1        1 TKW      0.032700
     26 H6          1.0830   -2.8150   -4.2890 h1        1 TKW      0.024700
     27 H7          2.7540   -2.3660   -5.5410 ho        1 TKW      0.377000
     28 H8          0.8660   -5.1020   -4.3230 h1        1 TKW      0.042700
     29 H9          2.4260   -5.8010   -5.6050 ho        1 TKW      0.376000
     30 H10         3.1370   -5.5180   -2.3900 h2        1 TKW      0.032700
     31 H11        -1.1530  -10.1850   -1.7780 hn        1 TKW      0.154133
     32 H12        -1.2170   -9.6350   -0.2410 hn        1 TKW      0.154133
     33 H13         1.9700   -9.6830   -0.3470 ho        1 TKW      0.401000
     34 H14         2.8260   -7.6980   -1.7870 h4        1 TKW      0.132000
     35 HAA3       -2.2830   -9.0850   -1.3500 hn        1 TKW      0.154133
@<TRIPOS>BOND
     1    1    2 1   
     2    2    3 1   
     3    2    4 1   
     4    2    5 1   
     5    5    6 1   
     6    6    7 1   
     7    6   23 1   
     8    6   24 1   
     9    7    8 1   
    10    7    9 1   
    11    7   25 1   
    12    8   13 1   
    13    9   10 1   
    14    9   11 1   
    15    9   26 1   
    16   10   27 1   
    17   11   12 1   
    18   11   13 1   
    19   11   28 1   
    20   12   29 1   
    21   13   14 1   
    22   13   30 1   
    23   14   15 1   
    24   14   22 1   
    25   15   16 2   
    26   15   17 1   
    27   17   18 2   
    28   18   19 1   
    29   18   20 1   
    30   19   31 1   
    31   19   32 1   
    32   19   35 1   
    33   20   21 1   
    34   20   22 2   
    35   21   33 1   
    36   22   34 1   
@<TRIPOS>SUBSTRUCTURE
     1 TKW         1 TEMP              0 ****  ****    0 ROOT
