@<TRIPOS>MOLECULE
TL1
   52    55     1     0     0
SMALL
bcc


@<TRIPOS>ATOM
      1 N1          0.9330   -1.4300    0.3820 n2        1 TL1     -0.686100
      2 C1          1.8160   -0.5720    0.0980 ce        1 TL1      0.608800
      3 N2          2.6870    0.1750    1.1170 nz        1 TL1     -0.857100
      4 C2          2.1560   -0.1330   -1.2790 ca        1 TL1     -0.205900
      5 C3          3.4530   -0.3290   -1.7730 ca        1 TL1     -0.142000
      6 C4          3.7470    0.0430   -3.0830 ca        1 TL1     -0.076500
      7 C5          2.7660    0.6020   -3.9010 ca        1 TL1     -0.141000
      8 C6          1.4730    0.7920   -3.3960 ca        1 TL1      0.137600
      9 O1          0.4120    1.2820   -4.1310 os        1 TL1     -0.310900
     10 C7          0.7350    2.1440   -5.2300 c3        1 TL1      0.090100
     11 C8         -0.5300    2.9850   -5.4780 c3        1 TL1      0.124400
     12 O2         -1.0080    2.7290   -6.8040 os        1 TL1     -0.406100
     13 C9         -0.2090    1.7470   -7.4580 c3        1 TL1      0.090600
     14 C10        -1.0070    0.4370   -7.6320 c3        1 TL1      0.090100
     15 O3         -0.9950   -0.0030   -8.9960 os        1 TL1     -0.310900
     16 C11        -1.8840    0.6020   -9.8580 ca        1 TL1      0.137600
     17 C12        -2.6280    1.7560   -9.5710 ca        1 TL1     -0.141000
     18 C13        -3.4760    2.2830  -10.5450 ca        1 TL1     -0.076500
     19 C14        -3.5870    1.6790  -11.7960 ca        1 TL1     -0.142000
     20 C15        -2.8350    0.5310  -12.0740 ca        1 TL1     -0.205900
     21 C16        -2.8950   -0.0880  -13.4170 ce        1 TL1      0.608800
     22 N3         -2.0120   -0.2260  -14.3270 n2        1 TL1     -0.686100
     23 N4         -4.2640   -0.6430  -13.7180 nz        1 TL1     -0.857100
     24 C17        -1.9840   -0.0230  -11.1170 ca        1 TL1     -0.109500
     25 C18        -0.2230   -0.6220   -6.8390 c3        1 TL1      0.124400
     26 O4          0.9980   -0.0320   -6.3710 os        1 TL1     -0.406100
     27 C19         0.9800    1.3780   -6.5480 c3        1 TL1      0.090600
     28 C20         1.1540    0.4230   -2.0740 ca        1 TL1     -0.109500
     29 HN1         0.6980   -1.7180    1.3070 hn        1 TL1      0.480400
     30 HN21        2.6150   -0.2110    2.0600 hn        1 TL1      0.466133
     31 HN22        2.4000    1.1590    1.1340 hn        1 TL1      0.466133
     32 H3          4.2310   -0.8100   -1.1620 ha        1 TL1      0.141000
     33 H4          4.7610   -0.1220   -3.4840 ha        1 TL1      0.168500
     34 H5          2.9920    0.8540   -4.9500 ha        1 TL1      0.176000
     35 H7          1.6160    2.7860   -4.9710 h1        1 TL1      0.086200
     36 H81        -1.3530    2.7130   -4.7670 h1        1 TL1      0.082450
     37 H82        -0.3080    4.0820   -5.4260 h1        1 TL1      0.082450
     38 H9          0.1000    2.1790   -8.4450 h1        1 TL1      0.100200
     39 H10        -2.0610    0.5420   -7.2640 h1        1 TL1      0.086200
     40 H12        -2.5350    2.2600   -8.5930 ha        1 TL1      0.176000
     41 H13        -4.0570    3.1950  -10.3240 ha        1 TL1      0.168500
     42 H14        -4.2360    2.1300  -12.5610 ha        1 TL1      0.141000
     43 HN3        -1.0940    0.1370  -14.1670 hn        1 TL1      0.480400
     44 HN41       -4.3450   -0.9670  -14.6910 hn        1 TL1      0.466133
     45 HN42       -4.9540    0.0950  -13.5420 hn        1 TL1      0.466133
     46 H17        -1.3830   -0.9220  -11.3220 ha        1 TL1      0.169000
     47 H181       -0.8070   -0.9560   -5.9440 h1        1 TL1      0.082450
     48 H182        0.0760   -1.4960   -7.4740 h1        1 TL1      0.082450
     49 H19         1.9730    1.6490   -6.9940 h1        1 TL1      0.100200
     50 H20         0.1250    0.5540   -1.7070 ha        1 TL1      0.169000
     51 H23         3.6640    0.1290    0.8100 hn        1 TL1      0.466133
     52 H43        -4.4400   -1.4290  -13.0830 hn        1 TL1      0.466133
@<TRIPOS>BOND
     1    1    2 2   
     2    1   29 1   
     3    2    3 1   
     4    2    4 1   
     5    3   30 1   
     6    3   31 1   
     7    3   51 1   
     8    4    5 ar  
     9    4   28 ar  
    10    5    6 ar  
    11    5   32 1   
    12    6    7 ar  
    13    6   33 1   
    14    7    8 ar  
    15    7   34 1   
    16    8    9 1   
    17    8   28 ar  
    18    9   10 1   
    19   10   11 1   
    20   10   27 1   
    21   10   35 1   
    22   11   12 1   
    23   11   36 1   
    24   11   37 1   
    25   12   13 1   
    26   13   14 1   
    27   13   27 1   
    28   13   38 1   
    29   14   15 1   
    30   14   25 1   
    31   14   39 1   
    32   15   16 1   
    33   16   17 ar  
    34   16   24 ar  
    35   17   18 ar  
    36   17   40 1   
    37   18   19 ar  
    38   18   41 1   
    39   19   20 ar  
    40   19   42 1   
    41   20   21 1   
    42   20   24 ar  
    43   21   22 2   
    44   21   23 1   
    45   22   43 1   
    46   23   44 1   
    47   23   45 1   
    48   23   52 1   
    49   24   46 1   
    50   25   26 1   
    51   25   47 1   
    52   25   48 1   
    53   26   27 1   
    54   27   49 1   
    55   28   50 1   
@<TRIPOS>SUBSTRUCTURE
     1 TL1         1 TEMP              0 ****  ****    0 ROOT
