@<TRIPOS>MOLECULE
TL1
   50    53     1     0     0
SMALL
bcc


@<TRIPOS>ATOM
      1 N1          6.9270    1.5140    2.3650 n2        1 TL1     -0.829100
      2 C1          7.0240    0.8560    1.2470 ce        1 TL1      0.645800
      3 N2          8.1870    0.9100    0.4550 nh        1 TL1     -0.927300
      4 C2          5.9100    0.0470    0.6510 ca        1 TL1     -0.137900
      5 C3          6.0870   -1.3140    0.3850 ca        1 TL1     -0.145000
      6 C4          5.0350   -2.0630   -0.1400 ca        1 TL1     -0.103000
      7 C5          3.8060   -1.4640   -0.4100 ca        1 TL1     -0.173000
      8 C6          3.6430   -0.0980   -0.1510 ca        1 TL1      0.109600
      9 O1          2.4410    0.5700   -0.3300 os        1 TL1     -0.320900
     10 C7          1.6860    0.1810   -1.4810 c3        1 TL1      0.092600
     11 C8          0.8990    1.4310   -1.9110 c3        1 TL1      0.120900
     12 O2         -0.5030    1.1510   -1.8350 os        1 TL1     -0.406600
     13 C9         -0.7360   -0.1390   -1.2760 c3        1 TL1      0.091100
     14 C10        -1.2620   -0.0260    0.1730 c3        1 TL1      0.092600
     15 O3         -2.4810   -0.7540    0.3310 os        1 TL1     -0.320900
     16 C11        -3.6490   -0.0700    0.0350 ca        1 TL1      0.109600
     17 C12        -3.7120    1.0670   -0.7780 ca        1 TL1     -0.173000
     18 C13        -4.9560    1.6440   -1.0380 ca        1 TL1     -0.103000
     19 C14        -6.1190    1.0990   -0.4990 ca        1 TL1     -0.145000
     20 C15        -6.0430   -0.0410    0.3100 ca        1 TL1     -0.137900
     21 C16        -7.2960   -0.6310    0.8850 ce        1 TL1      0.645800
     22 N3         -7.5370   -1.8900    0.6780 n2        1 TL1     -0.829100
     23 N4         -8.0470    0.2680    1.6710 nh        1 TL1     -0.927300
     24 C17        -4.8140   -0.6370    0.5840 ca        1 TL1     -0.113500
     25 C18        -0.2140   -0.7450    1.0380 c3        1 TL1      0.120900
     26 O4          0.7240   -1.3940    0.1680 os        1 TL1     -0.406600
     27 C19         0.6120   -0.8800   -1.1530 c3        1 TL1      0.091100
     28 C20         4.6910    0.6700    0.3820 ca        1 TL1     -0.113500
     29 HN1         6.0210    1.4790    2.7810 hn        1 TL1      0.389400
     30 HN21        8.9980    1.2820    0.9010 hn        1 TL1      0.400050
     31 HN22        8.3580    0.0760   -0.0600 hn        1 TL1      0.400050
     32 H3          7.0490   -1.8010    0.6020 ha        1 TL1      0.132500
     33 H4          5.1710   -3.1380   -0.3350 ha        1 TL1      0.138000
     34 H5          2.9600   -2.0540   -0.7930 ha        1 TL1      0.155500
     35 H7          2.3660   -0.1820   -2.2940 h1        1 TL1      0.079200
     36 H81         1.1090    2.3000   -1.2360 h1        1 TL1      0.071950
     37 H82         1.1100    1.7020   -2.9770 h1        1 TL1      0.071950
     38 H9         -1.4760   -0.6510   -1.9430 h1        1 TL1      0.095200
     39 H10        -1.3920    1.0450    0.4770 h1        1 TL1      0.079200
     40 H12        -2.8000    1.4970   -1.2200 ha        1 TL1      0.155500
     41 H13        -5.0140    2.5350   -1.6810 ha        1 TL1      0.138000
     42 H14        -7.0920    1.5570   -0.7260 ha        1 TL1      0.132500
     43 HN3        -8.3790   -2.2530    1.0720 hn        1 TL1      0.389400
     44 HN41       -9.0090    0.0600    1.8010 hn        1 TL1      0.400050
     45 HN42       -7.8450    1.2320    1.5400 hn        1 TL1      0.400050
     46 H17        -4.7430   -1.5430    1.2040 ha        1 TL1      0.162000
     47 H181        0.3510   -0.0100    1.6660 h1        1 TL1      0.071950
     48 H182       -0.6630   -1.5560    1.6660 h1        1 TL1      0.071950
     49 H19         0.6960   -1.7650   -1.8350 h1        1 TL1      0.095200
     50 H20         4.5400    1.7400    0.5830 ha        1 TL1      0.162000
@<TRIPOS>BOND
     1    1    2 2   
     2    1   29 1   
     3    2    3 1   
     4    2    4 1   
     5    3   30 1   
     6    3   31 1   
     7    4    5 ar  
     8    4   28 ar  
     9    5    6 ar  
    10    5   32 1   
    11    6    7 ar  
    12    6   33 1   
    13    7    8 ar  
    14    7   34 1   
    15    8    9 1   
    16    8   28 ar  
    17    9   10 1   
    18   10   11 1   
    19   10   27 1   
    20   10   35 1   
    21   11   12 1   
    22   11   36 1   
    23   11   37 1   
    24   12   13 1   
    25   13   14 1   
    26   13   27 1   
    27   13   38 1   
    28   14   15 1   
    29   14   25 1   
    30   14   39 1   
    31   15   16 1   
    32   16   17 ar  
    33   16   24 ar  
    34   17   18 ar  
    35   17   40 1   
    36   18   19 ar  
    37   18   41 1   
    38   19   20 ar  
    39   19   42 1   
    40   20   21 1   
    41   20   24 ar  
    42   21   22 2   
    43   21   23 1   
    44   22   43 1   
    45   23   44 1   
    46   23   45 1   
    47   24   46 1   
    48   25   26 1   
    49   25   47 1   
    50   25   48 1   
    51   26   27 1   
    52   27   49 1   
    53   28   50 1   
@<TRIPOS>SUBSTRUCTURE
     1 TL1         1 TEMP              0 ****  ****    0 ROOT
