@<TRIPOS>MOLECULE
TL1
   52    55     1     0     0
SMALL
bcc


@<TRIPOS>ATOM
      1 N1          0.9860   -1.5560    0.3340 n2        1 TL1     -0.686100
      2 C1          1.8390   -0.6610    0.0730 ce        1 TL1      0.608800
      3 N2          2.6810    0.0910    1.1130 n4        1 TL1     -0.857100
      4 C2          2.1680   -0.1780   -1.2910 ca        1 TL1     -0.205900
      5 C3          3.4720   -0.3170   -1.7850 ca        1 TL1     -0.142000
      6 C4          3.7570    0.0970   -3.0850 ca        1 TL1     -0.076500
      7 C5          2.7580    0.6410   -3.8930 ca        1 TL1     -0.141000
      8 C6          1.4580    0.7740   -3.3880 ca        1 TL1      0.137600
      9 O1          0.3840    1.2440   -4.1140 os        1 TL1     -0.310900
     10 C7          0.6790    2.1440   -5.1910 c3        1 TL1      0.090100
     11 C8         -0.6130    2.9460   -5.4230 c3        1 TL1      0.124400
     12 O2         -1.0790    2.7070   -6.7570 os        1 TL1     -0.406100
     13 C9         -0.2450    1.7690   -7.4310 c3        1 TL1      0.090600
     14 C10        -0.9970    0.4360   -7.6390 c3        1 TL1      0.090100
     15 O3         -0.9660    0.0310   -9.0140 os        1 TL1     -0.310900
     16 C11        -1.8730    0.6250   -9.8640 ca        1 TL1      0.137600
     17 C12        -2.6570    1.7460   -9.5520 ca        1 TL1     -0.141000
     18 C13        -3.5200    2.2670  -10.5150 ca        1 TL1     -0.076500
     19 C14        -3.6070    1.6900  -11.7810 ca        1 TL1     -0.142000
     20 C15        -2.8160    0.5750  -12.0840 ca        1 TL1     -0.205900
     21 C16        -2.8510   -0.0130  -13.4410 ce        1 TL1      0.608800
     22 N3         -1.9610   -0.0980  -14.3520 n2        1 TL1     -0.686100
     23 N4         -4.1990   -0.6070  -13.7600 n4        1 TL1     -0.857100
     24 C17        -1.9480    0.0280  -11.1380 ca        1 TL1     -0.109500
     25 C18        -0.1790   -0.6140   -6.8700 c3        1 TL1      0.124400
     26 O4          1.0190    0.0060   -6.3830 os        1 TL1     -0.406100
     27 C19         0.9540    1.4190   -6.5260 c3        1 TL1      0.090600
     28 C20         1.1490    0.3630   -2.0760 ca        1 TL1     -0.109500
     29 HN1         0.7590   -1.8740    1.2510 hn        1 TL1      0.480400
     30 HN21        2.3600    1.0630    1.1530 hn        1 TL1      0.466133
     31 HN22        3.6610    0.0860    0.8090 hn        1 TL1      0.466133
     32 H3          4.2640   -0.7860   -1.1830 ha        1 TL1      0.141000
     33 H4          4.7770   -0.0240   -3.4870 ha        1 TL1      0.168500
     34 H5          2.9790    0.9260   -4.9350 ha        1 TL1      0.176000
     35 H7          1.5370    2.8090   -4.9130 h1        1 TL1      0.086200
     36 H81        -1.4290    2.6290   -4.7220 h1        1 TL1      0.082450
     37 H82        -0.4300    4.0480   -5.3430 h1        1 TL1      0.082450
     38 H9          0.0510    2.2350   -8.4060 h1        1 TL1      0.100200
     39 H10        -2.0550    0.4970   -7.2730 h1        1 TL1      0.086200
     40 H12        -2.5840    2.2280   -8.5610 ha        1 TL1      0.176000
     41 H13        -4.1330    3.1520  -10.2740 ha        1 TL1      0.168500
     42 H14        -4.2700    2.1370  -12.5370 ha        1 TL1      0.141000
     43 HN3        -1.0570    0.2920  -14.1800 hn        1 TL1      0.480400
     44 HN41       -4.2660   -0.9100  -14.7410 hn        1 TL1      0.466133
     45 HN42       -4.9150    0.1030  -13.5690 hn        1 TL1      0.466133
     46 H17        -1.3170   -0.8450  -11.3620 ha        1 TL1      0.169000
     47 H181       -0.7530   -0.9890   -5.9850 h1        1 TL1      0.082450
     48 H182        0.1520   -1.4610   -7.5240 h1        1 TL1      0.082450
     49 H19         1.9380    1.7340   -6.9620 h1        1 TL1      0.100200
     50 H20         0.1150    0.4490   -1.7090 ha        1 TL1      0.169000
     51 H23         2.6200   -0.3200    2.0470 hn        1 TL1      0.466133
     52 H43        -4.3500   -1.4130  -13.1450 hn        1 TL1      0.466133
@<TRIPOS>BOND
     1    1    2 2   
     2    1   29 1   
     3    2    3 1   
     4    2    4 1   
     5    3   30 1   
     6    3   31 1   
     7    3   51 1   
     8    4    5 ar  
     9    4   28 ar  
    10    5    6 ar  
    11    5   32 1   
    12    6    7 ar  
    13    6   33 1   
    14    7    8 ar  
    15    7   34 1   
    16    8    9 1   
    17    8   28 ar  
    18    9   10 1   
    19   10   11 1   
    20   10   27 1   
    21   10   35 1   
    22   11   12 1   
    23   11   36 1   
    24   11   37 1   
    25   12   13 1   
    26   13   14 1   
    27   13   27 1   
    28   13   38 1   
    29   14   15 1   
    30   14   25 1   
    31   14   39 1   
    32   15   16 1   
    33   16   17 ar  
    34   16   24 ar  
    35   17   18 ar  
    36   17   40 1   
    37   18   19 ar  
    38   18   41 1   
    39   19   20 ar  
    40   19   42 1   
    41   20   21 1   
    42   20   24 ar  
    43   21   22 2   
    44   21   23 1   
    45   22   43 1   
    46   23   44 1   
    47   23   45 1   
    48   23   52 1   
    49   24   46 1   
    50   25   26 1   
    51   25   47 1   
    52   25   48 1   
    53   26   27 1   
    54   27   49 1   
    55   28   50 1   
@<TRIPOS>SUBSTRUCTURE
     1 TL1         1 TEMP              0 ****  ****    0 ROOT
