@<TRIPOS>MOLECULE
TL1
   52    55     1     0     0
SMALL
bcc


@<TRIPOS>ATOM
      1 N1          0.9460   -1.5110    0.3540 n2        1 TL1     -0.686100
      2 C1          1.8150   -0.6340    0.0850 ce        1 TL1      0.608800
      3 N2          2.6700    0.1120    1.1190 n4        1 TL1     -0.857100
      4 C2          2.1530   -0.1690   -1.2830 ca        1 TL1     -0.205900
      5 C3          3.4540   -0.3350   -1.7760 ca        1 TL1     -0.142000
      6 C4          3.7460    0.0610   -3.0790 ca        1 TL1     -0.076500
      7 C5          2.7580    0.6150   -3.8920 ca        1 TL1     -0.141000
      8 C6          1.4600    0.7750   -3.3890 ca        1 TL1      0.137600
      9 O1          0.3950    1.2580   -4.1200 os        1 TL1     -0.310900
     10 C7          0.7060    2.1420   -5.2050 c3        1 TL1      0.090100
     11 C8         -0.5720    2.9650   -5.4460 c3        1 TL1      0.124400
     12 O2         -1.0420    2.7200   -6.7770 os        1 TL1     -0.406100
     13 C9         -0.2250    1.7620   -7.4420 c3        1 TL1      0.090600
     14 C10        -1.0000    0.4400   -7.6370 c3        1 TL1      0.090100
     15 O3         -0.9760    0.0210   -9.0080 os        1 TL1     -0.310900
     16 C11        -1.8730    0.6230   -9.8640 ca        1 TL1      0.137600
     17 C12        -2.6370    1.7590   -9.5630 ca        1 TL1     -0.141000
     18 C13        -3.4910    2.2860  -10.5310 ca        1 TL1     -0.076500
     19 C14        -3.5890    1.6970  -11.7910 ca        1 TL1     -0.142000
     20 C15        -2.8170    0.5660  -12.0840 ca        1 TL1     -0.205900
     21 C16        -2.8620   -0.0340  -13.4340 ce        1 TL1      0.608800
     22 N3         -1.9750   -0.1440  -14.3440 n2        1 TL1     -0.686100
     23 N4         -4.2210   -0.6090  -13.7470 n4        1 TL1     -0.857100
     24 C17        -1.9580    0.0140  -11.1320 ca        1 TL1     -0.109500
     25 C18        -0.2000   -0.6160   -6.8570 c3        1 TL1      0.124400
     26 O4          1.0090   -0.0130   -6.3770 os        1 TL1     -0.406100
     27 C19         0.9680    1.3990   -6.5340 c3        1 TL1      0.090600
     28 C20         1.1440    0.3820   -2.0740 ca        1 TL1     -0.109500
     29 HN1         0.7130   -1.8170    1.2730 hn        1 TL1      0.480400
     30 HN21        3.6500    0.0870    0.8150 hn        1 TL1      0.466133
     31 HN22        2.3670    1.0910    1.1500 hn        1 TL1      0.466133
     32 H3          4.2380   -0.8130   -1.1690 ha        1 TL1      0.141000
     33 H4          4.7640   -0.0820   -3.4790 ha        1 TL1      0.168500
     34 H5          2.9840    0.8860   -4.9370 ha        1 TL1      0.176000
     35 H7          1.5750    2.7950   -4.9340 h1        1 TL1      0.086200
     36 H81        -1.3930    2.6690   -4.7410 h1        1 TL1      0.082450
     37 H82        -0.3690    4.0640   -5.3770 h1        1 TL1      0.082450
     38 H9          0.0800    2.2120   -8.4210 h1        1 TL1      0.100200
     39 H10        -2.0560    0.5230   -7.2720 h1        1 TL1      0.086200
     40 H12        -2.5550    2.2510   -8.5770 ha        1 TL1      0.176000
     41 H13        -4.0880    3.1840  -10.3000 ha        1 TL1      0.168500
     42 H14        -4.2430    2.1480  -12.5520 ha        1 TL1      0.141000
     43 HN3        -1.0640    0.2320  -14.1770 hn        1 TL1      0.480400
     44 HN41       -4.3850   -1.4060  -13.1240 hn        1 TL1      0.466133
     45 HN42       -4.9240    0.1150  -13.5630 hn        1 TL1      0.466133
     46 H17        -1.3420   -0.8730  -11.3470 ha        1 TL1      0.169000
     47 H181       -0.7810   -0.9730   -5.9690 h1        1 TL1      0.082450
     48 H182        0.1160   -1.4760   -7.5030 h1        1 TL1      0.082450
     49 H19         1.9570    1.6930   -6.9720 h1        1 TL1      0.100200
     50 H20         0.1110    0.4890   -1.7080 ha        1 TL1      0.169000
     51 H23         2.6010   -0.2890    2.0560 hn        1 TL1      0.466133
     52 H43        -4.2930   -0.9200  -14.7250 hn        1 TL1      0.466133
@<TRIPOS>BOND
     1    1    2 2   
     2    1   29 1   
     3    2    3 1   
     4    2    4 1   
     5    3   30 1   
     6    3   31 1   
     7    3   51 1   
     8    4    5 ar  
     9    4   28 ar  
    10    5    6 ar  
    11    5   32 1   
    12    6    7 ar  
    13    6   33 1   
    14    7    8 ar  
    15    7   34 1   
    16    8    9 1   
    17    8   28 ar  
    18    9   10 1   
    19   10   11 1   
    20   10   27 1   
    21   10   35 1   
    22   11   12 1   
    23   11   36 1   
    24   11   37 1   
    25   12   13 1   
    26   13   14 1   
    27   13   27 1   
    28   13   38 1   
    29   14   15 1   
    30   14   25 1   
    31   14   39 1   
    32   15   16 1   
    33   16   17 ar  
    34   16   24 ar  
    35   17   18 ar  
    36   17   40 1   
    37   18   19 ar  
    38   18   41 1   
    39   19   20 ar  
    40   19   42 1   
    41   20   21 1   
    42   20   24 ar  
    43   21   22 2   
    44   21   23 1   
    45   22   43 1   
    46   23   44 1   
    47   23   45 1   
    48   23   52 1   
    49   24   46 1   
    50   25   26 1   
    51   25   47 1   
    52   25   48 1   
    53   26   27 1   
    54   27   49 1   
    55   28   50 1   
@<TRIPOS>SUBSTRUCTURE
     1 TL1         1 TEMP              0 ****  ****    0 ROOT
