@<TRIPOS>MOLECULE
TL2
   52    54     1     0     0
SMALL
bcc


@<TRIPOS>ATOM
      1 N           2.6340    0.8520   -1.8950 n2        1 TL2     -0.169000
      2 C1          2.8600    0.0370   -0.9390 c2        1 TL2      0.061000
      3 C2          2.8240    0.2140    0.5240 c2        1 TL2     -0.239000
      4 C3          1.9390   -0.4530    1.3130 c2        1 TL2     -0.035000
      5 C4          1.8830   -0.2270    2.7270 c2        1 TL2     -0.136000
      6 C5          3.7520    1.2200    1.1020 c3        1 TL2     -0.179000
      7 C6          3.6840    1.4400    2.5310 c1        1 TL2     -0.064000
      8 C7          2.7410    0.6810    3.3070 c2        1 TL2      0.042000
      9 O8          2.6190    0.8540    4.6590 os        1 TL2     -0.193000
     10 C9          3.5830    1.7240    5.3130 c3        1 TL2     -0.032000
     11 C10         2.7100    2.6100    6.2240 c3        1 TL2     -0.030000
     12 O11         2.5160    2.1680    7.5820 os        1 TL2     -0.192000
     13 C11         4.6580    0.7670    5.8720 c3        1 TL2     -0.035000
     14 C12         3.6920    1.7930    8.1710 c2        1 TL2      0.026000
     15 C13         4.8610    2.4830    8.0300 c2        1 TL2     -0.191000
     16 O14         4.8540    3.8140    7.5750 os        1 TL2     -0.152000
     17 O15         5.8780    1.4050    6.2090 os        1 TL2     -0.256000
     18 C16         5.1940    6.0870    8.0630 ca        1 TL2     -0.096000
     19 C17         6.0670    1.7170    7.6000 c3        1 TL2      0.023000
     20 C18         5.0620    4.7690    8.5520 ca        1 TL2      0.108000
     21 C20         5.1320    4.5000    9.9230 ca        1 TL2     -0.157000
     22 N22         4.4440    4.5630   12.8400 n8        1 TL2     -0.311500
     23 N23         6.4520    5.8250   12.9650 n8        1 TL2     -0.311500
     24 C24         5.3970    7.1270    8.9600 ca        1 TL2     -0.088000
     25 C25         5.4770    6.8800   10.3340 ca        1 TL2     -0.112000
     26 C26         5.3420    5.5710   10.8040 ca        1 TL2     -0.138000
     27 N27         3.2530   -1.3630   -1.3430 nz        1 TL2     -0.059000
     28 HN          2.3610    1.7890   -1.6810 hn        1 TL2      0.246000
     29 H3          1.2180   -1.1790    0.8980 ha        1 TL2      0.146000
     30 H4          1.1400   -0.7810    3.3240 ha        1 TL2      0.183000
     31 H5          3.5800    2.2370    0.6250 hc        1 TL2      0.185500
     32 H6          4.8320    0.9610    0.8690 hc        1 TL2      0.185500
     33 H9          4.0810    2.4050    4.5620 h1        1 TL2      0.164000
     34 H101        3.1400    3.6460    6.2380 h1        1 TL2      0.130000
     35 H102        1.6540    2.6310    5.8320 h1        1 TL2      0.130000
     36 H11         4.2530    0.1380    6.7050 h1        1 TL2      0.104000
     37 H12         4.9510    0.0820    5.0240 h1        1 TL2      0.104000
     38 H13         3.5980    0.8510    8.7370 h4        1 TL2      0.178000
     39 H171        6.1900    0.7720    8.1890 h1        1 TL2      0.118500
     40 H172        7.0080    2.3260    7.6080 h1        1 TL2      0.118500
     41 H20         5.0450    3.4640   10.2820 ha        1 TL2      0.161000
     42 H22         3.6920    4.2370   12.2700 hn        1 TL2      0.278750
     43 H231        4.4260    4.3450   13.8130 hn        1 TL2      0.278750
     44 H232        6.5570    5.7130   13.9500 hn        1 TL2      0.278750
     45 H24         5.6250    7.7230   11.0270 ha        1 TL2      0.154000
     46 H25         5.4980    8.1610    8.5880 ha        1 TL2      0.173000
     47 H271        4.2210   -1.5270   -1.0490 hn        1 TL2      0.267333
     48 H272        2.6360   -2.0240   -0.8610 hn        1 TL2      0.267333
     49 C21         5.4160    5.3080   12.2680 c2        1 TL2      0.342000
     50 H233        7.1460    6.3510   12.4750 hn        1 TL2      0.278750
     51 H273        3.1800   -1.5060   -2.3610 hn        1 TL2      0.267333
     52 H16         5.1370    6.2700    6.9780 ha        1 TL2      0.177000
@<TRIPOS>BOND
     1    1    2 1   
     2    1   28 1   
     3    2    3 1   
     4    2   27 1   
     5    3    4 1   
     6    3    6 1   
     7    4    5 1   
     8    4   29 1   
     9    5    8 1   
    10    5   30 1   
    11    6    7 1   
    12    6   31 1   
    13    6   32 1   
    14    7    8 1   
    15    8    9 1   
    16    9   10 1   
    17   10   11 1   
    18   10   13 1   
    19   10   33 1   
    20   11   12 1   
    21   11   34 1   
    22   11   35 1   
    23   12   14 1   
    24   13   17 1   
    25   13   36 1   
    26   13   37 1   
    27   14   15 1   
    28   14   38 1   
    29   15   16 1   
    30   15   19 1   
    31   16   20 1   
    32   17   19 1   
    33   18   20 1   
    34   18   24 1   
    35   18   52 1   
    36   19   39 1   
    37   19   40 1   
    38   20   21 1   
    39   21   26 1   
    40   21   41 1   
    41   22   42 1   
    42   22   43 1   
    43   22   49 1   
    44   23   44 1   
    45   23   49 1   
    46   23   50 1   
    47   24   25 1   
    48   24   46 1   
    49   25   26 1   
    50   25   45 1   
    51   26   49 1   
    52   27   47 1   
    53   27   48 1   
    54   27   51 1   
@<TRIPOS>SUBSTRUCTURE
     1 TL2         1 TEMP              0 ****  ****    0 ROOT
