@<TRIPOS>MOLECULE
TL2
   50    52     1     0     0
SMALL
bcc


@<TRIPOS>ATOM
      1 N           1.4150   -2.9160   -0.4830 n2        1 TL2     -0.292000
      2 C1          2.4570   -2.2040   -0.1680 c2        1 TL2      0.101000
      3 C2          2.5100   -1.2730    1.0020 c2        1 TL2     -0.128000
      4 C3          2.2190   -1.7080    2.2530 c2        1 TL2     -0.133000
      5 C4          2.2650   -0.8170    3.3770 c2        1 TL2     -0.085000
      6 C5          2.8560    0.1470    0.7510 c3        1 TL2     -0.181000
      7 C6          2.8750    1.0430    1.8910 c1        1 TL2     -0.106000
      8 C7          2.6060    0.5000    3.1840 c2        1 TL2     -0.007000
      9 O8          2.5950    1.3080    4.3080 os        1 TL2     -0.209000
     10 C9          3.3740    2.5120    4.2120 c3        1 TL2      0.057000
     11 C10         2.6100    3.5580    5.0640 c3        1 TL2     -0.037000
     12 O11         3.4910    4.4250    5.7710 os        1 TL2     -0.257000
     13 C11         4.6960    2.2890    4.8490 c2        1 TL2     -0.349000
     14 C12         4.0110    3.9240    6.9930 c3        1 TL2     -0.041000
     15 C13         5.5530    3.7590    6.9870 c3        1 TL2      0.034000
     16 O14         6.1450    4.8410    7.7340 os        1 TL2     -0.208000
     17 O15         5.5960    3.2570    4.6000 os        1 TL2      0.116000
     18 C16         6.9850    3.5780    9.6400 ca        1 TL2     -0.150000
     19 C17         6.1720    3.8330    5.6410 c2        1 TL2     -0.196000
     20 C18         6.2160    4.6190    9.1020 ca        1 TL2      0.045000
     21 C20         5.5800    5.5530    9.9320 ca        1 TL2     -0.124000
     22 N22         5.2090    7.7410   12.0560 n2        1 TL2     -0.296000
     23 N23         4.3450    5.9050   13.2800 n3        1 TL2     -0.330000
     24 C24         7.1120    3.4760   11.0240 ca        1 TL2     -0.119000
     25 C25         6.4860    4.3980   11.8630 ca        1 TL2     -0.107000
     26 C26         5.7260    5.4370   11.3170 ca        1 TL2     -0.099000
     27 N27         3.6210   -2.1970   -0.9690 n3        1 TL2     -0.327000
     28 HN          0.6200   -2.7630    0.0980 hn        1 TL2      0.153000
     29 H3          1.9500   -2.7590    2.4500 ha        1 TL2      0.143000
     30 H4          2.0180   -1.2090    4.3750 ha        1 TL2      0.151000
     31 H5          2.1350    0.5860   -0.0060 hc        1 TL2      0.181500
     32 H6          3.8750    0.2260    0.2590 hc        1 TL2      0.181500
     33 H9          3.4660    2.8560    3.1450 h1        1 TL2      0.159000
     34 H101        2.0480    4.2560    4.3870 h1        1 TL2      0.104500
     35 H102        1.9010    3.0430    5.7630 h1        1 TL2      0.104500
     36 H11         3.5350    2.9520    7.2800 h1        1 TL2      0.096000
     37 H12         4.7840    1.6700    5.7450 h4        1 TL2      0.136000
     38 H13         3.7590    4.7100    7.7610 h1        1 TL2      0.096000
     39 H16         7.4890    2.8610    8.9770 ha        1 TL2      0.143000
     40 H171        5.8000    2.7760    7.4850 h1        1 TL2      0.093000
     41 H172        7.1120    4.3510    5.4330 h4        1 TL2      0.196000
     42 H20         4.9910    6.3670    9.4820 ha        1 TL2      0.158000
     43 H22         5.8280    8.0080   11.3220 hn        1 TL2      0.155000
     44 H231        3.7860    6.5560   13.7900 hn        1 TL2      0.193000
     45 H232        3.8560    5.0740   13.0340 hn        1 TL2      0.193000
     46 H24         6.5980    4.3140   12.9550 ha        1 TL2      0.153000
     47 H25         7.7180    2.6660   11.4580 ha        1 TL2      0.140000
     48 H271        4.4590   -2.1700   -0.4310 hn        1 TL2      0.193000
     49 H272        3.6420   -2.8900   -1.6880 hn        1 TL2      0.193000
     50 C21         5.0760    6.4560   12.2040 c2        1 TL2      0.111000
@<TRIPOS>BOND
     1    1    2 1   
     2    1   28 1   
     3    2    3 1   
     4    2   27 1   
     5    3    4 1   
     6    3    6 1   
     7    4    5 1   
     8    4   29 1   
     9    5    8 1   
    10    5   30 1   
    11    6    7 1   
    12    6   31 1   
    13    6   32 1   
    14    7    8 1   
    15    8    9 1   
    16    9   10 1   
    17   10   11 1   
    18   10   13 1   
    19   10   33 1   
    20   11   12 1   
    21   11   34 1   
    22   11   35 1   
    23   12   14 1   
    24   13   17 1   
    25   13   37 1   
    26   14   15 1   
    27   14   36 1   
    28   14   38 1   
    29   15   16 1   
    30   15   19 1   
    31   15   40 1   
    32   16   20 1   
    33   17   19 1   
    34   18   20 1   
    35   18   24 1   
    36   18   39 1   
    37   19   41 1   
    38   20   21 1   
    39   21   26 1   
    40   21   42 1   
    41   22   43 1   
    42   22   50 1   
    43   23   44 1   
    44   23   45 1   
    45   23   50 1   
    46   24   25 1   
    47   24   47 1   
    48   25   26 1   
    49   25   46 1   
    50   26   50 1   
    51   27   48 1   
    52   27   49 1   
@<TRIPOS>SUBSTRUCTURE
     1 TL2         1 TEMP              0 ****  ****    0 ROOT
