@<TRIPOS>MOLECULE
TL2
   50    53     1     0     0
SMALL
bcc


@<TRIPOS>ATOM
      1 N          -8.2220    0.7590   -0.8590 n2        1 TL2     -0.827100
      2 C1         -7.4800   -0.1140   -0.2470 ce        1 TL2      0.654800
      3 C2         -6.0240    0.1850   -0.0660 ca        1 TL2     -0.173900
      4 C3         -5.6330    1.4250    0.4570 ca        1 TL2     -0.070500
      5 C4         -4.2850    1.7190    0.6270 ca        1 TL2     -0.182000
      6 C5         -5.0600   -0.7580   -0.4300 ca        1 TL2     -0.070500
      7 C6         -3.7040   -0.4800   -0.2620 ca        1 TL2     -0.182000
      8 C7         -3.3220    0.7590    0.2660 ca        1 TL2      0.125100
      9 O8         -2.0110    1.1300    0.5140 os        1 TL2     -0.324900
     10 C9         -1.0020    0.4110   -0.1990 c3        1 TL2      0.092100
     11 C10         0.2480    1.3070   -0.2000 c3        1 TL2      0.122400
     12 O11         1.2300    0.7160    0.6610 os        1 TL2     -0.395600
     13 C11        -0.5840   -0.8620    0.5700 c3        1 TL2      0.086100
     14 C12         0.9000   -0.6400    0.9340 c3        1 TL2      0.098100
     15 C13         1.6820   -1.6390    0.0500 c3        1 TL2      0.094100
     16 O14         2.4710   -0.9680   -0.9370 os        1 TL2     -0.325900
     17 O15        -0.6840   -2.0150   -0.2620 os        1 TL2     -0.416600
     18 C16         4.7080   -1.7990   -0.5170 ca        1 TL2     -0.145000
     19 C17         0.6090   -2.4300   -0.7160 c3        1 TL2      0.115400
     20 C18         3.7910   -0.7410   -0.5560 ca        1 TL2      0.086100
     21 C20         4.1930    0.5830   -0.3320 ca        1 TL2     -0.071000
     22 N22         5.6880    3.1480   -0.7350 n2        1 TL2     -0.824100
     23 N23         6.6640    2.4460    1.3760 nh        1 TL2     -0.962800
     24 C24         6.0500   -1.5200   -0.2670 ca        1 TL2     -0.124000
     25 C25         6.4700   -0.2080   -0.0520 ca        1 TL2     -0.129000
     26 C26         5.5420    0.8390   -0.0820 ca        1 TL2     -0.124900
     27 N27        -7.8730   -1.3870    0.2270 nh        1 TL2     -0.958800
     28 HN         -9.1880    0.5290   -0.9600 hn        1 TL2      0.381400
     29 H3         -6.3930    2.1760    0.7210 ha        1 TL2      0.148500
     30 H4         -3.9610    2.6860    1.0360 ha        1 TL2      0.156000
     31 H5         -5.3620   -1.7250   -0.8610 ha        1 TL2      0.148500
     32 H6         -2.9500   -1.2330   -0.5380 ha        1 TL2      0.156000
     33 H9         -1.3430    0.1680   -1.2380 h1        1 TL2      0.087700
     34 H101        0.6860    1.3730   -1.2280 h1        1 TL2      0.074700
     35 H102        0.0430    2.3250    0.2190 h1        1 TL2      0.074700
     36 H11        -1.2460   -1.0460    1.4530 h1        1 TL2      0.098700
     37 H12         1.1210   -0.7970    2.0200 h1        1 TL2      0.089700
     38 H13         2.3210   -2.3100    0.6780 h1        1 TL2      0.067700
     39 H16         4.3700   -2.8290   -0.6960 ha        1 TL2      0.140000
     40 H171        0.6680   -2.2350   -1.8180 h1        1 TL2      0.067700
     41 H172        0.6740   -3.5280   -0.5070 h1        1 TL2      0.067700
     42 H20         3.4440    1.3910   -0.3560 ha        1 TL2      0.176000
     43 H22         6.0040    4.0780   -0.5540 hn        1 TL2      0.383400
     44 H231        7.0100    1.6290    1.8210 hn        1 TL2      0.400800
     45 H232        7.2520    3.2420    1.4510 hn        1 TL2      0.400800
     46 H24         6.7830   -2.3400   -0.2450 ha        1 TL2      0.136000
     47 H25         7.5360   -0.0010    0.1270 ha        1 TL2      0.131000
     48 H271       -7.2640   -1.7990    0.8940 hn        1 TL2      0.397300
     49 H272       -8.8390   -1.5100    0.4250 hn        1 TL2      0.397300
     50 C21         5.9970    2.2490    0.1490 ce        1 TL2      0.653800
@<TRIPOS>BOND
     1    1    2 2   
     2    1   28 1   
     3    2    3 1   
     4    2   27 1   
     5    3    4 ar  
     6    3    6 ar  
     7    4    5 ar  
     8    4   29 1   
     9    5    8 ar  
    10    5   30 1   
    11    6    7 ar  
    12    6   31 1   
    13    7    8 ar  
    14    7   32 1   
    15    8    9 1   
    16    9   10 1   
    17   10   11 1   
    18   10   13 1   
    19   10   33 1   
    20   11   12 1   
    21   11   34 1   
    22   11   35 1   
    23   12   14 1   
    24   13   14 1   
    25   13   17 1   
    26   13   36 1   
    27   14   15 1   
    28   14   37 1   
    29   15   16 1   
    30   15   19 1   
    31   15   38 1   
    32   16   20 1   
    33   17   19 1   
    34   18   20 ar  
    35   18   24 ar  
    36   18   39 1   
    37   19   40 1   
    38   19   41 1   
    39   20   21 ar  
    40   21   26 ar  
    41   21   42 1   
    42   22   43 1   
    43   22   50 2   
    44   23   44 1   
    45   23   45 1   
    46   23   50 1   
    47   24   25 ar  
    48   24   46 1   
    49   25   26 ar  
    50   25   47 1   
    51   26   50 1   
    52   27   48 1   
    53   27   49 1   
@<TRIPOS>SUBSTRUCTURE
     1 TL2         1 TEMP              0 ****  ****    0 ROOT
