@<TRIPOS>MOLECULE
TL2
   50    44     1     0     0
SMALL
bcc


@<TRIPOS>ATOM
      1 N          -0.1060    3.1910   -6.7660 n1        1 TL2     -0.305000
      2 C1         -0.6880    4.0430   -5.8840 c1        1 TL2      0.119000
      3 C2         -0.9400    3.6010   -4.4610 c1        1 TL2     -0.147000
      4 C3         -2.0650    2.8490   -4.1570 c2        1 TL2     -0.063000
      5 C4         -2.2730    2.4070   -2.8600 c1        1 TL2     -0.204000
      6 C5         -0.0210    3.9110   -3.4650 c1        1 TL2     -0.088000
      7 C6         -0.2280    3.4690   -2.1660 c1        1 TL2     -0.127000
      8 C7         -1.3500    2.7180   -1.8600 c1        1 TL2      0.074000
      9 O8         -1.6640    2.4430   -0.5020 os        1 TL2     -0.197500
     10 C9         -1.0960    1.2300   -0.1280 c3        1 TL2     -0.022500
     11 C10         0.0660    1.4610    0.7720 c3        1 TL2     -0.042500
     12 O11        -0.3370    1.1240    1.9110 os        1 TL2     -0.254000
     13 C11        -2.1040    0.3970    0.7100 c3        1 TL2     -0.009000
     14 C12        -1.4960    0.0370    1.6660 c3        1 TL2     -0.009000
     15 C13        -0.8920   -1.3570    1.2750 c3        1 TL2     -0.022500
     16 O14         0.4430   -1.2480    1.0610 os        1 TL2     -0.197500
     17 O15        -2.5650   -0.9650   -0.0960 os        1 TL2     -0.254000
     18 C16         1.1850   -3.6110    1.1000 c1        1 TL2     -0.145000
     19 C17        -1.6030   -1.7600   -0.0000 c3        1 TL2     -0.042500
     20 C18         1.1380   -2.3690    1.7190 c1        1 TL2      0.074000
     21 C20         1.6220   -2.2200    3.0260 c1        1 TL2     -0.127000
     22 C21         2.9760   -3.3550    4.9990 c1        1 TL2      0.128000
     23 N22         4.2000   -2.8940    5.0060 n1        1 TL2     -0.292000
     24 N23         2.3850   -3.9060    6.2410 n2        1 TL2     -0.400000
     25 C24         1.7190   -4.7180    1.7830 c1        1 TL2     -0.145000
     26 C25         2.2020   -4.5710    3.0850 c1        1 TL2     -0.150000
     27 C26         2.1550   -3.3270    3.7080 c1        1 TL2     -0.022000
     28 N27        -1.0670    5.3730   -6.3070 n3        1 TL2     -0.332000
     29 HN          0.1400    2.3270   -6.4930 DU        1 TL2      0.145000
     30 H3         -2.7230    2.6270   -4.8700 ha        1 TL2      0.152000
     31 H4         -3.0600    1.8810   -2.6480 ha        1 TL2      0.161000
     32 H5          0.7850    4.4500   -3.6840 ha        1 TL2      0.141000
     33 H6          0.4230    3.6880   -1.4630 ha        1 TL2      0.162000
     34 H9         -0.8160    0.7280   -0.9200 h1        1 TL2      0.119500
     35 H101        0.3190    2.4160    0.7670 h1        1 TL2      0.110250
     36 H102        0.8270    0.9030    0.4980 h1        1 TL2      0.110250
     37 H11        -2.8870    0.9400    0.9700 h1        1 TL2      0.136500
     38 H12        -2.0730   -0.0370    2.4380 h1        1 TL2      0.136500
     39 H13        -1.0690   -2.0130    1.9820 h1        1 TL2      0.119500
     40 H16         0.8420   -3.7170    0.1700 ha        1 TL2      0.136000
     41 H171       -1.0020   -1.6650   -0.7740 h1        1 TL2      0.110250
     42 H172       -1.9330   -2.6920    0.0700 h1        1 TL2      0.110250
     43 H20         1.5600   -1.3570    3.4730 ha        1 TL2      0.162000
     44 H22         4.6860   -2.9100    5.7710 DU        1 TL2      0.145000
     45 H231        2.7570   -3.6940    7.0680 hn        1 TL2      0.196500
     46 H232        1.6630   -4.4910    6.1930 hn        1 TL2      0.196500
     47 H24         1.7510   -5.5790    1.3530 ha        1 TL2      0.136000
     48 H25         2.5810   -5.3590    3.5690 ha        1 TL2      0.132000
     49 H271       -1.2640    6.0230   -5.6750 hn        1 TL2      0.192500
     50 H272       -1.1030    5.5770   -7.2020 hn        1 TL2      0.192500
@<TRIPOS>BOND
     1    1    2 1   
     2    2   28 1   
     3    3    4 1   
     4    3    6 1   
     5    4    5 1   
     6    4   30 1   
     7    5   31 1   
     8    6   32 1   
     9    7    8 1   
    10    7   33 1   
    11    8    9 1   
    12    9   10 1   
    13   10   11 1   
    14   10   13 1   
    15   10   34 1   
    16   11   12 1   
    17   11   35 1   
    18   11   36 1   
    19   12   14 1   
    20   13   14 1   
    21   13   17 1   
    22   13   37 1   
    23   14   15 1   
    24   14   38 1   
    25   15   16 1   
    26   15   19 1   
    27   15   39 1   
    28   16   20 1   
    29   17   19 1   
    30   18   25 1   
    31   18   40 1   
    32   19   41 1   
    33   19   42 1   
    34   20   21 1   
    35   21   43 1   
    36   22   23 1   
    37   22   27 1   
    38   24   45 1   
    39   24   46 1   
    40   25   47 1   
    41   26   27 1   
    42   26   48 1   
    43   28   49 1   
    44   28   50 1   
@<TRIPOS>SUBSTRUCTURE
     1 TL2         1 TEMP              0 ****  ****    0 ROOT
