@<TRIPOS>MOLECULE
TL3
   50    53     1     0     0
SMALL
bcc


@<TRIPOS>ATOM
      1 N1          8.6600    0.2300   -0.0150 n2        1 TL3     -0.833100
      2 C1          7.6510   -0.4410    0.4590 ce        1 TL3      0.649800
      3 N2          7.8380   -1.6320    1.1930 nh        1 TL3     -0.927800
      4 C2          6.2170   -0.0780    0.2280 ca        1 TL3     -0.195400
      5 C3          5.7990    1.2380    0.4640 ca        1 TL3     -0.075500
      6 C4          4.4800    1.6100    0.2320 ca        1 TL3     -0.174000
      7 C5          3.5710    0.6450   -0.2380 ca        1 TL3      0.127100
      8 O1          2.2670    1.0840   -0.3930 os        1 TL3     -0.321900
      9 C6          1.5060    0.4360   -1.4160 c3        1 TL3      0.092600
     10 C7          0.4660    1.4680   -1.8840 c3        1 TL3      0.120900
     11 O2         -0.8470    0.9490   -1.6490 os        1 TL3     -0.404600
     12 C8         -0.7880   -0.2920   -0.9490 c3        1 TL3      0.091100
     13 C9         -1.2200   -0.1120    0.5240 c3        1 TL3      0.092600
     14 O3         -2.2520   -1.0370    0.8730 os        1 TL3     -0.321900
     15 C10        -3.5500   -0.6510    0.5890 ca        1 TL3      0.127100
     16 C11        -3.8970    0.3580   -0.3170 ca        1 TL3     -0.174000
     17 C12        -5.2450    0.6340   -0.5450 ca        1 TL3     -0.075500
     18 C13        -6.2360   -0.0870    0.1260 ca        1 TL3     -0.195400
     19 C14        -7.6790    0.2180   -0.1270 ce        1 TL3      0.649800
     20 N3         -8.0980    0.2540   -1.3570 n2        1 TL3     -0.833100
     21 N4         -8.4220    0.5140    1.0360 nh        1 TL3     -0.927800
     22 C15        -5.8800   -1.1030    1.0200 ca        1 TL3     -0.075500
     23 C16        -4.5420   -1.3910    1.2600 ca        1 TL3     -0.174000
     24 C17         0.0120   -0.5100    1.3540 c3        1 TL3      0.120900
     25 O4          0.9890   -1.0780    0.4710 os        1 TL3     -0.404600
     26 C18         0.6820   -0.7550   -0.8790 c3        1 TL3      0.091100
     27 C19         3.9780   -0.6740   -0.4690 ca        1 TL3     -0.174000
     28 C20         5.3050   -1.0300   -0.2350 ca        1 TL3     -0.075500
     29 HN1         8.4010    0.9940   -0.6020 hn        1 TL3      0.387900
     30 HN21        8.7710   -1.8030    1.5000 hn        1 TL3      0.399050
     31 HN22        7.1560   -1.7630    1.9070 hn        1 TL3      0.399050
     32 H3          6.5160    1.9870    0.8350 ha        1 TL3      0.144750
     33 H4          4.1370    2.6370    0.4180 ha        1 TL3      0.152750
     34 H6          2.1740    0.1120   -2.2560 h1        1 TL3      0.080200
     35 H71         0.5580    2.4290   -1.3150 h1        1 TL3      0.071700
     36 H72         0.5390    1.6550   -2.9850 h1        1 TL3      0.071700
     37 H8         -1.4630   -1.0010   -1.4920 h1        1 TL3      0.096200
     38 H9         -1.5420    0.9410    0.7300 h1        1 TL3      0.080200
     39 H11        -3.1220    0.9200   -0.8610 ha        1 TL3      0.152750
     40 H12        -5.5270    1.4190   -1.2650 ha        1 TL3      0.144750
     41 HN3        -9.0650    0.4620   -1.4920 hn        1 TL3      0.387900
     42 HN41       -8.0130    0.2330    1.8950 hn        1 TL3      0.399050
     43 HN42       -9.4060    0.3980    0.9870 hn        1 TL3      0.399050
     44 H15        -6.6560   -1.6920    1.5320 ha        1 TL3      0.144750
     45 H16        -4.2460   -2.1880    1.9560 ha        1 TL3      0.152750
     46 H171        0.4670    0.3900    1.8400 h1        1 TL3      0.071700
     47 H172       -0.2200   -1.3040    2.1090 h1        1 TL3      0.071700
     48 H18         0.8820   -1.6860   -1.4700 h1        1 TL3      0.096200
     49 H19         3.2470   -1.4270   -0.8000 ha        1 TL3      0.152750
     50 H20         5.6310   -2.0660   -0.4170 ha        1 TL3      0.144750
@<TRIPOS>BOND
     1    1    2 2   
     2    1   29 1   
     3    2    3 1   
     4    2    4 1   
     5    3   30 1   
     6    3   31 1   
     7    4    5 ar  
     8    4   28 ar  
     9    5    6 ar  
    10    5   32 1   
    11    6    7 ar  
    12    6   33 1   
    13    7    8 1   
    14    7   27 ar  
    15    8    9 1   
    16    9   10 1   
    17    9   26 1   
    18    9   34 1   
    19   10   11 1   
    20   10   35 1   
    21   10   36 1   
    22   11   12 1   
    23   12   13 1   
    24   12   26 1   
    25   12   37 1   
    26   13   14 1   
    27   13   24 1   
    28   13   38 1   
    29   14   15 1   
    30   15   16 ar  
    31   15   23 ar  
    32   16   17 ar  
    33   16   39 1   
    34   17   18 ar  
    35   17   40 1   
    36   18   19 1   
    37   18   22 ar  
    38   19   20 2   
    39   19   21 1   
    40   20   41 1   
    41   21   42 1   
    42   21   43 1   
    43   22   23 ar  
    44   22   44 1   
    45   23   45 1   
    46   24   25 1   
    47   24   46 1   
    48   24   47 1   
    49   25   26 1   
    50   26   48 1   
    51   27   28 ar  
    52   27   49 1   
    53   28   50 1   
@<TRIPOS>SUBSTRUCTURE
     1 TL3         1 TEMP              0 ****  ****    0 ROOT
