@<TRIPOS>MOLECULE
TL3
   52    55     1     0     0
SMALL
bcc


@<TRIPOS>ATOM
      1 N1          1.2740    0.6190    0.8930 n2        1 TL3     -0.688600
      2 C1          2.2210    0.1090    0.2300 ce        1 TL3      0.617300
      3 N2          3.3170   -0.8010    0.8080 n4        1 TL3     -0.859600
      4 C2          2.4330    0.2870   -1.2230 ca        1 TL3     -0.283900
      5 C3          1.4550   -0.1790   -2.1160 ca        1 TL3     -0.052750
      6 C4          1.6010    0.0390   -3.4780 ca        1 TL3     -0.168750
      7 C5          2.7320    0.7390   -3.9500 ca        1 TL3      0.184600
      8 O1          2.7920    0.8920   -5.3140 os        1 TL3     -0.303900
      9 C6          3.5760    1.9840   -5.8140 c3        1 TL3      0.088100
     10 C7          2.9600    2.3490   -7.1750 c3        1 TL3      0.122900
     11 O2          3.9580    2.1910   -8.1930 os        1 TL3     -0.407600
     12 C8          5.1570    1.6430   -7.6550 c3        1 TL3      0.092100
     13 C9          5.3310    0.1790   -8.1110 c3        1 TL3      0.088100
     14 O3          6.6080   -0.0280   -8.7300 os        1 TL3     -0.303900
     15 C10         6.7500    0.3610  -10.0380 ca        1 TL3      0.184600
     16 C11         5.8130    1.1170  -10.7600 ca        1 TL3     -0.168750
     17 C12         6.0860    1.4620  -12.0800 ca        1 TL3     -0.052750
     18 C13         7.2850    1.0600  -12.6800 ca        1 TL3     -0.283900
     19 C14         7.5840    1.4860  -14.0590 ce        1 TL3      0.617300
     20 N3          7.7930    2.6360  -14.5700 n2        1 TL3     -0.688600
     21 N4          7.6340    0.3140  -15.0090 n4        1 TL3     -0.859600
     22 C15         8.2230    0.3090  -11.9530 ca        1 TL3     -0.052750
     23 C16         7.9640   -0.0440  -10.6390 ca        1 TL3     -0.168750
     24 C17         5.3490   -0.6500   -6.8170 c3        1 TL3      0.122900
     25 O4          5.3290    0.2470   -5.6980 os        1 TL3     -0.407600
     26 C18         5.0330    1.5730   -6.1190 c3        1 TL3      0.092100
     27 C19         3.7160    1.1960   -3.0580 ca        1 TL3     -0.168750
     28 C20         3.5590    0.9740   -1.6950 ca        1 TL3     -0.052750
     29 HN1         1.1230    0.4810    1.8680 hn        1 TL3      0.479400
     30 HN21        3.3150   -0.8300    1.8300 hn        1 TL3      0.463467
     31 HN22        4.2280   -0.4620    0.4840 hn        1 TL3      0.463467
     32 H3          0.5580   -0.6980   -1.7400 ha        1 TL3      0.149250
     33 H4          0.8430   -0.3170   -4.1940 ha        1 TL3      0.177000
     34 H6          3.5410    2.8480   -5.1010 h1        1 TL3      0.089200
     35 H71         2.6430    3.4220   -7.2090 h1        1 TL3      0.084200
     36 H72         2.1020    1.6750   -7.4340 h1        1 TL3      0.084200
     37 H8          5.9990    2.2920   -8.0080 h1        1 TL3      0.101200
     38 H9          4.5080   -0.1400   -8.8030 h1        1 TL3      0.089200
     39 H11         4.8750    1.4580  -10.2880 ha        1 TL3      0.177000
     40 H12         5.3530    2.0620  -12.6430 ha        1 TL3      0.149250
     41 HN3         7.7790    3.4370  -13.9730 hn        1 TL3      0.479400
     42 HN41        6.6960   -0.0980  -15.0620 hn        1 TL3      0.463467
     43 HN42        7.9380    0.5910  -15.9520 hn        1 TL3      0.463467
     44 H15         9.1820    0.0150  -12.4100 ha        1 TL3      0.149250
     45 H16         8.6910   -0.6260  -10.0500 ha        1 TL3      0.177000
     46 H171        6.2850   -1.2580   -6.7130 h1        1 TL3      0.084200
     47 H172        4.4380   -1.2980   -6.7520 h1        1 TL3      0.084200
     48 H18         5.7620    2.2390   -5.5870 h1        1 TL3      0.101200
     49 H19         4.6130    1.7080   -3.4390 ha        1 TL3      0.177000
     50 H20         4.3160    1.3650   -0.9970 ha        1 TL3      0.149250
     51 H23         3.1780   -1.7500    0.4460 hn        1 TL3      0.463467
     52 H43         8.2850   -0.3790  -14.6270 hn        1 TL3      0.463467
@<TRIPOS>BOND
     1    1    2 2   
     2    1   29 1   
     3    2    3 1   
     4    2    4 1   
     5    3   30 1   
     6    3   31 1   
     7    3   51 1   
     8    4    5 ar  
     9    4   28 ar  
    10    5    6 ar  
    11    5   32 1   
    12    6    7 ar  
    13    6   33 1   
    14    7    8 1   
    15    7   27 ar  
    16    8    9 1   
    17    9   10 1   
    18    9   26 1   
    19    9   34 1   
    20   10   11 1   
    21   10   35 1   
    22   10   36 1   
    23   11   12 1   
    24   12   13 1   
    25   12   26 1   
    26   12   37 1   
    27   13   14 1   
    28   13   24 1   
    29   13   38 1   
    30   14   15 1   
    31   15   16 ar  
    32   15   23 ar  
    33   16   17 ar  
    34   16   39 1   
    35   17   18 ar  
    36   17   40 1   
    37   18   19 1   
    38   18   22 ar  
    39   19   20 2   
    40   19   21 1   
    41   20   41 1   
    42   21   42 1   
    43   21   43 1   
    44   21   52 1   
    45   22   23 ar  
    46   22   44 1   
    47   23   45 1   
    48   24   25 1   
    49   24   46 1   
    50   24   47 1   
    51   25   26 1   
    52   26   48 1   
    53   27   28 ar  
    54   27   49 1   
    55   28   50 1   
@<TRIPOS>SUBSTRUCTURE
     1 TL3         1 TEMP              0 ****  ****    0 ROOT
