@<TRIPOS>MOLECULE
TL3
   52    55     1     0     0
SMALL
bcc


@<TRIPOS>ATOM
      1 N1          1.2580    0.5670    0.8840 n2        1 TL3     -0.688600
      2 C1          2.2300    0.0930    0.2320 ce        1 TL3      0.617300
      3 N2          3.3670   -0.7540    0.8270 n4        1 TL3     -0.859600
      4 C2          2.4380    0.2590   -1.2230 ca        1 TL3     -0.283900
      5 C3          1.4860   -0.2670   -2.1110 ca        1 TL3     -0.052750
      6 C4          1.6260   -0.0640   -3.4760 ca        1 TL3     -0.168750
      7 C5          2.7230    0.6830   -3.9560 ca        1 TL3      0.184600
      8 O1          2.7800    0.8180   -5.3220 os        1 TL3     -0.303900
      9 C6          3.5130    1.9390   -5.8360 c3        1 TL3      0.088100
     10 C7          2.8840    2.2520   -7.2050 c3        1 TL3      0.122900
     11 O2          3.8910    2.1280   -8.2170 os        1 TL3     -0.407600
     12 C8          5.1140    1.6470   -7.6680 c3        1 TL3      0.092100
     13 C9          5.3600    0.1860   -8.1020 c3        1 TL3      0.088100
     14 O3          6.6480    0.0330   -8.7140 os        1 TL3     -0.303900
     15 C10         6.7760    0.4090  -10.0270 ca        1 TL3      0.184600
     16 C11         5.8060    1.1070  -10.7630 ca        1 TL3     -0.168750
     17 C12         6.0670    1.4470  -12.0870 ca        1 TL3     -0.052750
     18 C13         7.2870    1.0940  -12.6780 ca        1 TL3     -0.283900
     19 C14         7.5690    1.5140  -14.0620 ce        1 TL3      0.617300
     20 N3          7.7240    2.6660  -14.5890 n2        1 TL3     -0.688600
     21 N4          7.6800    0.3320  -14.9950 n4        1 TL3     -0.859600
     22 C15         8.2570    0.4010  -11.9370 ca        1 TL3     -0.052750
     23 C16         8.0110    0.0540  -10.6180 ca        1 TL3     -0.168750
     24 C17         5.4140   -0.6210   -6.7950 c3        1 TL3      0.122900
     25 O4          5.3460    0.2910   -5.6900 os        1 TL3     -0.407600
     26 C18         4.9890    1.5940   -6.1310 c3        1 TL3      0.092100
     27 C19         3.6810    1.2010   -3.0680 ca        1 TL3     -0.168750
     28 C20         3.5310    0.9920   -1.7020 ca        1 TL3     -0.052750
     29 HN1         1.1100    0.4370    1.8610 hn        1 TL3      0.479400
     30 HN21        3.3630   -0.7670    1.8490 hn        1 TL3      0.463467
     31 HN22        4.2610   -0.3770    0.4990 hn        1 TL3      0.463467
     32 H3          0.6150   -0.8230   -1.7290 ha        1 TL3      0.149250
     33 H4          0.8880   -0.4660   -4.1890 ha        1 TL3      0.177000
     34 H6          3.4330    2.8110   -5.1370 h1        1 TL3      0.089200
     35 H71         2.0610    1.5340   -7.4550 h1        1 TL3      0.084200
     36 H72         2.5150    3.3090   -7.2560 h1        1 TL3      0.084200
     37 H8          5.9250    2.3300   -8.0290 h1        1 TL3      0.101200
     38 H9          4.5560   -0.1820   -8.7910 h1        1 TL3      0.089200
     39 H11         4.8510    1.4090  -10.2990 ha        1 TL3      0.177000
     40 H12         5.3070    2.0020  -12.6610 ha        1 TL3      0.149250
     41 HN3         7.6680    3.4740  -14.0040 hn        1 TL3      0.479400
     42 HN41        6.7640   -0.1260  -15.0440 hn        1 TL3      0.463467
     43 HN42        7.9740    0.6100  -15.9400 hn        1 TL3      0.463467
     44 H15         9.2300    0.1470  -12.3860 ha        1 TL3      0.149250
     45 H16         8.7630   -0.4830  -10.0180 ha        1 TL3      0.177000
     46 H171        6.3770   -1.1810   -6.6790 h1        1 TL3      0.084200
     47 H172        4.5350   -1.3110   -6.7230 h1        1 TL3      0.084200
     48 H18         5.6830    2.3020   -5.6090 h1        1 TL3      0.101200
     49 H19         4.5540    1.7500   -3.4550 ha        1 TL3      0.177000
     50 H20         4.2650    1.4310   -1.0090 ha        1 TL3      0.149250
     51 H23         3.2740   -1.7140    0.4790 hn        1 TL3      0.463467
     52 H43         8.3630   -0.3230  -14.6000 hn        1 TL3      0.463467
@<TRIPOS>BOND
     1    1    2 2   
     2    1   29 1   
     3    2    3 1   
     4    2    4 1   
     5    3   30 1   
     6    3   31 1   
     7    3   51 1   
     8    4    5 ar  
     9    4   28 ar  
    10    5    6 ar  
    11    5   32 1   
    12    6    7 ar  
    13    6   33 1   
    14    7    8 1   
    15    7   27 ar  
    16    8    9 1   
    17    9   10 1   
    18    9   26 1   
    19    9   34 1   
    20   10   11 1   
    21   10   35 1   
    22   10   36 1   
    23   11   12 1   
    24   12   13 1   
    25   12   26 1   
    26   12   37 1   
    27   13   14 1   
    28   13   24 1   
    29   13   38 1   
    30   14   15 1   
    31   15   16 ar  
    32   15   23 ar  
    33   16   17 ar  
    34   16   39 1   
    35   17   18 ar  
    36   17   40 1   
    37   18   19 1   
    38   18   22 ar  
    39   19   20 2   
    40   19   21 1   
    41   20   41 1   
    42   21   42 1   
    43   21   43 1   
    44   21   52 1   
    45   22   23 ar  
    46   22   44 1   
    47   23   45 1   
    48   24   25 1   
    49   24   46 1   
    50   24   47 1   
    51   25   26 1   
    52   26   48 1   
    53   27   28 ar  
    54   27   49 1   
    55   28   50 1   
@<TRIPOS>SUBSTRUCTURE
     1 TL3         1 TEMP              0 ****  ****    0 ROOT
