@<TRIPOS>MOLECULE
TL3
   52    55     1     0     0
SMALL
bcc


@<TRIPOS>ATOM
      1 N1          1.2450    0.5580    0.8790 n2        1 TL3     -0.688600
      2 C1          2.2250    0.0930    0.2300 ce        1 TL3      0.617300
      3 N2          3.3710   -0.7380    0.8310 nz        1 TL3     -0.859600
      4 C2          2.4340    0.2550   -1.2250 ca        1 TL3     -0.283900
      5 C3          1.4900   -0.2860   -2.1120 ca        1 TL3     -0.052750
      6 C4          1.6300   -0.0870   -3.4780 ca        1 TL3     -0.168750
      7 C5          2.7190    0.6710   -3.9590 ca        1 TL3      0.184600
      8 O1          2.7770    0.8010   -5.3260 os        1 TL3     -0.303900
      9 C6          3.4970    1.9290   -5.8430 c3        1 TL3      0.088100
     10 C7          2.8670    2.2290   -7.2150 c3        1 TL3      0.122900
     11 O2          3.8770    2.1110   -8.2250 os        1 TL3     -0.407600
     12 C8          5.1040    1.6490   -7.6710 c3        1 TL3      0.092100
     13 C9          5.3700    0.1890   -8.0980 c3        1 TL3      0.088100
     14 O3          6.6610    0.0490   -8.7070 os        1 TL3     -0.303900
     15 C10         6.7850    0.4200  -10.0230 ca        1 TL3      0.184600
     16 C11         5.8080    1.1030  -10.7630 ca        1 TL3     -0.168750
     17 C12         6.0660    1.4390  -12.0880 ca        1 TL3     -0.052750
     18 C13         7.2910    1.0990  -12.6750 ca        1 TL3     -0.283900
     19 C14         7.5700    1.5150  -14.0620 ce        1 TL3      0.617300
     20 N3          7.7110    2.6660  -14.5950 n2        1 TL3     -0.688600
     21 N4          7.6970    0.3300  -14.9880 nz        1 TL3     -0.859600
     22 C15         8.2690    0.4210  -11.9300 ca        1 TL3     -0.052750
     23 C16         8.0250    0.0780  -10.6100 ca        1 TL3     -0.168750
     24 C17         5.4320   -0.6120   -6.7870 c3        1 TL3      0.122900
     25 O4          5.3510    0.3040   -5.6870 os        1 TL3     -0.407600
     26 C18         4.9780    1.6010   -6.1340 c3        1 TL3      0.092100
     27 C19         3.6690    1.2040   -3.0720 ca        1 TL3     -0.168750
     28 C20         3.5180    1.0000   -1.7060 ca        1 TL3     -0.052750
     29 HN1         1.0970    0.4300    1.8560 hn        1 TL3      0.479400
     30 HN21        3.3650   -0.7470    1.8530 hn        1 TL3      0.463467
     31 HN22        4.2610   -0.3510    0.5040 hn        1 TL3      0.463467
     32 H3          0.6250   -0.8520   -1.7300 ha        1 TL3      0.149250
     33 H4          0.8990   -0.5020   -4.1910 ha        1 TL3      0.177000
     34 H6          3.4050    2.8030   -5.1480 h1        1 TL3      0.089200
     35 H71         2.0530    1.4990   -7.4630 h1        1 TL3      0.084200
     36 H72         2.4850    3.2800   -7.2710 h1        1 TL3      0.084200
     37 H8          5.9080    2.3400   -8.0340 h1        1 TL3      0.101200
     38 H9          4.5720   -0.1930   -8.7870 h1        1 TL3      0.089200
     39 H11         4.8490    1.3950  -10.3010 ha        1 TL3      0.177000
     40 H12         5.3000    1.9820  -12.6660 ha        1 TL3      0.149250
     41 HN3         7.6440    3.4760  -14.0130 hn        1 TL3      0.479400
     42 HN41        7.9880    0.6070  -15.9350 hn        1 TL3      0.463467
     43 HN42        8.3870   -0.3140  -14.5890 hn        1 TL3      0.463467
     44 H15         9.2460    0.1770  -12.3770 ha        1 TL3      0.149250
     45 H16         8.7830   -0.4470  -10.0070 ha        1 TL3      0.177000
     46 H171        6.4020   -1.1590   -6.6670 h1        1 TL3      0.084200
     47 H172        4.5620   -1.3130   -6.7130 h1        1 TL3      0.084200
     48 H18         5.6620    2.3200   -5.6140 h1        1 TL3      0.101200
     49 H19         4.5360    1.7620   -3.4590 ha        1 TL3      0.177000
     50 H20         4.2460    1.4500   -1.0130 ha        1 TL3      0.149250
     51 H23         3.2900   -1.7000    0.4870 hn        1 TL3      0.463467
     52 H43         6.7870   -0.1390  -15.0360 hn        1 TL3      0.463467
@<TRIPOS>BOND
     1    1    2 2   
     2    1   29 1   
     3    2    3 1   
     4    2    4 1   
     5    3   30 1   
     6    3   31 1   
     7    3   51 1   
     8    4    5 ar  
     9    4   28 ar  
    10    5    6 ar  
    11    5   32 1   
    12    6    7 ar  
    13    6   33 1   
    14    7    8 1   
    15    7   27 ar  
    16    8    9 1   
    17    9   10 1   
    18    9   26 1   
    19    9   34 1   
    20   10   11 1   
    21   10   35 1   
    22   10   36 1   
    23   11   12 1   
    24   12   13 1   
    25   12   26 1   
    26   12   37 1   
    27   13   14 1   
    28   13   24 1   
    29   13   38 1   
    30   14   15 1   
    31   15   16 ar  
    32   15   23 ar  
    33   16   17 ar  
    34   16   39 1   
    35   17   18 ar  
    36   17   40 1   
    37   18   19 1   
    38   18   22 ar  
    39   19   20 2   
    40   19   21 1   
    41   20   41 1   
    42   21   42 1   
    43   21   43 1   
    44   21   52 1   
    45   22   23 ar  
    46   22   44 1   
    47   23   45 1   
    48   24   25 1   
    49   24   46 1   
    50   24   47 1   
    51   25   26 1   
    52   26   48 1   
    53   27   28 ar  
    54   27   49 1   
    55   28   50 1   
@<TRIPOS>SUBSTRUCTURE
     1 TL3         1 TEMP              0 ****  ****    0 ROOT
