@<TRIPOS>MOLECULE
TL4
   50    46     1     0     0
SMALL
bcc


@<TRIPOS>ATOM
      1 C4         -4.7230   -1.4190   -4.0490 c1        1 TL4     -0.141000
      2 C5         -3.4050   -1.3840   -4.4760 c1        1 TL4     -0.122000
      3 C6         -2.3760   -1.3510   -3.5480 c1        1 TL4     -0.122000
      4 C7         -2.6640   -1.3530   -2.1920 c1        1 TL4      0.084000
      5 O8         -1.6190   -1.4590   -1.2520 os        1 TL4     -0.202000
      6 C9         -1.3540   -0.1290   -0.6550 c3        1 TL4     -0.019000
      7 C10        -0.0130    0.4760   -1.2460 c3        1 TL4     -0.032000
      8 O11         0.4410    1.3460   -0.3310 os        1 TL4     -0.271000
      9 C12        -0.0900    0.8530    0.9620 c3        1 TL4     -0.024000
     10 C13         0.9740    0.1550    1.7470 c3        1 TL4     -0.019000
     11 O14         1.2620    0.8930    2.9760 os        1 TL4     -0.207000
     12 C15         2.6370    0.7980    3.2710 c2        1 TL4      0.065000
     13 C16         3.1100   -0.2630    4.0270 c2        1 TL4     -0.139000
     14 C17         4.4390   -0.2940    4.4240 c1        1 TL4     -0.111000
     15 C18         5.2940    0.7350    4.0630 c1        1 TL4     -0.124000
     16 C19         4.8210    1.7960    3.3070 c1        1 TL4     -0.083000
     17 C20         5.7440    2.9420    2.9520 c1        1 TL4      0.113000
     18 N21         5.9180    3.9280    3.7950 n1        1 TL4     -0.298000
     19 N22         6.4210    2.9480    1.7040 n3        1 TL4     -0.331000
     20 C23         3.4930    1.8280    2.9100 c2        1 TL4     -0.182000
     21 C24         0.4420   -1.0930    2.0490 c3        1 TL4     -0.026000
     22 O25        -0.5880   -1.4120    0.9170 os        1 TL4     -0.252000
     23 C26        -1.1600   -0.2430    0.6080 c3        1 TL4     -0.017000
     24 C27        -3.9830   -1.3880   -1.7650 c1        1 TL4     -0.183000
     25 C28        -5.0120   -1.4210   -2.6930 c1        1 TL4     -0.068000
     26 N1         -6.4250   -0.4580   -5.5180 n1        1 TL4     -0.305000
     27 C2         -5.8440   -1.5350   -5.0610 c2        1 TL4      0.119000
     28 N3         -6.2630   -2.8140   -5.5140 n3        1 TL4     -0.332000
     29 H5         -3.2010   -1.3830   -5.4310 ha        1 TL4      0.146000
     30 H6         -1.4480   -1.3270   -3.8490 ha        1 TL4      0.146000
     31 H9         -2.1030    0.4760   -0.8290 h1        1 TL4      0.114000
     32 H101       -0.1960    0.9390   -2.0910 h1        1 TL4      0.110000
     33 H102        0.6440   -0.2370   -1.3880 h1        1 TL4      0.110000
     34 H12        -0.4900    1.5780    1.4780 h1        1 TL4      0.140000
     35 H13         1.7850    0.0580    1.2100 h1        1 TL4      0.125000
     36 H16         2.5080   -0.9880    4.2810 ha        1 TL4      0.151000
     37 H17         4.7720   -1.0410    4.9560 ha        1 TL4      0.139000
     38 H18         6.2290    0.7130    4.3420 ha        1 TL4      0.152000
     39 H21         5.4820    3.9240    4.5980 DU        1 TL4      0.151500
     40 H221        7.0260    3.6080    1.5160 hn        1 TL4      0.193000
     41 H222        6.2650    2.2840    1.0960 hn        1 TL4      0.193000
     42 H23         3.1600    2.5750    2.3770 ha        1 TL4      0.163000
     43 H241       -0.0090   -1.0650    2.9170 h1        1 TL4      0.113000
     44 H242        1.1520   -1.7680    2.0580 h1        1 TL4      0.113000
     45 H26        -1.9890   -0.1060    1.1110 h1        1 TL4      0.129000
     46 H27        -4.1870   -1.3890   -0.8100 ha        1 TL4      0.150000
     47 H28        -5.9410   -1.4450   -2.3920 ha        1 TL4      0.152000
     48 HN1        -6.1550    0.3650   -5.2270 DU        1 TL4      0.151500
     49 HN31       -5.8160   -3.5640   -5.2420 hn        1 TL4      0.193500
     50 HN32       -6.9660   -2.8860   -6.0940 hn        1 TL4      0.193500
@<TRIPOS>BOND
     1    1   25 1   
     2    1   27 1   
     3    2    3 1   
     4    2   29 1   
     5    3   30 1   
     6    4    5 1   
     7    4   24 1   
     8    5    6 1   
     9    6    7 1   
    10    6   23 1   
    11    6   31 1   
    12    7    8 1   
    13    7   32 1   
    14    7   33 1   
    15    8    9 1   
    16    9   10 1   
    17    9   23 1   
    18    9   34 1   
    19   10   11 1   
    20   10   21 1   
    21   10   35 1   
    22   11   12 1   
    23   12   13 1   
    24   12   20 1   
    25   13   14 1   
    26   13   36 1   
    27   14   37 1   
    28   15   16 1   
    29   15   38 1   
    30   16   20 1   
    31   17   18 1   
    32   17   19 1   
    33   19   40 1   
    34   19   41 1   
    35   20   42 1   
    36   21   22 1   
    37   21   43 1   
    38   21   44 1   
    39   22   23 1   
    40   23   45 1   
    41   24   46 1   
    42   25   47 1   
    43   26   27 1   
    44   27   28 1   
    45   28   49 1   
    46   28   50 1   
@<TRIPOS>SUBSTRUCTURE
     1 TL4         1 TEMP              0 ****  ****    0 ROOT
