@<TRIPOS>MOLECULE
TL4
   52    55     1     0     0
SMALL
bcc


@<TRIPOS>ATOM
      1 C4         -0.1630    0.1680    0.2590 ca        1 TL4     -0.308900
      2 C5          1.1570   -0.1260   -0.1180 ca        1 TL4     -0.055500
      3 C6          2.2100    0.2020    0.7230 ca        1 TL4     -0.165000
      4 C7          1.9400    0.8330    1.9570 ca        1 TL4      0.190100
      5 O8          3.0480    1.1090    2.7190 os        1 TL4     -0.299900
      6 C9          2.9220    2.1370    3.7120 c3        1 TL4      0.088100
      7 C10         4.3380    2.7070    3.9000 c3        1 TL4      0.119400
      8 O11         4.7190    2.5540    5.2730 os        1 TL4     -0.412600
      9 C12         3.7460    1.8050    5.9950 c3        1 TL4      0.088100
     10 C13         4.2810    0.3920    6.3110 c3        1 TL4      0.090100
     11 O14         4.2120    0.1100    7.7150 os        1 TL4     -0.314900
     12 C15         5.2310    0.6030    8.5020 ca        1 TL4      0.136100
     13 C16         6.1700    1.5630    8.0950 ca        1 TL4     -0.149000
     14 C17         7.1340    2.0030    9.0010 ca        1 TL4     -0.074000
     15 C18         7.1720    1.5030   10.3020 ca        1 TL4     -0.140000
     16 C19         6.2270    0.5480   10.6980 ca        1 TL4     -0.226900
     17 C20         6.2160    0.0500   12.0910 ce        1 TL4      0.587800
     18 N21         5.3470    0.1510   13.0200 n2        1 TL4     -0.703100
     19 N22         7.4750   -0.7080   12.4280 n4        1 TL4     -0.823600
     20 C23         5.2540    0.0850    9.8110 ca        1 TL4     -0.121000
     21 C24         3.2980   -0.5750    5.6320 c3        1 TL4      0.126400
     22 O25         2.2250    0.1860    5.0580 os        1 TL4     -0.401600
     23 C26         2.5150    1.5780    5.0930 c3        1 TL4      0.095100
     24 C27         0.6180    1.1080    2.3460 ca        1 TL4     -0.165000
     25 C28        -0.4280    0.7760    1.4920 ca        1 TL4     -0.055500
     26 N1         -1.6170    0.4400   -1.7730 n2        1 TL4     -0.705100
     27 C2         -1.2620   -0.1160   -0.6810 ce        1 TL4      0.595800
     28 N3         -2.0890   -1.2960   -0.2310 n4        1 TL4     -0.825600
     29 H5          1.3670   -0.6040   -1.0890 ha        1 TL4      0.149500
     30 H6          3.2520   -0.0180    0.4420 ha        1 TL4      0.172500
     31 H9          2.2040    2.9260    3.3680 h1        1 TL4      0.083700
     32 H101        5.0900    2.1590    3.2750 h1        1 TL4      0.084700
     33 H102        4.3720    3.8060    3.6860 h1        1 TL4      0.084700
     34 H12         3.5180    2.3810    6.9280 h1        1 TL4      0.104700
     35 H13         5.3290    0.2550    5.9360 h1        1 TL4      0.092700
     36 H16         6.1410    1.9860    7.0760 ha        1 TL4      0.184000
     37 H17         7.8690    2.7640    8.6860 ha        1 TL4      0.170000
     38 H18         7.9200    1.8900   11.0100 ha        1 TL4      0.143000
     39 H21         4.5030    0.6550   12.8380 hn        1 TL4      0.492400
     40 H221        8.2780   -0.1210   12.1780 hn        1 TL4      0.472467
     41 H222        7.4950   -1.5650   11.8650 hn        1 TL4      0.472467
     42 H23         4.5030   -0.6620   10.1090 ha        1 TL4      0.166000
     43 H241        3.8010   -1.1320    4.8010 h1        1 TL4      0.081200
     44 H242        2.8240   -1.2820    6.3610 h1        1 TL4      0.081200
     45 H26         1.5900    2.0810    5.4760 h1        1 TL4      0.097700
     46 H27         0.4120    1.5610    3.3280 ha        1 TL4      0.172500
     47 H28        -1.4620    1.0120    1.7900 ha        1 TL4      0.149500
     48 HN1        -1.1000    1.2290   -2.1030 hn        1 TL4      0.492400
     49 HN31       -2.9080   -1.4500   -0.8350 hn        1 TL4      0.469467
     50 HN32       -2.3970   -1.1210    0.7300 hn        1 TL4      0.469467
     51 H223        7.5230   -0.9540   13.4250 hn        1 TL4      0.472467
     52 H33        -1.4930   -2.1300   -0.2470 hn        1 TL4      0.469467
@<TRIPOS>BOND
     1    1    2 ar  
     2    1   25 ar  
     3    1   27 1   
     4    2    3 ar  
     5    2   29 1   
     6    3    4 ar  
     7    3   30 1   
     8    4    5 1   
     9    4   24 ar  
    10    5    6 1   
    11    6    7 1   
    12    6   23 1   
    13    6   31 1   
    14    7    8 1   
    15    7   32 1   
    16    7   33 1   
    17    8    9 1   
    18    9   10 1   
    19    9   23 1   
    20    9   34 1   
    21   10   11 1   
    22   10   21 1   
    23   10   35 1   
    24   11   12 1   
    25   12   13 ar  
    26   12   20 ar  
    27   13   14 ar  
    28   13   36 1   
    29   14   15 ar  
    30   14   37 1   
    31   15   16 ar  
    32   15   38 1   
    33   16   17 1   
    34   16   20 ar  
    35   17   18 2   
    36   17   19 1   
    37   18   39 1   
    38   19   40 1   
    39   19   41 1   
    40   19   51 1   
    41   20   42 1   
    42   21   22 1   
    43   21   43 1   
    44   21   44 1   
    45   22   23 1   
    46   23   45 1   
    47   24   25 ar  
    48   24   46 1   
    49   25   47 1   
    50   26   27 2   
    51   26   48 1   
    52   27   28 1   
    53   28   49 1   
    54   28   50 1   
    55   28   52 1   
@<TRIPOS>SUBSTRUCTURE
     1 TL4         1 TEMP              0 ****  ****    0 ROOT
