@<TRIPOS>MOLECULE
TL4
   50    53     1     0     0
SMALL
bcc


@<TRIPOS>ATOM
      1 C4         -6.1280    0.4040    0.1480 ca        1 TL4     -0.167900
      2 C5         -5.7940   -0.5620    1.1040 ca        1 TL4     -0.075000
      3 C6         -4.5140   -1.1080    1.1320 ca        1 TL4     -0.169500
      4 C7         -3.5660   -0.6740    0.1910 ca        1 TL4      0.125100
      5 O8         -2.2980   -1.2190    0.3220 os        1 TL4     -0.319900
      6 C9         -1.5730   -1.4030   -0.8960 c3        1 TL4      0.092100
      7 C10        -0.6420   -2.6030   -0.6570 c3        1 TL4      0.117400
      8 O11         0.7180   -2.1790   -0.8070 os        1 TL4     -0.416600
      9 C12         0.7930   -0.7690   -1.0010 c3        1 TL4      0.087100
     10 C13         1.3100   -0.0650    0.2740 c3        1 TL4      0.093100
     11 O14         2.4340    0.7660   -0.0210 os        1 TL4     -0.321900
     12 C15         3.6770    0.1550    0.0150 ca        1 TL4      0.108100
     13 C16         3.8820   -1.2240   -0.1040 ca        1 TL4     -0.186000
     14 C17         5.1870   -1.7170   -0.0950 ca        1 TL4     -0.101000
     15 C18         6.2720   -0.8540    0.0320 ca        1 TL4     -0.153000
     16 C19         6.0550    0.5250    0.1470 ca        1 TL4     -0.108900
     17 C20         7.2240    1.4550    0.2780 ce        1 TL4      0.651800
     18 N21         7.3180    2.4480   -0.5520 n2        1 TL4     -0.824100
     19 N22         8.0670    1.1690    1.3730 nh        1 TL4     -0.959800
     20 C23         4.7620    1.0440    0.1390 ca        1 TL4     -0.103000
     21 C24         0.1740    0.8810    0.6980 c3        1 TL4      0.124400
     22 O25        -0.8210    0.8870   -0.3350 os        1 TL4     -0.395600
     23 C26        -0.6330   -0.2170   -1.2100 c3        1 TL4      0.094100
     24 C27        -3.8920    0.2920   -0.7690 ca        1 TL4     -0.169500
     25 C28        -5.1790    0.8250   -0.7880 ca        1 TL4     -0.075000
     26 N1         -8.5210    0.1560    0.1340 n2        1 TL4     -0.829100
     27 C2         -7.5130    0.9750    0.1260 ce        1 TL4      0.654800
     28 N3         -7.5570    2.3840    0.0270 nh        1 TL4     -0.958800
     29 H5         -6.5490   -0.9050    1.8280 ha        1 TL4      0.148500
     30 H6         -4.2360   -1.8650    1.8780 ha        1 TL4      0.149500
     31 H9         -2.2760   -1.5880   -1.7490 h1        1 TL4      0.074700
     32 H101       -0.7580   -3.0110    0.3810 h1        1 TL4      0.068200
     33 H102       -0.8060   -3.4090   -1.4160 h1        1 TL4      0.068200
     34 H12         1.4780   -0.5990   -1.8700 h1        1 TL4      0.101700
     35 H13         1.5590   -0.8050    1.0770 h1        1 TL4      0.085700
     36 H16         3.0310   -1.9130   -0.2190 ha        1 TL4      0.159000
     37 H17         5.3560   -2.8000   -0.1950 ha        1 TL4      0.137000
     38 H18         7.2950   -1.2570    0.0220 ha        1 TL4      0.131000
     39 H21         8.1080    3.0490   -0.4410 hn        1 TL4      0.382400
     40 H221        7.9810    0.2600    1.7610 hn        1 TL4      0.399800
     41 H222        8.9970    1.5140    1.3290 hn        1 TL4      0.399800
     42 H23         4.5790    2.1260    0.2120 ha        1 TL4      0.167000
     43 H241       -0.3100    0.5180    1.6390 h1        1 TL4      0.074200
     44 H242        0.5180    1.9420    0.8010 h1        1 TL4      0.074200
     45 H26        -0.8090    0.1760   -2.2440 h1        1 TL4      0.088700
     46 H27        -3.1280    0.6430   -1.4790 ha        1 TL4      0.149500
     47 H28        -5.4420    1.5760   -1.5490 ha        1 TL4      0.148500
     48 HN1        -9.4300    0.5680    0.1220 hn        1 TL4      0.381400
     49 HN31       -6.7270    2.8560    0.3010 hn        1 TL4      0.398800
     50 HN32       -8.3960    2.8260    0.3230 hn        1 TL4      0.398800
@<TRIPOS>BOND
     1    1    2 ar  
     2    1   25 ar  
     3    1   27 1   
     4    2    3 ar  
     5    2   29 1   
     6    3    4 ar  
     7    3   30 1   
     8    4    5 1   
     9    4   24 ar  
    10    5    6 1   
    11    6    7 1   
    12    6   23 1   
    13    6   31 1   
    14    7    8 1   
    15    7   32 1   
    16    7   33 1   
    17    8    9 1   
    18    9   10 1   
    19    9   23 1   
    20    9   34 1   
    21   10   11 1   
    22   10   21 1   
    23   10   35 1   
    24   11   12 1   
    25   12   13 ar  
    26   12   20 ar  
    27   13   14 ar  
    28   13   36 1   
    29   14   15 ar  
    30   14   37 1   
    31   15   16 ar  
    32   15   38 1   
    33   16   17 1   
    34   16   20 ar  
    35   17   18 2   
    36   17   19 1   
    37   18   39 1   
    38   19   40 1   
    39   19   41 1   
    40   20   42 1   
    41   21   22 1   
    42   21   43 1   
    43   21   44 1   
    44   22   23 1   
    45   23   45 1   
    46   24   25 ar  
    47   24   46 1   
    48   25   47 1   
    49   26   27 2   
    50   26   48 1   
    51   27   28 1   
    52   28   49 1   
    53   28   50 1   
@<TRIPOS>SUBSTRUCTURE
     1 TL4         1 TEMP              0 ****  ****    0 ROOT
