@<TRIPOS>MOLECULE
TL4
   52    55     1     0     0
SMALL
bcc


@<TRIPOS>ATOM
      1 C4         -0.1430    0.1530    0.2470 ca        1 TL4     -0.308900
      2 C5          1.1800   -0.1360   -0.1250 ca        1 TL4     -0.055500
      3 C6          2.2280    0.1970    0.7200 ca        1 TL4     -0.165000
      4 C7          1.9500    0.8290    1.9520 ca        1 TL4      0.190100
      5 O8          3.0550    1.1100    2.7180 os        1 TL4     -0.299900
      6 C9          2.9200    2.1370    3.7110 c3        1 TL4      0.088100
      7 C10         4.3340    2.7130    3.9050 c3        1 TL4      0.119400
      8 O11         4.7100    2.5610    5.2790 os        1 TL4     -0.412600
      9 C12         3.7380    1.8080    5.9970 c3        1 TL4      0.088100
     10 C13         4.2780    0.3960    6.3140 c3        1 TL4      0.090100
     11 O14         4.2050    0.1140    7.7170 os        1 TL4     -0.314900
     12 C15         5.2200    0.6110    8.5080 ca        1 TL4      0.136100
     13 C16         6.1560    1.5750    8.1050 ca        1 TL4     -0.149000
     14 C17         7.1160    2.0180    9.0140 ca        1 TL4     -0.074000
     15 C18         7.1510    1.5160   10.3150 ca        1 TL4     -0.140000
     16 C19         6.2100    0.5570   10.7070 ca        1 TL4     -0.226900
     17 C20         6.1970    0.0580   12.1000 ce        1 TL4      0.587800
     18 N21         5.3250    0.1530   13.0260 n2        1 TL4     -0.703100
     19 N22         7.4580   -0.6950   12.4390 n4        1 TL4     -0.823600
     20 C23         5.2420    0.0910    9.8170 ca        1 TL4     -0.120000
     21 C24         3.3010   -0.5740    5.6310 c3        1 TL4      0.126400
     22 O25         2.2280    0.1830    5.0540 os        1 TL4     -0.401600
     23 C26         2.5110    1.5760    5.0900 c3        1 TL4      0.095100
     24 C27         0.6270    1.0990    2.3350 ca        1 TL4     -0.165000
     25 C28        -0.4150    0.7620    1.4780 ca        1 TL4     -0.055500
     26 N1         -1.5880    0.4150   -1.7930 n2        1 TL4     -0.705100
     27 C2         -1.2370   -0.1360   -0.6980 ce        1 TL4      0.595800
     28 N3         -2.0640   -1.3160   -0.2470 n4        1 TL4     -0.825600
     29 H5          1.3950   -0.6150   -1.0940 ha        1 TL4      0.149500
     30 H6          3.2720   -0.0190    0.4440 ha        1 TL4      0.172500
     31 H9          2.2000    2.9230    3.3640 h1        1 TL4      0.083700
     32 H101        4.3640    3.8120    3.6900 h1        1 TL4      0.084700
     33 H102        5.0900    2.1680    3.2810 h1        1 TL4      0.084700
     34 H12         3.5050    2.3820    6.9290 h1        1 TL4      0.104700
     35 H13         5.3280    0.2640    5.9420 h1        1 TL4      0.092700
     36 H16         6.1280    1.9990    7.0860 ha        1 TL4      0.184000
     37 H17         7.8480    2.7820    8.7020 ha        1 TL4      0.170000
     38 H18         7.8950    1.9060   11.0260 ha        1 TL4      0.143000
     39 H21         4.4790    0.6540   12.8420 hn        1 TL4      0.492400
     40 H221        7.5050   -0.9420   13.4360 hn        1 TL4      0.472467
     41 H222        8.2600   -0.1040   12.1920 hn        1 TL4      0.472467
     42 H23         4.4930   -0.6600   10.1120 ha        1 TL4      0.166000
     43 H241        2.8280   -1.2830    6.3580 h1        1 TL4      0.081200
     44 H242        3.8100   -1.1280    4.8020 h1        1 TL4      0.081200
     45 H26         1.5820    2.0740    5.4710 h1        1 TL4      0.097700
     46 H27         0.4140    1.5520    3.3160 ha        1 TL4      0.172500
     47 H28        -1.4510    0.9950    1.7720 ha        1 TL4      0.149500
     48 HN1        -1.0700    1.2040   -2.1240 hn        1 TL4      0.492400
     49 HN31       -2.3770   -1.1370    0.7130 hn        1 TL4      0.469467
     50 HN32       -2.8800   -1.4740   -0.8530 hn        1 TL4      0.469467
     51 H223        7.4840   -1.5520   11.8750 hn        1 TL4      0.472467
     52 H33        -1.4670   -2.1490   -0.2570 hn        1 TL4      0.469467
@<TRIPOS>BOND
     1    1    2 ar  
     2    1   25 ar  
     3    1   27 1   
     4    2    3 ar  
     5    2   29 1   
     6    3    4 ar  
     7    3   30 1   
     8    4    5 1   
     9    4   24 ar  
    10    5    6 1   
    11    6    7 1   
    12    6   23 1   
    13    6   31 1   
    14    7    8 1   
    15    7   32 1   
    16    7   33 1   
    17    8    9 1   
    18    9   10 1   
    19    9   23 1   
    20    9   34 1   
    21   10   11 1   
    22   10   21 1   
    23   10   35 1   
    24   11   12 1   
    25   12   13 ar  
    26   12   20 ar  
    27   13   14 ar  
    28   13   36 1   
    29   14   15 ar  
    30   14   37 1   
    31   15   16 ar  
    32   15   38 1   
    33   16   17 1   
    34   16   20 ar  
    35   17   18 2   
    36   17   19 1   
    37   18   39 1   
    38   19   40 1   
    39   19   41 1   
    40   19   51 1   
    41   20   42 1   
    42   21   22 1   
    43   21   43 1   
    44   21   44 1   
    45   22   23 1   
    46   23   45 1   
    47   24   25 ar  
    48   24   46 1   
    49   25   47 1   
    50   26   27 2   
    51   26   48 1   
    52   27   28 1   
    53   28   49 1   
    54   28   50 1   
    55   28   52 1   
@<TRIPOS>SUBSTRUCTURE
     1 TL4         1 TEMP              0 ****  ****    0 ROOT
