@<TRIPOS>MOLECULE
TL4
   52    55     1     0     0
SMALL
bcc


@<TRIPOS>ATOM
      1 C4         -0.1570    0.1470    0.2570 ca        1 TL4     -0.308900
      2 C5          1.1690   -0.1170   -0.1230 ca        1 TL4     -0.055500
      3 C6          2.2150    0.2240    0.7200 ca        1 TL4     -0.165500
      4 C7          1.9330    0.8390    1.9600 ca        1 TL4      0.190100
      5 O8          3.0360    1.1300    2.7240 os        1 TL4     -0.299900
      6 C9          2.8890    2.1450    3.7270 c3        1 TL4      0.088100
      7 C10         4.2940    2.7430    3.9200 c3        1 TL4      0.119400
      8 O11         4.6780    2.5840    5.2910 os        1 TL4     -0.412600
      9 C12         3.7220    1.8080    6.0060 c3        1 TL4      0.088100
     10 C13         4.2870    0.4030    6.3080 c3        1 TL4      0.090100
     11 O14         4.2250    0.1070    7.7090 os        1 TL4     -0.314900
     12 C15         5.2350    0.6130    8.5000 ca        1 TL4      0.136100
     13 C16         6.1530    1.5960    8.1020 ca        1 TL4     -0.149000
     14 C17         7.1090    2.0470    9.0110 ca        1 TL4     -0.074000
     15 C18         7.1580    1.5340   10.3070 ca        1 TL4     -0.140000
     16 C19         6.2340    0.5560   10.6950 ca        1 TL4     -0.226900
     17 C20         6.2350    0.0440   12.0830 ce        1 TL4      0.587800
     18 N21         5.3650    0.1180   13.0140 n2        1 TL4     -0.703100
     19 N22         7.5090   -0.6910   12.4100 nz        1 TL4     -0.823600
     20 C23         5.2700    0.0820    9.8040 ca        1 TL4     -0.121000
     21 C24         3.3230   -0.5770    5.6200 c3        1 TL4      0.126400
     22 O25         2.2350    0.1680    5.0550 os        1 TL4     -0.401600
     23 C26         2.4960    1.5650    5.1030 c3        1 TL4      0.095100
     24 C27         0.6060    1.0840    2.3520 ca        1 TL4     -0.165500
     25 C28        -0.4340    0.7380    1.4960 ca        1 TL4     -0.055500
     26 N1         -1.6170    0.4070   -1.7730 n2        1 TL4     -0.705100
     27 C2         -1.2510   -0.1500   -0.6860 ce        1 TL4      0.595800
     28 N3         -2.0550   -1.3500   -0.2450 nz        1 TL4     -0.825600
     29 H5          1.3870   -0.5830   -1.0980 ha        1 TL4      0.149500
     30 H6          3.2610    0.0280    0.4370 ha        1 TL4      0.172500
     31 H9          2.1550    2.9220    3.3910 h1        1 TL4      0.083700
     32 H101        4.3050    3.8440    3.7160 h1        1 TL4      0.084700
     33 H102        5.0560    2.2160    3.2890 h1        1 TL4      0.084700
     34 H12         3.4830    2.3700    6.9450 h1        1 TL4      0.104700
     35 H13         5.3370    0.2920    5.9310 h1        1 TL4      0.092700
     36 H16         6.1140    2.0280    7.0870 ha        1 TL4      0.184000
     37 H17         7.8270    2.8260    8.7030 ha        1 TL4      0.170000
     38 H18         7.8980    1.9300   11.0190 ha        1 TL4      0.143000
     39 H21         4.5110    0.6060   12.8370 hn        1 TL4      0.492400
     40 H221        8.3000   -0.0850   12.1660 hn        1 TL4      0.472467
     41 H222        7.5470   -1.5420   11.8390 hn        1 TL4      0.472467
     42 H23         4.5350   -0.6840   10.0950 ha        1 TL4      0.166000
     43 H241        2.8650   -1.3010    6.3420 h1        1 TL4      0.081200
     44 H242        3.8370   -1.1150    4.7830 h1        1 TL4      0.081200
     45 H26         1.5600    2.0440    5.4920 h1        1 TL4      0.097700
     46 H27         0.3910    1.5240    3.3380 ha        1 TL4      0.172500
     47 H28        -1.4720    0.9510    1.7960 ha        1 TL4      0.149500
     48 HN1        -1.1140    1.2090   -2.0970 hn        1 TL4      0.492400
     49 HN31       -2.8700   -1.5150   -0.8500 hn        1 TL4      0.469467
     50 HN32       -1.4420   -2.1720   -0.2680 hn        1 TL4      0.469467
     51 H223        7.5640   -0.9460   13.4050 hn        1 TL4      0.472467
     52 H33        -2.3660   -1.1890    0.7170 hn        1 TL4      0.469467
@<TRIPOS>BOND
     1    1    2 ar  
     2    1   25 ar  
     3    1   27 1   
     4    2    3 ar  
     5    2   29 1   
     6    3    4 ar  
     7    3   30 1   
     8    4    5 1   
     9    4   24 ar  
    10    5    6 1   
    11    6    7 1   
    12    6   23 1   
    13    6   31 1   
    14    7    8 1   
    15    7   32 1   
    16    7   33 1   
    17    8    9 1   
    18    9   10 1   
    19    9   23 1   
    20    9   34 1   
    21   10   11 1   
    22   10   21 1   
    23   10   35 1   
    24   11   12 1   
    25   12   13 ar  
    26   12   20 ar  
    27   13   14 ar  
    28   13   36 1   
    29   14   15 ar  
    30   14   37 1   
    31   15   16 ar  
    32   15   38 1   
    33   16   17 1   
    34   16   20 ar  
    35   17   18 2   
    36   17   19 1   
    37   18   39 1   
    38   19   40 1   
    39   19   41 1   
    40   19   51 1   
    41   20   42 1   
    42   21   22 1   
    43   21   43 1   
    44   21   44 1   
    45   22   23 1   
    46   23   45 1   
    47   24   25 ar  
    48   24   46 1   
    49   25   47 1   
    50   26   27 2   
    51   26   48 1   
    52   27   28 1   
    53   28   49 1   
    54   28   50 1   
    55   28   52 1   
@<TRIPOS>SUBSTRUCTURE
     1 TL4         1 TEMP              0 ****  ****    0 ROOT
