@<TRIPOS>MOLECULE
TL5
   31    28     1     0     0
SMALL
bcc


@<TRIPOS>ATOM
      1 O1         -3.8570   -0.2200    1.3630 o         1 TL5     -0.260000
      2 C1         -2.6700   -0.1890    1.3350 c1        1 TL5      0.176000
      3 C2         -1.7770   -0.1110    2.5050 c1        1 TL5     -0.296000
      4 C9         -2.2190   -0.5310    3.8680 c3        1 TL5     -0.161000
      5 S1         -1.6820    0.4070    0.0100 ss        1 TL5      0.084000
      6 C4         -0.0370    0.5380    0.7180 c3        1 TL5     -0.053000
      7 C3         -0.3530    0.3050    2.2170 c2        1 TL5      0.090000
      8 O2          0.3950    0.9530    3.1960 oh        1 TL5     -0.222000
      9 C10         0.6940    1.8870    0.4140 c3        1 TL5     -0.199000
     10 C5          0.9140   -0.4580    0.1640 c2        1 TL5     -0.170000
     11 C6          0.8200   -0.8460   -1.1510 c1        1 TL5     -0.037000
     12 C11         1.8200   -1.8780   -1.7230 c2        1 TL5     -0.189000
     13 C7         -0.3350   -0.3480   -2.0130 c2        1 TL5     -0.157000
     14 C8         -0.0830    0.2900   -3.1670 c1        1 TL5     -0.145000
     15 C12         1.3610    0.5150   -3.6160 c2        1 TL5     -0.189000
     16 H91        -2.4680    0.2770    4.4020 hc        1 TL5      0.090333
     17 H92        -3.0030   -1.1320    3.7920 hc        1 TL5      0.090333
     18 H93        -1.4990   -0.9980    4.3080 hc        1 TL5      0.090333
     19 HO2         0.7590    0.3450    3.7420 ho        1 TL5      0.233000
     20 H101        1.6710    1.7750    0.5640 hc        1 TL5      0.098667
     21 H102        0.5330    2.1470   -0.5280 hc        1 TL5      0.098667
     22 H103        0.3480    2.5870    1.0100 hc        1 TL5      0.098667
     23 H5          1.6130   -0.8100    0.7180 ha        1 TL5      0.142000
     24 H111        2.6900   -1.4260   -1.9200 ha        1 TL5      0.085833
     25 H112        1.4550   -2.2650   -2.5520 ha        1 TL5      0.085833
     26 H113        1.9670   -2.5950   -1.0610 ha        1 TL5      0.085833
     27 H7         -1.2590   -0.4930   -1.7250 ha        1 TL5      0.148000
     28 H8         -0.8220    0.6090   -3.7200 ha        1 TL5      0.123000
     29 H121        1.9240    0.7130   -2.8300 ha        1 TL5      0.085833
     30 H122        1.3950    1.2730   -4.2430 ha        1 TL5      0.085833
     31 H123        1.7050   -0.3220   -4.0770 ha        1 TL5      0.085833
@<TRIPOS>BOND
     1    1    2 1   
     2    2    5 1   
     3    3    4 1   
     4    3    7 1   
     5    4   16 1   
     6    4   17 1   
     7    4   18 1   
     8    5    6 1   
     9    6    7 1   
    10    6    9 1   
    11    6   10 1   
    12    7    8 1   
    13    8   19 1   
    14    9   20 1   
    15    9   21 1   
    16    9   22 1   
    17   10   11 1   
    18   10   23 1   
    19   11   13 1   
    20   12   24 1   
    21   12   25 1   
    22   12   26 1   
    23   13   14 1   
    24   13   27 1   
    25   14   28 1   
    26   15   29 1   
    27   15   30 1   
    28   15   31 1   
@<TRIPOS>SUBSTRUCTURE
     1 TL5         1 TEMP              0 ****  ****    0 ROOT
