@<TRIPOS>MOLECULE
TL5
   31    31     1     0     0
SMALL
bcc


@<TRIPOS>ATOM
      1 O1          0.2630   -0.4090   -0.1050 o         1 TL5     -0.497100
      2 C1          1.4760   -0.2240   -0.0310 c         1 TL5      0.619900
      3 C2          2.2960   -0.3500    1.1830 ce        1 TL5     -0.322400
      4 C9          1.6710   -0.7170    2.4640 c3        1 TL5     -0.038900
      5 S1          2.5170    0.2490   -1.3540 ss        1 TL5     -0.282700
      6 C4          4.0790    0.2550   -0.3940 c3        1 TL5      0.139500
      7 C3          3.6190   -0.0970    0.9980 c2        1 TL5      0.138900
      8 O2          4.5840   -0.1050    1.9580 oh        1 TL5     -0.469100
      9 C10         4.6550    1.6520   -0.4530 c3        1 TL5     -0.083100
     10 C5          4.9460   -0.7910   -0.9930 c2        1 TL5     -0.188200
     11 C6          6.2700   -0.9640   -0.8300 ce        1 TL5     -0.031200
     12 C11         7.1410   -0.1110    0.0140 c3        1 TL5     -0.072900
     13 C7          6.9350   -2.0480   -1.5580 ce        1 TL5     -0.153000
     14 C8          7.6150   -3.0600   -1.0090 c2        1 TL5     -0.145200
     15 C12         7.8100   -3.2930    0.4350 c3        1 TL5     -0.071900
     16 H91         2.1200   -1.6590    2.8680 hc        1 TL5      0.051367
     17 H92         1.8160    0.0960    3.2210 hc        1 TL5      0.051367
     18 H93         0.5720   -0.8800    2.3270 hc        1 TL5      0.051367
     19 HO2         4.1720   -0.3680    2.7980 ho        1 TL5      0.434000
     20 H101        3.8460    2.4130   -0.3310 hc        1 TL5      0.059033
     21 H102        5.4020    1.7950    0.3670 hc        1 TL5      0.059033
     22 H103        5.1600    1.8180   -1.4350 hc        1 TL5      0.059033
     23 H5          4.3950   -1.4940   -1.6470 ha        1 TL5      0.149000
     24 H111        6.6650    0.0750    1.0100 hc        1 TL5      0.052367
     25 H112        7.3130    0.8740   -0.4890 hc        1 TL5      0.052367
     26 H113        8.1340   -0.5960    0.1810 hc        1 TL5      0.052367
     27 H7          6.8330   -1.9850   -2.6560 ha        1 TL5      0.131000
     28 H8          8.0820   -3.8170   -1.6640 ha        1 TL5      0.121000
     29 H121        7.4920   -4.3320    0.7010 hc        1 TL5      0.045700
     30 H122        7.2230   -2.5730    1.0570 hc        1 TL5      0.045700
     31 H123        8.8930   -3.1830    0.6950 hc        1 TL5      0.045700
@<TRIPOS>BOND
     1    1    2 2   
     2    2    3 1   
     3    2    5 1   
     4    3    4 1   
     5    3    7 2   
     6    4   16 1   
     7    4   17 1   
     8    4   18 1   
     9    5    6 1   
    10    6    7 1   
    11    6    9 1   
    12    6   10 1   
    13    7    8 1   
    14    8   19 1   
    15    9   20 1   
    16    9   21 1   
    17    9   22 1   
    18   10   11 2   
    19   10   23 1   
    20   11   12 1   
    21   11   13 1   
    22   12   24 1   
    23   12   25 1   
    24   12   26 1   
    25   13   14 2   
    26   13   27 1   
    27   14   15 1   
    28   14   28 1   
    29   15   29 1   
    30   15   30 1   
    31   15   31 1   
@<TRIPOS>SUBSTRUCTURE
     1 TL5         1 TEMP              0 ****  ****    0 ROOT
