@<TRIPOS>MOLECULE
TL5
   31    31     1     0     0
SMALL
bcc


@<TRIPOS>ATOM
      1 O1         -3.7190    0.9780   -1.2000 o         1 TL5     -0.497100
      2 C1         -2.7030    0.5880   -0.6300 c         1 TL5      0.619900
      3 C2         -2.3200   -0.8140   -0.4080 ce        1 TL5     -0.323400
      4 C9         -3.1960   -1.9030   -0.8720 c3        1 TL5     -0.038900
      5 S1         -1.4690    1.6130    0.0680 ss        1 TL5     -0.283700
      6 C4         -0.3710    0.2560    0.6340 c3        1 TL5      0.139500
      7 C3         -1.1390   -0.9810    0.2450 c2        1 TL5      0.138900
      8 O2         -0.5820   -2.1670    0.6110 oh        1 TL5     -0.468100
      9 C10        -0.2270    0.3770    2.1350 c3        1 TL5     -0.083100
     10 C5          0.9000    0.4070   -0.1170 c2        1 TL5     -0.186200
     11 C6          2.0990   -0.1460    0.1530 ce        1 TL5     -0.030200
     12 C11         2.3560   -1.0850    1.2700 c3        1 TL5     -0.074900
     13 C7          3.2310    0.1910   -0.7100 ce        1 TL5     -0.151000
     14 C8          4.5120    0.1680   -0.3200 c2        1 TL5     -0.146200
     15 C12         5.6380    0.5280   -1.2020 c3        1 TL5     -0.068900
     16 H91        -4.0950   -1.4830   -1.3910 hc        1 TL5      0.051033
     17 H92        -2.6530   -2.5680   -1.5910 hc        1 TL5      0.051033
     18 H93        -3.5450   -2.5250   -0.0100 hc        1 TL5      0.051033
     19 HO2        -1.1490   -2.8840    0.2780 ho        1 TL5      0.434000
     20 H101        0.4950    1.1920    2.3850 hc        1 TL5      0.059367
     21 H102       -1.2130    0.6130    2.6040 hc        1 TL5      0.059367
     22 H103        0.1490   -0.5840    2.5660 hc        1 TL5      0.059367
     23 H5          0.8100    1.0810   -0.9910 ha        1 TL5      0.147000
     24 H111        1.4920   -1.7830    1.4080 hc        1 TL5      0.052033
     25 H112        3.2680   -1.7020    1.0770 hc        1 TL5      0.052033
     26 H113        2.5100   -0.5160    2.2220 hc        1 TL5      0.052033
     27 H7          2.9650    0.4990   -1.7370 ha        1 TL5      0.128000
     28 H8          4.7940   -0.1210    0.7070 ha        1 TL5      0.122000
     29 H121        6.3480   -0.3340   -1.2870 hc        1 TL5      0.045033
     30 H122        5.2950    0.8050   -2.2290 hc        1 TL5      0.045033
     31 H123        6.1970    1.3970   -0.7710 hc        1 TL5      0.045033
@<TRIPOS>BOND
     1    1    2 2   
     2    2    3 1   
     3    2    5 1   
     4    3    4 1   
     5    3    7 2   
     6    4   16 1   
     7    4   17 1   
     8    4   18 1   
     9    5    6 1   
    10    6    7 1   
    11    6    9 1   
    12    6   10 1   
    13    7    8 1   
    14    8   19 1   
    15    9   20 1   
    16    9   21 1   
    17    9   22 1   
    18   10   11 2   
    19   10   23 1   
    20   11   12 1   
    21   11   13 1   
    22   12   24 1   
    23   12   25 1   
    24   12   26 1   
    25   13   14 2   
    26   13   27 1   
    27   14   15 1   
    28   14   28 1   
    29   15   29 1   
    30   15   30 1   
    31   15   31 1   
@<TRIPOS>SUBSTRUCTURE
     1 TL5         1 TEMP              0 ****  ****    0 ROOT
