@<TRIPOS>MOLECULE
TL5
   31    31     1     0     0
SMALL
bcc


@<TRIPOS>ATOM
      1 O1          0.2770   -0.4620   -0.2990 o         1 TL5     -0.497100
      2 C1          1.4820   -0.2620   -0.1600 c         1 TL5      0.619900
      3 C2          2.2500   -0.4450    1.0810 ce        1 TL5     -0.322400
      4 C9          1.5750   -0.8930    2.3110 c3        1 TL5     -0.038900
      5 S1          2.5730    0.3010   -1.4060 ss        1 TL5     -0.282700
      6 C4          4.0900    0.2760   -0.3760 c3        1 TL5      0.139500
      7 C3          3.5750   -0.1620    0.9720 c2        1 TL5      0.138900
      8 O2          4.4970   -0.2090    1.9720 oh        1 TL5     -0.469100
      9 C10         4.6430    1.6830   -0.3310 c3        1 TL5     -0.083100
     10 C5          5.0010   -0.7220   -0.9930 c2        1 TL5     -0.188200
     11 C6          6.3190   -0.8830   -0.7800 ce        1 TL5     -0.031200
     12 C11         7.1360   -0.0660    0.1490 c3        1 TL5     -0.072900
     13 C7          7.0350   -1.9140   -1.5360 ce        1 TL5     -0.153000
     14 C8          7.7070   -2.9460   -1.0140 c2        1 TL5     -0.145200
     15 C12         7.8410   -3.2570    0.4210 c3        1 TL5     -0.071900
     16 H91         2.0230   -1.8490    2.6820 hc        1 TL5      0.051367
     17 H92         1.6710   -0.1220    3.1180 hc        1 TL5      0.051367
     18 H93         0.4870   -1.0650    2.1150 hc        1 TL5      0.051367
     19 HO2         4.0520   -0.5260    2.7770 ho        1 TL5      0.434000
     20 H101        5.1880    1.9120   -1.2790 hc        1 TL5      0.059033
     21 H102        3.8160    2.4230   -0.2040 hc        1 TL5      0.059033
     22 H103        5.3500    1.7900    0.5280 hc        1 TL5      0.059033
     23 H5          4.4930   -1.3950   -1.7100 ha        1 TL5      0.149000
     24 H111        6.6140    0.0560    1.1310 hc        1 TL5      0.052367
     25 H112        7.3130    0.9480   -0.2900 hc        1 TL5      0.052367
     26 H113        8.1300   -0.5450    0.3340 hc        1 TL5      0.052367
     27 H7          6.9820   -1.7900   -2.6330 ha        1 TL5      0.131000
     28 H8          8.2160   -3.6570   -1.6890 ha        1 TL5      0.121000
     29 H121        7.5270   -4.3140    0.6140 hc        1 TL5      0.045700
     30 H122        8.9090   -3.1480    0.7370 hc        1 TL5      0.045700
     31 H123        7.2150   -2.5820    1.0560 hc        1 TL5      0.045700
@<TRIPOS>BOND
     1    1    2 2   
     2    2    3 1   
     3    2    5 1   
     4    3    4 1   
     5    3    7 2   
     6    4   16 1   
     7    4   17 1   
     8    4   18 1   
     9    5    6 1   
    10    6    7 1   
    11    6    9 1   
    12    6   10 1   
    13    7    8 1   
    14    8   19 1   
    15    9   20 1   
    16    9   21 1   
    17    9   22 1   
    18   10   11 2   
    19   10   23 1   
    20   11   12 1   
    21   11   13 1   
    22   12   24 1   
    23   12   25 1   
    24   12   26 1   
    25   13   14 2   
    26   13   27 1   
    27   14   15 1   
    28   14   28 1   
    29   15   29 1   
    30   15   30 1   
    31   15   31 1   
@<TRIPOS>SUBSTRUCTURE
     1 TL5         1 TEMP              0 ****  ****    0 ROOT
