@<TRIPOS>MOLECULE
TL6
   25    25     1     0     0
SMALL
bcc


@<TRIPOS>ATOM
      1 O1          2.4510   -2.2010   -0.2310 o         1 TL6     -0.495100
      2 C1          1.7370   -1.2180   -0.0500 c         1 TL6      0.621900
      3 S1          0.2570   -1.1970    0.8890 ss        1 TL6     -0.279700
      4 C4         -0.1140    0.5710    0.6370 c3        1 TL6      0.122500
      5 C10        -0.1060    1.2620    1.9870 c3        1 TL6     -0.076100
      6 C3          1.0300    1.0450   -0.2220 c2        1 TL6      0.134900
      7 O2          0.9960    2.3620   -0.5600 oh        1 TL6     -0.468100
      8 C2          1.9760    0.1350   -0.5730 ce        1 TL6     -0.318400
      9 C9          3.1600    0.4130   -1.4030 c3        1 TL6     -0.038900
     10 C5         -1.4170    0.7870   -0.0460 c2        1 TL6     -0.170200
     11 C6         -2.4000   -0.1200   -0.1130 ce        1 TL6     -0.103000
     12 C7         -3.6680    0.1450   -0.7640 ce        1 TL6     -0.144000
     13 C8         -4.6490   -0.7570   -0.8460 c2        1 TL6     -0.193000
     14 H101       -0.2560    2.3610    1.8440 hc        1 TL6      0.058033
     15 H102       -0.9320    0.8630    2.6240 hc        1 TL6      0.058033
     16 H103        0.8670    1.0960    2.5080 hc        1 TL6      0.058033
     17 HO2         1.7700    2.5500   -1.1190 ho        1 TL6      0.435000
     18 H91         3.8030    1.1950   -0.9250 hc        1 TL6      0.052033
     19 H92         3.7710   -0.5170   -1.5300 hc        1 TL6      0.052033
     20 H93         2.8560    0.7760   -2.4170 hc        1 TL6      0.052033
     21 H5         -1.5200    1.7940   -0.4880 ha        1 TL6      0.144000
     22 H6         -2.2730   -1.1280    0.3260 ha        1 TL6      0.144000
     23 H7         -3.7890    1.1530   -1.2000 ha        1 TL6      0.124000
     24 H81        -4.5640   -1.7680   -0.4260 ha        1 TL6      0.116500
     25 H82        -5.6020   -0.5370   -1.3440 ha        1 TL6      0.116500
@<TRIPOS>BOND
     1    1    2 2   
     2    2    3 1   
     3    2    8 1   
     4    3    4 1   
     5    4    5 1   
     6    4    6 1   
     7    4   10 1   
     8    5   14 1   
     9    5   15 1   
    10    5   16 1   
    11    6    7 1   
    12    6    8 2   
    13    7   17 1   
    14    8    9 1   
    15    9   18 1   
    16    9   19 1   
    17    9   20 1   
    18   10   11 2   
    19   10   21 1   
    20   11   12 1   
    21   11   22 1   
    22   12   13 2   
    23   12   23 1   
    24   13   24 1   
    25   13   25 1   
@<TRIPOS>SUBSTRUCTURE
     1 TL6         1 TEMP              0 ****  ****    0 ROOT
