@<TRIPOS>MOLECULE
TL6
   25    25     1     0     0
SMALL
bcc


@<TRIPOS>ATOM
      1 O1         -0.0110   -0.1560   -0.1120 o         1 TL6     -0.495100
      2 C1          1.2160   -0.1000   -0.0890 c         1 TL6      0.621900
      3 S1          2.2010    0.0170    1.3550 ss        1 TL6     -0.279700
      4 C4          3.8110    0.0430    0.4980 c3        1 TL6      0.122500
      5 C10         4.6080   -1.1730    0.9310 c3        1 TL6     -0.076100
      6 C3          3.4290   -0.0490   -0.9580 c2        1 TL6      0.134900
      7 O2          4.4700   -0.0520   -1.8330 oh        1 TL6     -0.468100
      8 C2          2.1060   -0.1230   -1.2600 ce        1 TL6     -0.318400
      9 C9          1.5460   -0.2190   -2.6170 c3        1 TL6     -0.038900
     10 C5          4.5800    1.2870    0.7670 c2        1 TL6     -0.170200
     11 C6          4.3580    2.1070    1.8030 ce        1 TL6     -0.103000
     12 C7          5.1540    3.2950    2.0440 ce        1 TL6     -0.144000
     13 C8          4.9330    4.1250    3.0660 c2        1 TL6     -0.193000
     14 H101        4.0320   -2.1100    0.7390 hc        1 TL6      0.058033
     15 H102        4.8400   -1.1070    2.0210 hc        1 TL6      0.058033
     16 H103        5.5670   -1.2140    0.3560 hc        1 TL6      0.058033
     17 HO2         4.1060   -0.1030   -2.7330 ho        1 TL6      0.435000
     18 H91         1.9210   -1.1370   -3.1360 hc        1 TL6      0.052033
     19 H92         0.4280   -0.2700   -2.5730 hc        1 TL6      0.052033
     20 H93         1.8340    0.6740   -3.2280 hc        1 TL6      0.052033
     21 H5          5.3860    1.4730    0.0360 ha        1 TL6      0.144000
     22 H6          3.5380    1.9090    2.5190 ha        1 TL6      0.144000
     23 H7          5.9710    3.4870    1.3270 ha        1 TL6      0.124000
     24 H81         4.1300    3.9680    3.7980 ha        1 TL6      0.116500
     25 H82         5.5470    5.0210    3.2320 ha        1 TL6      0.116500
@<TRIPOS>BOND
     1    1    2 2   
     2    2    3 1   
     3    2    8 1   
     4    3    4 1   
     5    4    5 1   
     6    4    6 1   
     7    4   10 1   
     8    5   14 1   
     9    5   15 1   
    10    5   16 1   
    11    6    7 1   
    12    6    8 2   
    13    7   17 1   
    14    8    9 1   
    15    9   18 1   
    16    9   19 1   
    17    9   20 1   
    18   10   11 2   
    19   10   21 1   
    20   11   12 1   
    21   11   22 1   
    22   12   13 2   
    23   12   23 1   
    24   13   24 1   
    25   13   25 1   
@<TRIPOS>SUBSTRUCTURE
     1 TL6         1 TEMP              0 ****  ****    0 ROOT
