@<TRIPOS>MOLECULE
TL6
   25    25     1     0     0
SMALL
bcc


@<TRIPOS>ATOM
      1 O1         -0.0090   -0.1610   -0.1210 o         1 TL6     -0.495100
      2 C1          1.2190   -0.1040   -0.0930 c         1 TL6      0.621900
      3 S1          2.1980    0.0210    1.3540 ss        1 TL6     -0.279700
      4 C4          3.8110    0.0440    0.5030 c3        1 TL6      0.122500
      5 C10         4.6070   -1.1690    0.9460 c3        1 TL6     -0.076100
      6 C3          3.4350   -0.0570   -0.9530 c2        1 TL6      0.134900
      7 O2          4.4790   -0.0630   -1.8240 oh        1 TL6     -0.468100
      8 C2          2.1130   -0.1330   -1.2600 ce        1 TL6     -0.318400
      9 C9          1.5590   -0.2360   -2.6200 c3        1 TL6     -0.038900
     10 C5          4.5770    1.2900    0.7690 c2        1 TL6     -0.170200
     11 C6          4.3500    2.1170    1.7980 ce        1 TL6     -0.103000
     12 C7          5.1440    3.3070    2.0370 ce        1 TL6     -0.144000
     13 C8          4.9170    4.1440    3.0520 c2        1 TL6     -0.193000
     14 H101        5.5680   -1.2120    0.3760 hc        1 TL6      0.058033
     15 H102        4.0330   -2.1070    0.7560 hc        1 TL6      0.058033
     16 H103        4.8350   -1.0970    2.0370 hc        1 TL6      0.058033
     17 HO2         4.1190   -0.1190   -2.7260 ho        1 TL6      0.435000
     18 H91         0.4410   -0.2880   -2.5800 hc        1 TL6      0.052033
     19 H92         1.8490    0.6540   -3.2340 hc        1 TL6      0.052033
     20 H93         1.9370   -1.1570   -3.1320 hc        1 TL6      0.052033
     21 H5          5.3880    1.4720    0.0410 ha        1 TL6      0.144000
     22 H6          3.5260    1.9230    2.5110 ha        1 TL6      0.144000
     23 H7          5.9650    3.4950    1.3230 ha        1 TL6      0.124000
     24 H81         4.1090    3.9900    3.7800 ha        1 TL6      0.116500
     25 H82         5.5290    5.0400    3.2150 ha        1 TL6      0.116500
@<TRIPOS>BOND
     1    1    2 2   
     2    2    3 1   
     3    2    8 1   
     4    3    4 1   
     5    4    5 1   
     6    4    6 1   
     7    4   10 1   
     8    5   14 1   
     9    5   15 1   
    10    5   16 1   
    11    6    7 1   
    12    6    8 2   
    13    7   17 1   
    14    8    9 1   
    15    9   18 1   
    16    9   19 1   
    17    9   20 1   
    18   10   11 2   
    19   10   21 1   
    20   11   12 1   
    21   11   22 1   
    22   12   13 2   
    23   12   23 1   
    24   13   24 1   
    25   13   25 1   
@<TRIPOS>SUBSTRUCTURE
     1 TL6         1 TEMP              0 ****  ****    0 ROOT
