@<TRIPOS>MOLECULE
TLA
   14    13     1     0     0
SMALL
bcc


@<TRIPOS>ATOM
      1 O1          0.0990   -0.3120   -0.0900 o         1 TLA     -0.870800
      2 O11         2.0970   -0.8280   -0.9210 o         1 TLA     -0.870800
      3 C1          1.3630   -0.4060    0.0180 c         1 TLA      0.891600
      4 C2          1.9890   -0.0230    1.3780 c3        1 TLA      0.021100
      5 O2          0.9670    0.1030    2.3610 oh        1 TLA     -0.639800
      6 C3          2.8110    1.2740    1.3100 c3        1 TLA      0.021100
      7 O3          1.9480    2.4000    1.4280 oh        1 TLA     -0.639800
      8 C4          3.9110    1.3430    2.3940 c         1 TLA      0.891600
      9 O4          3.7570    2.1900    3.3300 o         1 TLA     -0.870800
     10 O41         4.9310    0.6000    2.3090 o         1 TLA     -0.870800
     11 H2          2.6530   -0.8540    1.7370 h1        1 TLA      0.062700
     12 HA          0.2120    0.4990    1.9010 ho        1 TLA      0.406000
     13 H3          3.2770    1.3550    0.2920 h1        1 TLA      0.062700
     14 HB          1.8610    2.5630    2.3780 ho        1 TLA      0.406000
@<TRIPOS>BOND
     1    1    3 1   
     2    2    3 1   
     3    3    4 1   
     4    4    5 1   
     5    4    6 1   
     6    4   11 1   
     7    5   12 1   
     8    6    7 1   
     9    6    8 1   
    10    6   13 1   
    11    7   14 1   
    12    8    9 1   
    13    8   10 1   
@<TRIPOS>SUBSTRUCTURE
     1 TLA         1 TEMP              0 ****  ****    0 ROOT
