@<TRIPOS>MOLECULE
TLA
   14    13     1     0     0
SMALL
bcc


@<TRIPOS>ATOM
      1 O1          0.5390    0.2440   -2.7890 o         1 TLA     -0.870800
      2 O11        -1.5780   -0.1850   -2.2570 o         1 TLA     -0.870800
      3 C1         -0.4070    0.1740   -1.9410 c         1 TLA      0.891600
      4 C2         -0.0910    0.5940   -0.4880 c3        1 TLA      0.021100
      5 O2          1.1670    1.2580   -0.4410 oh        1 TLA     -0.639800
      6 C3         -0.0910   -0.5940    0.4880 c3        1 TLA      0.021100
      7 O3          1.1670   -1.2580    0.4410 oh        1 TLA     -0.639800
      8 C4         -0.4070   -0.1750    1.9410 c         1 TLA      0.891600
      9 O4          0.5390   -0.2440    2.7890 o         1 TLA     -0.870800
     10 O41        -1.5780    0.1850    2.2570 o         1 TLA     -0.870800
     11 H2         -0.8460    1.3490   -0.1390 h1        1 TLA      0.062700
     12 HA          1.7280    0.7960   -1.0800 ho        1 TLA      0.406000
     13 H3         -0.8460   -1.3490    0.1390 h1        1 TLA      0.062700
     14 HB          1.7280   -0.7960    1.0800 ho        1 TLA      0.406000
@<TRIPOS>BOND
     1    1    3 1   
     2    2    3 1   
     3    3    4 1   
     4    4    5 1   
     5    4    6 1   
     6    4   11 1   
     7    5   12 1   
     8    6    7 1   
     9    6    8 1   
    10    6   13 1   
    11    7   14 1   
    12    8    9 1   
    13    8   10 1   
@<TRIPOS>SUBSTRUCTURE
     1 TLA         1 TEMP              0 ****  ****    0 ROOT
