@<TRIPOS>MOLECULE
TLB
   36    37     1     0     0
SMALL
bcc


@<TRIPOS>ATOM
      1 O2P        -2.4720    5.6990    0.4420 o         1 TLB     -0.678000
      2 P          -1.0080    5.3820    0.6070 p4        1 TLB      1.719200
      3 O1P        -0.6810    5.2770    2.0720 os        1 TLB     -1.188000
      4 O3P        -0.1660    6.5020   -0.0290 o         1 TLB     -0.726800
      5 O5'        -0.6790    4.0000   -0.1080 os        1 TLB     -0.585200
      6 C5'        -1.3820    2.8510    0.2940 c3        1 TLB      0.177400
      7 C4'        -1.0610    1.5710   -0.8030 c3        1 TLB      0.040100
      8 O4'        -0.1100    1.1880   -0.6410 os        1 TLB     -0.428600
      9 C3'        -1.9260    0.4330   -0.5210 cy        1 TLB      0.308800
     10 O3'        -2.7370    0.5570    0.6390 oh        1 TLB     -0.893800
     11 C2'        -1.0970   -0.6850   -0.5040 cy        1 TLB     -0.064900
     12 O2'        -1.7280   -1.1800   -1.1580 os        1 TLB     -0.446600
     13 C1'        -0.2630   -0.4320   -0.8820 c3        1 TLB      0.299500
     14 N1          0.9580   -1.2270   -0.1240 n         1 TLB     -0.360000
     15 C2          1.8740   -0.4930    0.7660 c         1 TLB      0.801500
     16 O2          1.7910    0.7280    0.8590 o         1 TLB     -0.686500
     17 N3          2.9270   -1.2210    1.5070 n         1 TLB     -0.598500
     18 C4          3.2070   -2.5910    1.1920 c         1 TLB      0.722700
     19 O4          4.1410   -3.1700    1.7410 o         1 TLB     -0.685500
     20 C5          2.3300   -3.3250    0.2460 cc        1 TLB     -0.317400
     21 C5M         2.5260   -4.8130    0.0200 c3        1 TLB     -0.017900
     22 C6          1.2200   -2.6060   -0.4410 cd        1 TLB      0.090600
     23 C9'        -2.4230    0.0350   -1.3610 cy        1 TLB      0.032400
     24 H5'1       -1.1020    2.5970    1.1700 h1        1 TLB      0.033200
     25 H5'2       -2.3440    3.0420    0.3010 h1        1 TLB      0.033200
     26 H3         -1.1640    1.8670   -1.7250 h1        1 TLB      0.069700
     27 H3'        -3.5680    0.5690    0.4090 ho        1 TLB      0.464000
     28 H2'        -1.0320   -1.1100    0.3860 h1        1 TLB      0.058700
     29 H1'        -0.2530   -0.6310   -1.8310 h2        1 TLB      0.094700
     30 HB          3.3870   -0.8010    2.1870 hn        1 TLB      0.324500
     31 H6          2.1790   -5.0580   -0.8660 hc        1 TLB      0.042367
     32 H5M1        3.4790   -5.0270    0.0680 hc        1 TLB      0.042367
     33 H5M2        2.0480   -5.3100    0.7040 hc        1 TLB      0.042367
     34 HA          0.7260   -3.0500   -1.1850 h4        1 TLB      0.235000
     35 H9'1       -3.4220   -0.0550   -1.2220 h1        1 TLB      0.021700
     36 H9'2       -2.1740    0.4850   -2.2050 h1        1 TLB      0.021700
@<TRIPOS>BOND
     1    1    2 1   
     2    2    4 2   
     3    2    5 1   
     4    5    6 1   
     5    6    7 1   
     6    6   24 1   
     7    6   25 1   
     8    7    8 1   
     9    7    9 1   
    10    7   26 1   
    11    8   13 1   
    12    9   10 1   
    13    9   11 1   
    14    9   23 1   
    15   10   27 1   
    16   11   12 1   
    17   11   13 1   
    18   11   28 1   
    19   12   23 1   
    20   13   14 1   
    21   13   29 1   
    22   14   15 1   
    23   14   22 1   
    24   15   16 2   
    25   15   17 1   
    26   17   18 1   
    27   17   30 1   
    28   18   19 2   
    29   18   20 1   
    30   20   21 1   
    31   20   22 2   
    32   21   31 1   
    33   21   32 1   
    34   21   33 1   
    35   22   34 1   
    36   23   35 1   
    37   23   36 1   
@<TRIPOS>SUBSTRUCTURE
     1 TLB         1 TEMP              0 ****  ****    0 ROOT
