@<TRIPOS>MOLECULE
TLB
   36    38     1     0     0
SMALL
bcc


@<TRIPOS>ATOM
      1 O2P         1.1000    2.7640    1.2480 o         1 TLB     -0.923833
      2 P          -0.4030    2.9410    1.3250 p5        1 TLB      1.335900
      3 O1P        -0.9360    4.3190    1.5450 o         1 TLB     -0.923833
      4 O3P        -1.1400    2.0290    0.3780 o         1 TLB     -0.923833
      5 O5'        -0.6830    2.1420    2.8470 os        1 TLB     -0.557200
      6 C5'        -0.9150    0.7970    2.7960 c3        1 TLB      0.216400
      7 C4'         0.3850    0.0040    3.0680 c3        1 TLB      0.064100
      8 O4'         0.0560   -1.2800    3.6610 os        1 TLB     -0.440600
      9 C3'         1.3040   -0.2520    1.8730 cy        1 TLB      0.164800
     10 O3'         2.4830    0.4760    1.9400 oh        1 TLB     -0.662800
     11 C2'         1.4960   -1.8160    1.8120 cy        1 TLB      0.055100
     12 O2'         0.9410   -1.8650    0.4800 os        1 TLB     -0.459600
     13 C1'         0.5880   -2.3780    2.9280 c3        1 TLB      0.291500
     14 N1         -0.5230   -3.2260    2.4620 n         1 TLB     -0.350000
     15 C2         -0.5460   -4.5930    2.8090 c         1 TLB      0.805500
     16 O2          0.3690   -5.1460    3.4670 o         1 TLB     -0.688500
     17 N3         -1.6420   -5.3680    2.3890 n         1 TLB     -0.594500
     18 C4         -2.7190   -4.8430    1.6500 c         1 TLB      0.724700
     19 O4         -3.6390   -5.6260    1.3350 o         1 TLB     -0.677500
     20 C5         -2.6450   -3.4190    1.3260 cc        1 TLB     -0.316400
     21 C5M        -3.7500   -2.8270    0.5480 c3        1 TLB     -0.015900
     22 C6         -1.5680   -2.6810    1.7410 cd        1 TLB      0.110600
     23 C9'         0.7360   -0.4070    0.4280 cy        1 TLB      0.097400
     24 H5'1       -1.6350    0.5110    3.6200 h1        1 TLB      0.007200
     25 H5'2       -1.3600    0.4940    1.8060 h1        1 TLB      0.007200
     26 H3          0.9700    0.5450    3.8650 h1        1 TLB      0.080700
     27 H3'         2.2240    1.4250    1.7410 ho        1 TLB      0.526000
     28 H2'         2.5160   -2.2420    1.8310 h1        1 TLB      0.075700
     29 H1'         1.1840   -2.9970    3.6630 h2        1 TLB      0.089700
     30 HB         -1.6350   -6.3310    2.6380 hn        1 TLB      0.328500
     31 H6         -3.8460   -3.3450   -0.4400 hc        1 TLB      0.042367
     32 H5M1       -3.5750   -1.7370    0.3680 hc        1 TLB      0.042367
     33 H5M2       -4.7170   -2.9520    1.0960 hc        1 TLB      0.042367
     34 HA         -1.4620   -1.5920    1.5200 h4        1 TLB      0.220000
     35 H9'1       -0.3310   -0.1500    0.2470 h1        1 TLB      0.102700
     36 H9'2        1.4000    0.0390   -0.3430 h1        1 TLB      0.102700
@<TRIPOS>BOND
     1    1    2 1   
     2    2    3 1   
     3    2    4 1   
     4    2    5 1   
     5    5    6 1   
     6    6    7 1   
     7    6   24 1   
     8    6   25 1   
     9    7    8 1   
    10    7    9 1   
    11    7   26 1   
    12    8   13 1   
    13    9   10 1   
    14    9   11 1   
    15    9   23 1   
    16   10   27 1   
    17   11   12 1   
    18   11   13 1   
    19   11   28 1   
    20   12   23 1   
    21   13   14 1   
    22   13   29 1   
    23   14   15 1   
    24   14   22 1   
    25   15   16 2   
    26   15   17 1   
    27   17   18 1   
    28   17   30 1   
    29   18   19 2   
    30   18   20 1   
    31   20   21 1   
    32   20   22 2   
    33   21   31 1   
    34   21   32 1   
    35   21   33 1   
    36   22   34 1   
    37   23   35 1   
    38   23   36 1   
@<TRIPOS>SUBSTRUCTURE
     1 TLB         1 TEMP              0 ****  ****    0 ROOT
