@<TRIPOS>MOLECULE
TLC
   39    41     1     0     0
SMALL
bcc


@<TRIPOS>ATOM
      1 P           0.3960    0.6610   -3.9540 p5        1 TLC      1.331900
      2 OP1         1.3230    1.6160   -3.2560 o         1 TLC     -0.928167
      3 OP2         0.6940    0.2720   -5.3660 o         1 TLC     -0.928167
      4 OP3        -1.0600    0.8600   -3.5780 o         1 TLC     -0.928167
      5 O5'         0.6860   -0.8050   -3.0520 os        1 TLC     -0.553200
      6 C5'         0.7230   -0.6330   -1.6970 c3        1 TLC      0.222400
      7 C4'        -0.5990   -1.1250   -1.0600 c3        1 TLC      0.063100
      8 O4'        -0.3030   -1.7710    0.2100 os        1 TLC     -0.438600
      9 C1'        -1.1300   -1.2940    1.2570 c3        1 TLC      0.287500
     10 N1         -0.2880   -0.5880    2.2420 n         1 TLC     -0.352000
     11 C6          0.7390    0.2420    1.8390 cc        1 TLC      0.092600
     12 C2         -0.5350   -0.7830    3.6180 c         1 TLC      0.809500
     13 O2         -1.4140   -1.5680    4.0490 o         1 TLC     -0.681500
     14 N3          0.2590   -0.0790    4.5430 n         1 TLC     -0.594500
     15 C4          1.2970    0.7910    4.1620 c         1 TLC      0.723700
     16 O4          1.9310    1.3690    5.0690 o         1 TLC     -0.676500
     17 C5          1.5320    0.9240    2.7230 cd        1 TLC     -0.313400
     18 C5M         2.6310    1.8020    2.2790 c3        1 TLC     -0.018900
     19 C2'        -2.2700   -0.4540    0.6080 c3        1 TLC      0.089100
     20 O2L        -2.5620    0.7550    1.2920 os        1 TLC     -0.433600
     21 C3L        -1.4220    1.3800   -0.7400 c3        1 TLC     -0.140400
     22 C2L        -2.1520    1.8830    0.4950 c3        1 TLC      0.124400
     23 C3'        -1.7430   -0.1190   -0.8220 c3        1 TLC      0.176800
     24 O3'        -2.7770   -0.3610   -1.7480 oh        1 TLC     -0.663800
     25 H5'         0.9350    0.4410   -1.4340 h1        1 TLC      0.006200
     26 H5''        1.5400   -1.2790   -1.2550 h1        1 TLC      0.006200
     27 H4'        -1.0000   -1.9540   -1.7140 h1        1 TLC      0.082700
     28 H1'        -1.5460   -2.2010    1.7880 h2        1 TLC      0.086700
     29 H6          0.8830    0.3100    0.7340 h4        1 TLC      0.219000
     30 HN3         0.0490   -0.2070    5.5060 hn        1 TLC      0.329500
     31 H71         3.6180    1.3620    2.5680 hc        1 TLC      0.043367
     32 H72         2.6110    1.9400    1.1690 hc        1 TLC      0.043367
     33 H73         2.5440    2.8040    2.7710 hc        1 TLC      0.043367
     34 H2'        -3.2120   -1.0580    0.5950 h1        1 TLC      0.080700
     35 H3L1       -0.3260    1.5730   -0.6500 hc        1 TLC      0.113200
     36 H3L2       -1.7620    1.8810   -1.6890 hc        1 TLC      0.113200
     37 H2L1       -1.5060    2.5150    1.1550 h1        1 TLC      0.025700
     38 H2L2       -3.0870    2.4430    0.2380 h1        1 TLC      0.025700
     39 HO3'       -2.4320   -0.0550   -2.6250 ho        1 TLC      0.511000
@<TRIPOS>BOND
     1    1    2 1   
     2    1    3 1   
     3    1    4 1   
     4    1    5 1   
     5    5    6 1   
     6    6    7 1   
     7    6   25 1   
     8    6   26 1   
     9    7    8 1   
    10    7   23 1   
    11    7   27 1   
    12    8    9 1   
    13    9   10 1   
    14    9   19 1   
    15    9   28 1   
    16   10   11 1   
    17   10   12 1   
    18   11   17 2   
    19   11   29 1   
    20   12   13 2   
    21   12   14 1   
    22   14   15 1   
    23   14   30 1   
    24   15   16 2   
    25   15   17 1   
    26   17   18 1   
    27   18   31 1   
    28   18   32 1   
    29   18   33 1   
    30   19   20 1   
    31   19   23 1   
    32   19   34 1   
    33   20   22 1   
    34   21   22 1   
    35   21   23 1   
    36   21   35 1   
    37   21   36 1   
    38   22   37 1   
    39   22   38 1   
    40   23   24 1   
    41   24   39 1   
@<TRIPOS>SUBSTRUCTURE
     1 TLC         1 TEMP              0 ****  ****    0 ROOT
