@<TRIPOS>MOLECULE
TLD
   17    17     1     0     0
SMALL
bcc


@<TRIPOS>ATOM
      1 C1          0.4130   -1.5500    0.3290 ca        1 TLD     -0.120000
      2 C2         -0.5340   -0.5190    0.3190 ca        1 TLD     -0.005100
      3 C3         -0.1060    0.8070    0.1610 ca        1 TLD      0.033900
      4 C4          1.2620    1.0800    0.0150 ca        1 TLD     -0.108000
      5 C5          2.2020    0.0510    0.0260 ca        1 TLD     -0.064300
      6 C6          1.7650   -1.2730    0.1840 ca        1 TLD     -0.124000
      7 C13         3.6470    0.3450   -0.1150 c3        1 TLD     -0.054800
      8 S15        -2.2010   -0.7940    0.4940 sh        1 TLD     -0.279700
      9 S17        -1.1300    2.1580    0.1300 sh        1 TLD     -0.248700
     10 H1          0.0830   -2.5930    0.4520 ha        1 TLD      0.130000
     11 H4          1.5880    2.1250   -0.1100 ha        1 TLD      0.147000
     12 H6          2.4990   -2.0920    0.1920 ha        1 TLD      0.136000
     13 H131        4.1440    0.2990    0.8870 hc        1 TLD      0.047033
     14 H132        4.1380   -0.4040   -0.7830 hc        1 TLD      0.047033
     15 H133        3.8130    1.3640   -0.5420 hc        1 TLD      0.047033
     16 HS15       -2.2110   -2.1120    0.6030 hs        1 TLD      0.201800
     17 HS17       -2.3180    1.5790    0.2670 hs        1 TLD      0.215800
@<TRIPOS>BOND
     1    1    2 ar  
     2    1    6 ar  
     3    1   10 1   
     4    2    3 ar  
     5    2    8 1   
     6    3    4 ar  
     7    3    9 1   
     8    4    5 ar  
     9    4   11 1   
    10    5    6 ar  
    11    5    7 1   
    12    6   12 1   
    13    7   13 1   
    14    7   14 1   
    15    7   15 1   
    16    8   16 1   
    17    9   17 1   
@<TRIPOS>SUBSTRUCTURE
     1 TLD         1 TEMP              0 ****  ****    0 ROOT
