@<TRIPOS>MOLECULE
TLD
   17    17     1     0     0
SMALL
bcc


@<TRIPOS>ATOM
      1 C1         -0.1430    0.1370   -0.0380 ca        1 TLD     -0.102000
      2 C2          1.2570    0.1170   -0.1390 ca        1 TLD      0.023900
      3 C3          2.0250    0.0100    1.0280 ca        1 TLD      0.004900
      4 C4          1.3910   -0.0750    2.2730 ca        1 TLD     -0.126000
      5 C5          0.0000   -0.0530    2.3700 ca        1 TLD     -0.068300
      6 C6         -0.7650    0.0530    1.1990 ca        1 TLD     -0.121000
      7 C13        -0.6680   -0.1310    3.6890 c3        1 TLD     -0.054800
      8 S15         1.8850    0.2270   -1.7090 sh        1 TLD     -0.247700
      9 S17         3.7160   -0.0110    0.8560 sh        1 TLD     -0.279700
     10 H1         -0.7450    0.2200   -0.9570 ha        1 TLD      0.146000
     11 H4          1.9960   -0.1600    3.1890 ha        1 TLD      0.131000
     12 H6         -1.8630    0.0690    1.2650 ha        1 TLD      0.137000
     13 H131       -1.5490   -0.8180    3.6440 hc        1 TLD      0.046700
     14 H132        0.0300   -0.5020    4.4780 hc        1 TLD      0.046700
     15 H133       -1.0330    0.8840    3.9920 hc        1 TLD      0.046700
     16 HS15        3.1900    0.1750   -1.4650 hs        1 TLD      0.214800
     17 HS17        4.0810   -0.1210    2.1230 hs        1 TLD      0.201800
@<TRIPOS>BOND
     1    1    2 ar  
     2    1    6 ar  
     3    1   10 1   
     4    2    3 ar  
     5    2    8 1   
     6    3    4 ar  
     7    3    9 1   
     8    4    5 ar  
     9    4   11 1   
    10    5    6 ar  
    11    5    7 1   
    12    6   12 1   
    13    7   13 1   
    14    7   14 1   
    15    7   15 1   
    16    8   16 1   
    17    9   17 1   
@<TRIPOS>SUBSTRUCTURE
     1 TLD         1 TEMP              0 ****  ****    0 ROOT
