@<TRIPOS>MOLECULE
TLD
   17    17     1     0     0
SMALL
bcc


@<TRIPOS>ATOM
      1 C1         -0.1340    0.1030   -0.0460 ca        1 TLD     -0.102000
      2 C2          1.2660    0.1020   -0.1370 ca        1 TLD      0.023900
      3 C3          2.0280    0.0210    1.0370 ca        1 TLD      0.004900
      4 C4          1.3860   -0.0560    2.2780 ca        1 TLD     -0.126000
      5 C5         -0.0050   -0.0530    2.3660 ca        1 TLD     -0.068300
      6 C6         -0.7640    0.0270    1.1880 ca        1 TLD     -0.121000
      7 C13        -0.6810   -0.1220    3.6810 c3        1 TLD     -0.054800
      8 S15         1.9040    0.2000   -1.7040 sh        1 TLD     -0.247700
      9 S17         3.7200    0.0210    0.8770 sh        1 TLD     -0.279700
     10 H1         -0.7310    0.1660   -0.9700 ha        1 TLD      0.146000
     11 H4          1.9860   -0.1200    3.1990 ha        1 TLD      0.131000
     12 H6         -1.8620    0.0280    1.2460 ha        1 TLD      0.137000
     13 H131       -1.5670   -0.8030    3.6340 hc        1 TLD      0.046367
     14 H132        0.0110   -0.4960    4.4750 hc        1 TLD      0.046367
     15 H133       -1.0390    0.8960    3.9790 hc        1 TLD      0.046367
     16 HS15        3.2080    0.1720   -1.4500 hs        1 TLD      0.214800
     17 HS17        4.0780   -0.0660    2.1470 hs        1 TLD      0.201800
@<TRIPOS>BOND
     1    1    2 ar  
     2    1    6 ar  
     3    1   10 1   
     4    2    3 ar  
     5    2    8 1   
     6    3    4 ar  
     7    3    9 1   
     8    4    5 ar  
     9    4   11 1   
    10    5    6 ar  
    11    5    7 1   
    12    6   12 1   
    13    7   13 1   
    14    7   14 1   
    15    7   15 1   
    16    8   16 1   
    17    9   17 1   
@<TRIPOS>SUBSTRUCTURE
     1 TLD         1 TEMP              0 ****  ****    0 ROOT
