@<TRIPOS>MOLECULE
TLE
   31    31     1     0     0
SMALL
bcc


@<TRIPOS>ATOM
      1 C          -4.9700   -0.3890    0.9080 c2        1 TLE     -0.201000
      2 O           2.4950    2.4010    0.4700 o         1 TLE     -0.498100
      3 S           0.1450    1.5760   -0.4580 ss        1 TLE     -0.275700
      4 C1         -3.6630   -0.6010    1.0680 ce        1 TLE     -0.138000
      5 O1          1.0830   -2.1760    0.1330 oh        1 TLE     -0.469100
      6 C2         -2.6190   -0.0830    0.1860 ce        1 TLE     -0.043200
      7 C3         -3.0230    0.9670   -0.7810 c3        1 TLE     -0.070900
      8 C4         -1.3700   -0.5760    0.2980 c2        1 TLE     -0.166200
      9 C5         -0.1880   -0.2210   -0.5260 c3        1 TLE      0.132500
     10 C6         -0.3570   -0.6450   -1.9720 c3        1 TLE     -0.080100
     11 C7          1.7570    1.4540    0.2080 c         1 TLE      0.615900
     12 C8          2.0730    0.0310    0.4090 ce        1 TLE     -0.317400
     13 C9          3.3790   -0.3630    0.9810 c3        1 TLE     -0.023200
     14 C10         4.2930   -0.9980   -0.0410 c3        1 TLE     -0.095100
     15 C11         1.0770   -0.8180    0.0450 c2        1 TLE      0.133900
     16 H          -5.3870    0.2070    0.0860 ha        1 TLE      0.115500
     17 HA         -5.7120   -0.8080    1.6000 ha        1 TLE      0.115500
     18 H1         -3.3010   -1.2150    1.9130 ha        1 TLE      0.124000
     19 HO1         1.9380   -2.4510    0.5080 ho        1 TLE      0.436000
     20 H3         -3.6620    1.7330   -0.2750 hc        1 TLE      0.052367
     21 H3A        -2.1390    1.4940   -1.2210 hc        1 TLE      0.052367
     22 H3B        -3.6140    0.5100   -1.6150 hc        1 TLE      0.052367
     23 H4         -1.1620   -1.3540    1.0570 ha        1 TLE      0.141000
     24 H6          0.5070   -0.2980   -2.5870 hc        1 TLE      0.058367
     25 H6A        -0.4150   -1.7610   -2.0260 hc        1 TLE      0.058367
     26 H6B        -1.2990   -0.2150   -2.3910 hc        1 TLE      0.058367
     27 H9          3.8790    0.5500    1.4080 hc        1 TLE      0.059200
     28 H9A         3.2120   -1.0790    1.8320 hc        1 TLE      0.059200
     29 H10         3.8210   -1.9030   -0.4940 hc        1 TLE      0.037700
     30 H10A        4.5250   -0.2780   -0.8620 hc        1 TLE      0.037700
     31 H10B        5.2520   -1.3030    0.4440 hc        1 TLE      0.037700
@<TRIPOS>BOND
     1    1    4 2   
     2    1   16 1   
     3    1   17 1   
     4    2   11 2   
     5    3    9 1   
     6    3   11 1   
     7    4    6 1   
     8    4   18 1   
     9    5   15 1   
    10    5   19 1   
    11    6    7 1   
    12    6    8 2   
    13    7   20 1   
    14    7   21 1   
    15    7   22 1   
    16    8    9 1   
    17    8   23 1   
    18    9   10 1   
    19    9   15 1   
    20   10   24 1   
    21   10   25 1   
    22   10   26 1   
    23   11   12 1   
    24   12   13 1   
    25   12   15 2   
    26   13   14 1   
    27   13   27 1   
    28   13   28 1   
    29   14   29 1   
    30   14   30 1   
    31   14   31 1   
@<TRIPOS>SUBSTRUCTURE
     1 TLE         1 TEMP              0 ****  ****    0 ROOT
