@<TRIPOS>MOLECULE
TLE
   31    31     1     0     0
SMALL
bcc


@<TRIPOS>ATOM
      1 C           0.0500    0.6110   -0.1250 c2        1 TLE     -0.201000
      2 O           4.9050   -3.7970    4.4240 o         1 TLE     -0.498100
      3 S           3.3440   -1.7320    3.8170 ss        1 TLE     -0.275700
      4 C1          1.2720    0.1270    0.1000 ce        1 TLE     -0.138000
      5 O1          6.1290   -0.1150    1.5950 oh        1 TLE     -0.469100
      6 C2          1.8800   -0.0240    1.4200 ce        1 TLE     -0.043200
      7 C3          0.9780    0.1130    2.5900 c3        1 TLE     -0.070900
      8 C4          3.2010   -0.2760    1.5020 c2        1 TLE     -0.166200
      9 C5          4.0130   -0.4170    2.7360 c3        1 TLE      0.132500
     10 C6          4.0880    0.8820    3.5150 c3        1 TLE     -0.080100
     11 C7          4.7790   -2.7320    3.8240 c         1 TLE      0.615900
     12 C8          5.8010   -2.0870    2.9840 ce        1 TLE     -0.317400
     13 C9          7.1200   -2.7310    2.7990 c3        1 TLE     -0.023200
     14 C10         8.2280   -2.0070    3.5270 c3        1 TLE     -0.095100
     15 C11         5.4040   -0.9150    2.4230 c2        1 TLE      0.133900
     16 H          -0.6240    0.9430    0.6760 ha        1 TLE      0.115500
     17 HA         -0.3550    0.7070   -1.1410 ha        1 TLE      0.115500
     18 H1          1.9080   -0.1880   -0.7480 ha        1 TLE      0.124000
     19 HO1         7.0000   -0.5260    1.4630 ho        1 TLE      0.436000
     20 H3          0.0320   -0.4600    2.4180 hc        1 TLE      0.052367
     21 H3A         1.4480   -0.2750    3.5290 hc        1 TLE      0.052367
     22 H3B         0.7140    1.1900    2.7440 hc        1 TLE      0.052367
     23 H4          3.7930   -0.3700    0.5720 ha        1 TLE      0.141000
     24 H6          4.6300    1.6480    2.9070 hc        1 TLE      0.058367
     25 H6A         4.6350    0.7330    4.4770 hc        1 TLE      0.058367
     26 H6B         3.0600    1.2590    3.7360 hc        1 TLE      0.058367
     27 H9          7.3610   -2.7780    1.7010 hc        1 TLE      0.059200
     28 H9A         7.0620   -3.7910    3.1720 hc        1 TLE      0.059200
     29 H10         8.0400   -2.0080    4.6280 hc        1 TLE      0.037700
     30 H10A        9.2050   -2.5130    3.3350 hc        1 TLE      0.037700
     31 H10B        8.3050   -0.9460    3.1870 hc        1 TLE      0.037700
@<TRIPOS>BOND
     1    1    4 2   
     2    1   16 1   
     3    1   17 1   
     4    2   11 2   
     5    3    9 1   
     6    3   11 1   
     7    4    6 1   
     8    4   18 1   
     9    5   15 1   
    10    5   19 1   
    11    6    7 1   
    12    6    8 2   
    13    7   20 1   
    14    7   21 1   
    15    7   22 1   
    16    8    9 1   
    17    8   23 1   
    18    9   10 1   
    19    9   15 1   
    20   10   24 1   
    21   10   25 1   
    22   10   26 1   
    23   11   12 1   
    24   12   13 1   
    25   12   15 2   
    26   13   14 1   
    27   13   27 1   
    28   13   28 1   
    29   14   29 1   
    30   14   30 1   
    31   14   31 1   
@<TRIPOS>SUBSTRUCTURE
     1 TLE         1 TEMP              0 ****  ****    0 ROOT
