@<TRIPOS>MOLECULE
TLE
   31    31     1     0     0
SMALL
bcc


@<TRIPOS>ATOM
      1 C           0.0550    0.5460   -0.1680 c2        1 TLE     -0.201000
      2 O           4.9080   -3.7520    4.4890 o         1 TLE     -0.498100
      3 S           3.3420   -1.7050    3.8340 ss        1 TLE     -0.275700
      4 C1          1.2780    0.0700    0.0720 ce        1 TLE     -0.138000
      5 O1          6.1300   -0.1240    1.5900 oh        1 TLE     -0.469100
      6 C2          1.8810   -0.0520    1.3980 ce        1 TLE     -0.043200
      7 C3          0.9740    0.1060    2.5610 c3        1 TLE     -0.070900
      8 C4          3.2030   -0.2970    1.4900 c2        1 TLE     -0.166200
      9 C5          4.0110   -0.4100    2.7290 c3        1 TLE      0.132500
     10 C6          4.0780    0.9040    3.4820 c3        1 TLE     -0.080100
     11 C7          4.7800   -2.7000    3.8670 c         1 TLE      0.615900
     12 C8          5.8030   -2.0680    3.0180 ce        1 TLE     -0.317400
     13 C9          7.1250   -2.7110    2.8510 c3        1 TLE     -0.023200
     14 C10         8.2280   -1.9680    3.5690 c3        1 TLE     -0.095100
     15 C11         5.4040   -0.9100    2.4320 c2        1 TLE      0.133900
     16 H          -0.6220    0.8940    0.6240 ha        1 TLE      0.115500
     17 HA         -0.3460    0.6200   -1.1870 ha        1 TLE      0.115500
     18 H1          1.9170   -0.2610   -0.7670 ha        1 TLE      0.124000
     19 HO1         7.0030   -0.5350    1.4700 ho        1 TLE      0.436000
     20 H3          0.7070    1.1850    2.6920 hc        1 TLE      0.052367
     21 H3A         1.4420   -0.2620    3.5090 hc        1 TLE      0.052367
     22 H3B         0.0310   -0.4730    2.3960 hc        1 TLE      0.052367
     23 H4          3.7980   -0.4090    0.5640 ha        1 TLE      0.141000
     24 H6          4.6220    0.7760    4.4490 hc        1 TLE      0.058367
     25 H6A         4.6200    1.6600    2.8600 hc        1 TLE      0.058367
     26 H6B         3.0480    1.2820    3.6920 hc        1 TLE      0.058367
     27 H9          7.0700   -3.7640    3.2460 hc        1 TLE      0.059200
     28 H9A         7.3700   -2.7800    1.7550 hc        1 TLE      0.059200
     29 H10         9.2070   -2.4750    3.3900 hc        1 TLE      0.037700
     30 H10A        8.3020   -0.9140    3.2080 hc        1 TLE      0.037700
     31 H10B        8.0360   -1.9480    4.6690 hc        1 TLE      0.037700
@<TRIPOS>BOND
     1    1    4 2   
     2    1   16 1   
     3    1   17 1   
     4    2   11 2   
     5    3    9 1   
     6    3   11 1   
     7    4    6 1   
     8    4   18 1   
     9    5   15 1   
    10    5   19 1   
    11    6    7 1   
    12    6    8 2   
    13    7   20 1   
    14    7   21 1   
    15    7   22 1   
    16    8    9 1   
    17    8   23 1   
    18    9   10 1   
    19    9   15 1   
    20   10   24 1   
    21   10   25 1   
    22   10   26 1   
    23   11   12 1   
    24   12   13 1   
    25   12   15 2   
    26   13   14 1   
    27   13   27 1   
    28   13   28 1   
    29   14   29 1   
    30   14   30 1   
    31   14   31 1   
@<TRIPOS>SUBSTRUCTURE
     1 TLE         1 TEMP              0 ****  ****    0 ROOT
