@<TRIPOS>MOLECULE
TLF
   29    30     1     0     0
SMALL
bcc


@<TRIPOS>ATOM
      1 C4         -0.1440   -1.0650    0.2440 ca        1 TLF     -0.099000
      2 C5          1.2080   -0.7900    0.0970 ca        1 TLF     -0.202000
      3 C6          1.9590   -0.2300    1.1570 ca        1 TLF      0.195600
      4 C8          4.0300   -0.0310   -0.1490 ca        1 TLF      0.127600
      5 C9          4.1210   -1.1900   -0.9520 ca        1 TLF     -0.165000
      6 C10         4.8600   -1.1790   -2.1300 ca        1 TLF     -0.145000
      7 C11         5.5250   -0.0220   -2.5300 ca        1 TLF     -0.169000
      8 C12         5.4490    1.1230   -1.7420 ca        1 TLF     -0.094000
      9 C13         4.7160    1.1420   -0.5510 ca        1 TLF     -0.148600
     10 C14         4.7130    2.4450    0.2410 c         1 TLF      0.912200
     11 O16         4.9720    3.5060   -0.3880 o         1 TLF     -0.828300
     12 O15         4.4760    2.4170    1.4870 o         1 TLF     -0.828300
     13 N7          3.3470   -0.0860    1.0940 nu        1 TLF     -0.610000
     14 C1          1.2750    0.1200    2.3680 ca        1 TLF     -0.120300
     15 C17         2.0130    0.8150    3.4490 c3        1 TLF     -0.068800
     16 C2         -0.0810   -0.1930    2.4800 ca        1 TLF      0.054400
     17 Cl         -0.9520    0.1460    3.9190 cl        1 TLF     -0.141400
     18 C3         -0.8000   -0.7860    1.4380 ca        1 TLF     -0.196000
     19 H1         -0.7020   -1.5060   -0.5950 ha        1 TLF      0.117000
     20 H2          1.6950   -0.9990   -0.8680 ha        1 TLF      0.143000
     21 H3          3.6170   -2.1160   -0.6390 ha        1 TLF      0.122000
     22 H4          4.9200   -2.0900   -2.7410 ha        1 TLF      0.106000
     23 H5          6.1040   -0.0130   -3.4630 ha        1 TLF      0.109000
     24 H6          5.9560    2.0550   -2.0450 ha        1 TLF      0.155000
     25 H8          3.7200    0.6020    1.7420 hn        1 TLF      0.471800
     26 H9          1.3320    1.1670    4.2610 hc        1 TLF      0.058367
     27 H10         2.7700    0.1280    3.9050 hc        1 TLF      0.058367
     28 H11         2.5540    1.7140    3.0420 hc        1 TLF      0.058367
     29 H12        -1.8670   -1.0180    1.5560 ha        1 TLF      0.128000
@<TRIPOS>BOND
     1    1    2 ar  
     2    1   18 ar  
     3    1   19 1   
     4    2    3 ar  
     5    2   20 1   
     6    3   13 1   
     7    3   14 ar  
     8    4    5 ar  
     9    4    9 ar  
    10    4   13 1   
    11    5    6 ar  
    12    5   21 1   
    13    6    7 ar  
    14    6   22 1   
    15    7    8 ar  
    16    7   23 1   
    17    8    9 ar  
    18    8   24 1   
    19    9   10 1   
    20   10   11 1   
    21   10   12 1   
    22   13   25 1   
    23   14   15 1   
    24   14   16 ar  
    25   15   26 1   
    26   15   27 1   
    27   15   28 1   
    28   16   17 1   
    29   16   18 ar  
    30   18   29 1   
@<TRIPOS>SUBSTRUCTURE
     1 TLF         1 TEMP              0 ****  ****    0 ROOT
