@<TRIPOS>MOLECULE
TLF
   29    30     1     0     0
SMALL
bcc


@<TRIPOS>ATOM
      1 C4          1.7180   -0.6080    2.3740 ca        1 TLF     -0.099000
      2 C5          0.5890   -0.6930    1.5710 ca        1 TLF     -0.202000
      3 C6          0.6830   -0.5660    0.1650 ca        1 TLF      0.195600
      4 C8         -1.7400   -0.7040   -0.2100 ca        1 TLF      0.127600
      5 C9         -2.2400   -1.6740    0.6880 ca        1 TLF     -0.165000
      6 C10        -3.5700   -1.6470    1.0900 ca        1 TLF     -0.145000
      7 C11        -4.4300   -0.6630    0.6070 ca        1 TLF     -0.169000
      8 C12        -3.9500    0.2910   -0.2850 ca        1 TLF     -0.094000
      9 C13        -2.6180    0.2890   -0.7100 ca        1 TLF     -0.148600
     10 C14        -2.2040    1.3720   -1.7010 c         1 TLF      0.912200
     11 O16        -2.9050    2.4200   -1.7410 o         1 TLF     -0.828300
     12 O15        -1.2000    1.1790   -2.4520 o         1 TLF     -0.828300
     13 N7         -0.4040   -0.8000   -0.6790 nh        1 TLF     -0.610000
     14 C1          1.9640   -0.2730   -0.4100 ca        1 TLF     -0.120300
     15 C17         2.0700   -0.0190   -1.8670 c3        1 TLF     -0.068800
     16 C2          3.0750   -0.2160    0.4340 ca        1 TLF      0.054400
     17 CL          4.6460    0.0760   -0.1900 cl        1 TLF     -0.141400
     18 C3          2.9720   -0.3860    1.8180 ca        1 TLF     -0.196000
     19 H1          1.6170   -0.7150    3.4640 ha        1 TLF      0.117000
     20 H2         -0.3940   -0.8450    2.0420 ha        1 TLF      0.143000
     21 H3         -1.5770   -2.4680    1.0640 ha        1 TLF      0.122000
     22 H4         -3.9410   -2.4100    1.7890 ha        1 TLF      0.106000
     23 H5         -5.4800   -0.6400    0.9300 ha        1 TLF      0.109000
     24 H6         -4.6090    1.0880   -0.6710 ha        1 TLF      0.155000
     25 H8         -0.3130   -0.3730   -1.5970 hn        1 TLF      0.471800
     26 H9          1.3190    0.7550   -2.1870 hc        1 TLF      0.058367
     27 H10         3.0840    0.3500   -2.1550 hc        1 TLF      0.058367
     28 H11         1.8670   -0.9600   -2.4390 hc        1 TLF      0.058367
     29 H12         3.8650   -0.3330    2.4550 ha        1 TLF      0.128000
@<TRIPOS>BOND
     1    1    2 ar  
     2    1   18 ar  
     3    1   19 1   
     4    2    3 ar  
     5    2   20 1   
     6    3   13 1   
     7    3   14 ar  
     8    4    5 ar  
     9    4    9 ar  
    10    4   13 1   
    11    5    6 ar  
    12    5   21 1   
    13    6    7 ar  
    14    6   22 1   
    15    7    8 ar  
    16    7   23 1   
    17    8    9 ar  
    18    8   24 1   
    19    9   10 1   
    20   10   11 1   
    21   10   12 1   
    22   13   25 1   
    23   14   15 1   
    24   14   16 ar  
    25   15   26 1   
    26   15   27 1   
    27   15   28 1   
    28   16   17 1   
    29   16   18 ar  
    30   18   29 1   
@<TRIPOS>SUBSTRUCTURE
     1 TLF         1 TEMP              0 ****  ****    0 ROOT
