@<TRIPOS>MOLECULE
TLF
   30    31     1     0     0
SMALL
bcc


@<TRIPOS>ATOM
      1 C4         -0.1270    0.2850    0.0710 ca        1 TLF     -0.092000
      2 C5          1.2630    0.2880    0.0530 ca        1 TLF     -0.159000
      3 C6          1.9970    0.0430    1.2300 ca        1 TLF      0.124600
      4 C8          4.1330   -0.0760    0.0330 ca        1 TLF      0.131600
      5 C9          4.7720   -1.3090   -0.2280 ca        1 TLF     -0.167000
      6 C10         5.5400   -1.4830   -1.3740 ca        1 TLF     -0.091000
      7 C11         5.6800   -0.4440   -2.2940 ca        1 TLF     -0.141000
      8 C12         5.0550    0.7750   -2.0550 ca        1 TLF     -0.071000
      9 C13         4.2990    0.9770   -0.8940 ca        1 TLF     -0.169600
     10 C14         3.6840    2.3110   -0.7120 c         1 TLF      0.650700
     11 O16         3.0000    2.9100   -1.5430 o         1 TLF     -0.495000
     12 O15         3.9080    3.0210    0.4290 oh        1 TLF     -0.566100
     13 N7          3.4140    0.1260    1.2440 nh        1 TLF     -0.615000
     14 C1          1.3030   -0.2190    2.4460 ca        1 TLF     -0.107300
     15 C17         2.0600   -0.4720    3.6960 c3        1 TLF     -0.060800
     16 C2         -0.0980   -0.2200    2.4250 ca        1 TLF      0.044400
     17 CL         -1.0000   -0.5290    3.8400 cl        1 TLF     -0.096400
     18 C3         -0.8160    0.0290    1.2520 ca        1 TLF     -0.146000
     19 H1         -0.6830    0.4890   -0.8570 ha        1 TLF      0.144000
     20 H2          1.7850    0.5050   -0.8940 ha        1 TLF      0.152000
     21 H3          4.6630   -2.1460    0.4790 ha        1 TLF      0.141000
     22 H4          6.0330   -2.4510   -1.5580 ha        1 TLF      0.141000
     23 H5          6.2780   -0.5880   -3.2060 ha        1 TLF      0.145000
     24 H6          5.1450    1.6000   -2.7820 ha        1 TLF      0.157000
     25 H8          4.3960    2.4860    1.0700 ho        1 TLF      0.439000
     26 H9          2.7240    0.3970    3.9350 hc        1 TLF      0.050700
     27 H10         1.3810   -0.6290    4.5710 hc        1 TLF      0.050700
     28 H11         2.6930   -1.3900    3.5920 hc        1 TLF      0.050700
     29 H12        -1.9170    0.0270    1.2630 ha        1 TLF      0.150000
     30 H72         3.8110   -0.4230    1.9870 hn        1 TLF      0.403800
@<TRIPOS>BOND
     1    1    2 ar  
     2    1   18 ar  
     3    1   19 1   
     4    2    3 ar  
     5    2   20 1   
     6    3   13 1   
     7    3   14 ar  
     8    4    5 ar  
     9    4    9 ar  
    10    4   13 1   
    11    5    6 ar  
    12    5   21 1   
    13    6    7 ar  
    14    6   22 1   
    15    7    8 ar  
    16    7   23 1   
    17    8    9 ar  
    18    8   24 1   
    19    9   10 1   
    20   10   11 2   
    21   10   12 1   
    22   12   25 1   
    23   13   30 1   
    24   14   15 1   
    25   14   16 ar  
    26   15   26 1   
    27   15   27 1   
    28   15   28 1   
    29   16   17 1   
    30   16   18 ar  
    31   18   29 1   
@<TRIPOS>SUBSTRUCTURE
     1 TLF         1 TEMP              0 ****  ****    0 ROOT
