@<TRIPOS>MOLECULE
TLF
   29    30     1     0     0
SMALL
bcc


@<TRIPOS>ATOM
      1 C4         -0.1430   -1.0620    0.2180 ca        1 TLF     -0.099000
      2 C5          1.2100   -0.7860    0.0810 ca        1 TLF     -0.202000
      3 C6          1.9540   -0.2320    1.1490 ca        1 TLF      0.195600
      4 C8          4.0340   -0.0270   -0.1410 ca        1 TLF      0.127600
      5 C9          4.1300   -1.1830   -0.9490 ca        1 TLF     -0.165000
      6 C10         4.8770   -1.1670   -2.1210 ca        1 TLF     -0.145000
      7 C11         5.5460   -0.0080   -2.5120 ca        1 TLF     -0.169000
      8 C12         5.4650    1.1320   -1.7180 ca        1 TLF     -0.094000
      9 C13         4.7230    1.1470   -0.5330 ca        1 TLF     -0.148600
     10 C14         4.7160    2.4460    0.2650 c         1 TLF      0.912200
     11 O16         4.9810    3.5100   -0.3580 o         1 TLF     -0.828300
     12 O15         4.4700    2.4130    1.5090 o         1 TLF     -0.828300
     13 N7          3.3420   -0.0880    1.0960 nh        1 TLF     -0.610000
     14 C1          1.2610    0.1100    2.3580 ca        1 TLF     -0.120300
     15 C17         1.9920    0.7990    3.4480 c3        1 TLF     -0.068800
     16 C2         -0.0950   -0.2030    2.4590 ca        1 TLF      0.054400
     17 CL         -0.9750    0.1270    3.8940 cl        1 TLF     -0.141400
     18 C3         -0.8070   -0.7910    1.4080 ca        1 TLF     -0.196000
     19 H1         -0.6960   -1.4980   -0.6280 ha        1 TLF      0.117000
     20 H2          1.7040   -0.9890   -0.8820 ha        1 TLF      0.143000
     21 H3          3.6220   -2.1100   -0.6440 ha        1 TLF      0.122000
     22 H4          4.9410   -2.0750   -2.7360 ha        1 TLF      0.106000
     23 H5          6.1320    0.0040   -3.4410 ha        1 TLF      0.109000
     24 H6          5.9750    2.0650   -2.0140 ha        1 TLF      0.155000
     25 H8          3.7110    0.5980    1.7500 hn        1 TLF      0.471800
     26 H9          2.5350    1.7000    3.0500 hc        1 TLF      0.058033
     27 H10         1.3060    1.1450    4.2580 hc        1 TLF      0.058033
     28 H11         2.7470    0.1100    3.9040 hc        1 TLF      0.058033
     29 H12        -1.8740   -1.0230    1.5180 ha        1 TLF      0.128000
@<TRIPOS>BOND
     1    1    2 ar  
     2    1   18 ar  
     3    1   19 1   
     4    2    3 ar  
     5    2   20 1   
     6    3   13 1   
     7    3   14 ar  
     8    4    5 ar  
     9    4    9 ar  
    10    4   13 1   
    11    5    6 ar  
    12    5   21 1   
    13    6    7 ar  
    14    6   22 1   
    15    7    8 ar  
    16    7   23 1   
    17    8    9 ar  
    18    8   24 1   
    19    9   10 1   
    20   10   11 1   
    21   10   12 1   
    22   13   25 1   
    23   14   15 1   
    24   14   16 ar  
    25   15   26 1   
    26   15   27 1   
    27   15   28 1   
    28   16   17 1   
    29   16   18 ar  
    30   18   29 1   
@<TRIPOS>SUBSTRUCTURE
     1 TLF         1 TEMP              0 ****  ****    0 ROOT
