@<TRIPOS>MOLECULE
TLF
   29    21     1     0     0
SMALL
bcc


@<TRIPOS>ATOM
      1 C4         -3.1310    0.7060   -1.4770 c1        1 TLF     -0.135000
      2 C5         -1.7490    0.6000   -1.4630 c1        1 TLF     -0.135000
      3 C6         -1.0650    0.6060   -0.2570 c1        1 TLF      0.040000
      4 C8          1.1810   -0.3690   -0.4820 c1        1 TLF      0.039000
      5 C9          0.7460   -1.6840   -0.4200 c2        1 TLF     -0.165000
      6 C10         1.6570   -2.7050   -0.2030 c1        1 TLF     -0.142000
      7 C11         3.0030   -2.4120   -0.0480 c1        1 TLF     -0.135000
      8 C12         3.4380   -1.0980   -0.1090 c1        1 TLF     -0.135000
      9 C13         2.5260   -0.0760   -0.3260 c1        1 TLF     -0.137000
     10 C14         3.0090    1.3530   -0.4530 c1        1 TLF      0.359000
     11 O16         3.5630    1.7370   -1.5160 os        1 TLF     -0.595000
     12 O15         2.8700    2.1520    0.5100 o         1 TLF     -0.543000
     13 N7          0.2570    0.6700   -0.7690 n2        1 TLF     -0.231000
     14 C1         -1.7640    0.7190    0.9360 c1        1 TLF     -0.055000
     15 C17        -1.0110    0.8150    2.2470 c3        1 TLF     -0.175000
     16 C2         -3.1460    0.8250    0.9220 c1        1 TLF     -0.071000
     17 CL         -4.0300    0.8860    2.4240 cl        1 TLF     -0.065000
     18 C3         -3.8300    0.8180   -0.2850 c1        1 TLF     -0.146000
     19 H1         -3.6130    0.7010   -2.3260 ha        1 TLF      0.146750
     20 H2         -1.2570    0.5210   -2.3020 ha        1 TLF      0.146750
     21 H3         -0.2020   -1.8900   -0.5300 ha        1 TLF      0.120000
     22 H4          1.3550   -3.6330   -0.1880 ha        1 TLF      0.104000
     23 H5          3.6450   -3.1320    0.1050 ha        1 TLF      0.146750
     24 H6          4.3850   -0.8910    0.0010 ha        1 TLF      0.146750
     25 H8          0.5130    1.3780   -1.2840 hn        1 TLF      0.226000
     26 H9         -0.2370    1.4070    2.1360 hc        1 TLF      0.087000
     27 H10        -1.6040    1.1780    2.9380 hc        1 TLF      0.087000
     28 H11        -0.7050   -0.0760    2.5140 hc        1 TLF      0.087000
     29 H12        -4.8030    0.8930   -0.2940 ha        1 TLF      0.128000
@<TRIPOS>BOND
     1    1    2 1   
     2    1   19 1   
     3    2   20 1   
     4    3   13 1   
     5    3   14 1   
     6    4    5 1   
     7    4    9 1   
     8    5    6 1   
     9    5   21 1   
    10    6   22 1   
    11    7    8 1   
    12    7   23 1   
    13    8   24 1   
    14   10   12 1   
    15   13   25 1   
    16   14   15 1   
    17   15   26 1   
    18   15   27 1   
    19   15   28 1   
    20   16   18 1   
    21   18   29 1   
@<TRIPOS>SUBSTRUCTURE
     1 TLF         1 TEMP              0 ****  ****    0 ROOT
