@<TRIPOS>MOLECULE
TLG
   30    30     1     0     0
SMALL
bcc


@<TRIPOS>ATOM
      1 S           0.6970   -0.0700   -0.5760 ss        1 TLG     -0.250700
      2 C1          3.8450   -1.8770    0.4550 c3        1 TLG     -0.087900
      3 C3          2.0380    2.2180   -0.0380 c3        1 TLG     -0.084100
      4 C4          2.2070    0.7100    0.0650 c3        1 TLG      0.066500
      5 O6          3.2560    0.6900    2.3210 oh        1 TLG     -0.430100
      6 C7          6.3190   -1.7860   -1.1880 c2        1 TLG     -0.187000
      7 C8          5.2250   -1.0880   -1.4960 ce        1 TLG     -0.150000
      8 C10         3.3710    0.2670   -0.7350 c2        1 TLG     -0.208200
      9 C11         0.1510   -0.7020    0.9670 c         1 TLG      0.621900
     10 O11        -0.9020   -1.3150    1.1320 o         1 TLG     -0.497100
     11 C12         1.1580   -0.3900    1.9920 ce        1 TLG     -0.375400
     12 C13         1.0080   -0.8310    3.3880 c         1 TLG      0.607300
     13 C14        -0.3910   -0.9840    3.8880 c3        1 TLG     -0.192100
     14 C15         2.2350    0.3080    1.5180 c2        1 TLG      0.198900
     15 ONA         1.9900   -1.0620    4.1030 o         1 TLG     -0.530100
     16 H1          2.7460   -2.0820    0.5360 hc        1 TLG      0.061033
     17 H1A         4.2050   -1.5180    1.4540 hc        1 TLG      0.061033
     18 H1B         4.3600   -2.8410    0.2190 hc        1 TLG      0.061033
     19 H3          1.8810    2.5130   -1.1030 hc        1 TLG      0.058367
     20 H3A         1.1570    2.5550    0.5600 hc        1 TLG      0.058367
     21 H3B         2.9530    2.7320    0.3460 hc        1 TLG      0.058367
     22 HO6         3.9360    1.1090    1.7640 ho        1 TLG      0.438000
     23 H7          5.1190   -0.6260   -2.4950 ha        1 TLG      0.129000
     24 H7A         6.4760   -2.2570   -0.2080 ha        1 TLG      0.119500
     25 H8          7.1370   -1.9250   -1.9070 ha        1 TLG      0.119500
     26 H10         3.6210    0.9620   -1.5600 ha        1 TLG      0.141000
     27 H14        -0.8490   -1.8970    3.4310 hc        1 TLG      0.071033
     28 H14A       -1.0080   -0.1020    3.5910 hc        1 TLG      0.071033
     29 H14B       -0.3980   -1.0870    5.0000 hc        1 TLG      0.071033
     30 C9          4.1050   -0.8550   -0.5850 ce        1 TLG     -0.021200
@<TRIPOS>BOND
     1    1    4 1   
     2    1    9 1   
     3    2   16 1   
     4    2   17 1   
     5    2   18 1   
     6    2   30 1   
     7    3    4 1   
     8    3   19 1   
     9    3   20 1   
    10    3   21 1   
    11    4    8 1   
    12    4   14 1   
    13    5   14 1   
    14    5   22 1   
    15    6    7 2   
    16    6   24 1   
    17    6   25 1   
    18    7   23 1   
    19    7   30 1   
    20    8   26 1   
    21    8   30 2   
    22    9   10 2   
    23    9   11 1   
    24   11   12 1   
    25   11   14 2   
    26   12   13 1   
    27   12   15 2   
    28   13   27 1   
    29   13   28 1   
    30   13   29 1   
@<TRIPOS>SUBSTRUCTURE
     1 TLG         1 TEMP              0 ****  ****    0 ROOT
