@<TRIPOS>MOLECULE
TLG
   30    29     1     0     0
SMALL
bcc


@<TRIPOS>ATOM
      1 S          -0.9820    0.5940    0.6850 ss        1 TLG      0.095000
      2 C1          5.1400   -1.2860   -2.4880 c3        1 TLG     -0.150000
      3 C3          1.4500    0.8170   -0.5220 c3        1 TLG     -0.205000
      4 C4          0.7010    0.0130    0.5060 c3        1 TLG     -0.244000
      5 O6          2.5780   -0.2450    2.1080 oh        1 TLG     -0.197000
      6 C7          7.1190   -3.1390   -1.3800 c2        1 TLG     -0.191000
      7 C8          6.1720   -2.6230   -0.5970 c2        1 TLG     -0.111000
      8 C10         4.2030   -1.2380   -0.2430 c1        1 TLG      0.134000
      9 C11        -0.8810    0.8890    2.4210 c2        1 TLG      0.194000
     10 O11        -1.8190    1.3050    3.0960 o         1 TLG     -0.260000
     11 C12         0.4700    0.5500    2.8780 c2        1 TLG     -0.352000
     12 C13         0.8790    0.6750    4.2830 c2        1 TLG      0.298000
     13 C14         0.0040    1.5030    5.1680 c3        1 TLG     -0.259000
     14 C15         1.2980    0.1020    1.8790 c2        1 TLG      0.178000
     15 ONA         1.8990    0.1230    4.7140 o         1 TLG     -0.296000
     16 H1          4.3060   -0.5750   -2.7080 hc        1 TLG      0.093667
     17 H1A         5.0250   -2.1850   -3.1420 hc        1 TLG      0.093667
     18 H1B         6.1100   -0.7840   -2.7280 hc        1 TLG      0.093667
     19 H3          2.4760    0.3900   -0.6730 hc        1 TLG      0.096333
     20 H3A         1.5520    1.8830   -0.2040 hc        1 TLG      0.096333
     21 H3B         0.9070    0.7880   -1.4980 hc        1 TLG      0.096333
     22 HO6         2.9950   -0.5250    1.2600 ho        1 TLG      0.265000
     23 H7          6.1300   -2.8770    0.4770 ha        1 TLG      0.133000
     24 H7A         7.2050   -2.9180   -2.4520 ha        1 TLG      0.122000
     25 H8          7.8790   -3.8270   -0.9840 ha        1 TLG      0.122000
     26 H10         0.6610   -1.0650    0.1910 h1        1 TLG      0.152000
     27 H14        -0.9730    0.9800    5.3210 hc        1 TLG      0.108333
     28 H14A        0.4950    1.6640    6.1580 hc        1 TLG      0.108333
     29 H14B       -0.2040    2.4910    4.6900 hc        1 TLG      0.108333
     30 C9          5.1360   -1.7050   -1.0560 c2        1 TLG     -0.322000
@<TRIPOS>BOND
     1    1    4 1   
     2    1    9 1   
     3    2   16 1   
     4    2   17 1   
     5    2   18 1   
     6    2   30 1   
     7    3    4 1   
     8    3   19 1   
     9    3   20 1   
    10    3   21 1   
    11    4   14 1   
    12    4   26 1   
    13    5   14 1   
    14    5   22 1   
    15    6    7 1   
    16    6   24 1   
    17    6   25 1   
    18    7   23 1   
    19    7   30 1   
    20    8   30 1   
    21    9   10 1   
    22    9   11 1   
    23   11   12 1   
    24   11   14 1   
    25   12   13 1   
    26   12   15 1   
    27   13   27 1   
    28   13   28 1   
    29   13   29 1   
@<TRIPOS>SUBSTRUCTURE
     1 TLG         1 TEMP              0 ****  ****    0 ROOT
