@<TRIPOS>MOLECULE
TLG
   30    30     1     0     0
SMALL
bcc


@<TRIPOS>ATOM
      1 S           0.5420   -2.0040    0.2250 ss        1 TLG     -0.266700
      2 C1         -3.6930   -0.2860   -1.8470 c3        1 TLG     -0.066900
      3 C3         -1.1380   -0.6490    1.8520 c3        1 TLG     -0.082100
      4 C4         -0.5770   -0.5810    0.4490 c3        1 TLG      0.111500
      5 O6         -0.2430    1.8090    0.4660 oh        1 TLG     -0.466100
      6 C7         -4.4790    1.0020    0.7750 c2        1 TLG     -0.199000
      7 C8         -3.2490    0.9670    0.2610 ce        1 TLG     -0.150000
      8 C10        -1.6050   -0.6730   -0.6200 c2        1 TLG     -0.191200
      9 C11         1.9810   -1.0710   -0.1210 c         1 TLG      0.629900
     10 O11         3.0780   -1.5610   -0.3840 o         1 TLG     -0.504100
     11 C12         1.6510    0.3550   -0.0310 ce        1 TLG     -0.450400
     12 C13         2.6480    1.4050   -0.2430 c         1 TLG      0.620300
     13 C14         4.0360    0.9990   -0.6000 c3        1 TLG     -0.186100
     14 C15         0.3360    0.6130    0.2760 c2        1 TLG      0.253900
     15 ONA         2.3340    2.6060   -0.1270 o         1 TLG     -0.600100
     16 H1         -3.8650    0.6620   -2.4160 hc        1 TLG      0.050367
     17 H1A        -3.2740   -1.0490   -2.5480 hc        1 TLG      0.050367
     18 H1B        -4.6820   -0.6540   -1.4740 hc        1 TLG      0.050367
     19 H3         -0.3130   -0.7310    2.6000 hc        1 TLG      0.062367
     20 H3A        -1.7330    0.2720    2.0730 hc        1 TLG      0.062367
     21 H3B        -1.8040   -1.5410    1.9510 hc        1 TLG      0.062367
     22 HO6         0.4040    2.5330    0.3220 ho        1 TLG      0.484000
     23 H7         -5.2530    0.2630    0.5290 ha        1 TLG      0.116000
     24 H7A        -4.7870    1.7780    1.4880 ha        1 TLG      0.116000
     25 H8         -2.4970    1.7300    0.5380 ha        1 TLG      0.145000
     26 H10        -1.3340   -1.3860   -1.4230 ha        1 TLG      0.150000
     27 H14         4.0230    0.3900   -1.5390 hc        1 TLG      0.076033
     28 H14A        4.6810    1.8980   -0.7470 hc        1 TLG      0.076033
     29 H14B        4.4640    0.3610    0.2140 hc        1 TLG      0.076033
     30 C9         -2.7820   -0.0280   -0.6990 ce        1 TLG     -0.030200
@<TRIPOS>BOND
     1    1    4 1   
     2    1    9 1   
     3    2   16 1   
     4    2   17 1   
     5    2   18 1   
     6    2   30 1   
     7    3    4 1   
     8    3   19 1   
     9    3   20 1   
    10    3   21 1   
    11    4    8 1   
    12    4   14 1   
    13    5   14 1   
    14    5   22 1   
    15    6    7 2   
    16    6   23 1   
    17    6   24 1   
    18    7   25 1   
    19    7   30 1   
    20    8   26 1   
    21    8   30 2   
    22    9   10 2   
    23    9   11 1   
    24   11   12 1   
    25   11   14 2   
    26   12   13 1   
    27   12   15 2   
    28   13   27 1   
    29   13   28 1   
    30   13   29 1   
@<TRIPOS>SUBSTRUCTURE
     1 TLG         1 TEMP              0 ****  ****    0 ROOT
