@<TRIPOS>MOLECULE
TLH
   30    30     1     0     0
SMALL
bcc


@<TRIPOS>ATOM
      1 F2         -3.6640   -1.1180    1.0400 f         1 TLH     -0.217300
      2 C10        -3.3110    0.0420    0.4080 c3        1 TLH      0.565900
      3 F          -4.4510    0.4460   -0.2390 f         1 TLH     -0.217300
      4 F1         -3.1200    0.9790    1.3870 f         1 TLH     -0.217300
      5 C9         -2.0980   -0.1090   -0.5730 c         1 TLH      0.584300
      6 O1         -2.3020    0.1520   -1.7650 o         1 TLH     -0.530100
      7 C8         -0.8160   -0.5410   -0.0640 ce        1 TLH     -0.455400
      8 C7         -0.5680   -0.8400    1.3560 c         1 TLH      0.612900
      9 O          -1.3950   -0.7620    2.2610 o         1 TLH     -0.474100
     10 S           1.0980   -1.3170    1.5530 ss        1 TLH     -0.224700
     11 C11         0.2890   -0.7080   -0.8740 c2        1 TLH      0.271900
     12 O2          0.3800   -0.5240   -2.1980 oh        1 TLH     -0.443100
     13 C5          1.5480   -1.2110   -0.2070 c3        1 TLH      0.103500
     14 C6          1.8330   -2.6230   -0.6980 c3        1 TLH     -0.084100
     15 C4          2.7410   -0.3510   -0.3880 c2        1 TLH     -0.185200
     16 C2          2.8580    0.9810   -0.2160 ce        1 TLH     -0.018200
     17 C3          1.7630    1.8800    0.2180 c3        1 TLH     -0.078900
     18 C1          4.1560    1.6070   -0.4670 ce        1 TLH     -0.148000
     19 C           4.3620    2.9220   -0.5570 c2        1 TLH     -0.187000
     20 H2         -0.4730   -0.2110   -2.5660 ho        1 TLH      0.480000
     21 H61C        0.9460   -3.2820   -0.5390 hc        1 TLH      0.063700
     22 H62C        2.0770   -2.6000   -1.7890 hc        1 TLH      0.063700
     23 H63C        2.7020   -3.0500   -0.1400 hc        1 TLH      0.063700
     24 H4          3.6370   -0.9210   -0.7010 ha        1 TLH      0.142000
     25 H31C        2.1180    2.5530    1.0390 hc        1 TLH      0.054700
     26 H32C        1.4290    2.5180   -0.6390 hc        1 TLH      0.054700
     27 H33C        0.8840    1.3040    0.6000 hc        1 TLH      0.054700
     28 H1          5.0010    0.9050   -0.5910 ha        1 TLH      0.127000
     29 HC1         5.3590    3.3370   -0.7520 ha        1 TLH      0.119000
     30 HC2         3.5620    3.6670   -0.4480 ha        1 TLH      0.119000
@<TRIPOS>BOND
     1    1    2 1   
     2    2    3 1   
     3    2    4 1   
     4    2    5 1   
     5    5    6 2   
     6    5    7 1   
     7    7    8 1   
     8    7   11 2   
     9    8    9 2   
    10    8   10 1   
    11   10   13 1   
    12   11   12 1   
    13   11   13 1   
    14   12   20 1   
    15   13   14 1   
    16   13   15 1   
    17   14   21 1   
    18   14   22 1   
    19   14   23 1   
    20   15   16 2   
    21   15   24 1   
    22   16   17 1   
    23   16   18 1   
    24   17   25 1   
    25   17   26 1   
    26   17   27 1   
    27   18   19 2   
    28   18   28 1   
    29   19   29 1   
    30   19   30 1   
@<TRIPOS>SUBSTRUCTURE
     1 TLH         1 TEMP              0 ****  ****    0 ROOT
