@<TRIPOS>MOLECULE
TLH
   30    30     1     0     0
SMALL
bcc


@<TRIPOS>ATOM
      1 F2         -0.2340    1.5160   -1.2350 f         1 TLH     -0.217300
      2 C10         0.5170    0.7180   -0.4180 c3        1 TLH      0.565900
      3 F          -0.0530    0.8570    0.8220 f         1 TLH     -0.217300
      4 F1          0.2480   -0.5740   -0.7780 f         1 TLH     -0.217300
      5 C9          2.0440    1.0720   -0.4080 c         1 TLH      0.584300
      6 O1          2.5370    1.4100    0.6750 o         1 TLH     -0.530100
      7 C8          2.8040    0.9930   -1.6350 ce        1 TLH     -0.455400
      8 C7          2.2230    0.5770   -2.9230 c         1 TLH      0.612900
      9 O           1.0530    0.2530   -3.1100 o         1 TLH     -0.474100
     10 S           3.4670    0.6090   -4.1440 ss        1 TLH     -0.224700
     11 C11         4.1470    1.3020   -1.7000 c2        1 TLH      0.271900
     12 O2          4.9500    1.7150   -0.7100 oh        1 TLH     -0.443100
     13 C5          4.7970    1.2200   -3.0620 c3        1 TLH      0.103500
     14 C6          5.1570    2.6270   -3.5200 c3        1 TLH     -0.084100
     15 C4          5.9810    0.3340   -3.1410 c2        1 TLH     -0.185200
     16 C2          6.1210   -0.9320   -2.6980 ce        1 TLH     -0.018200
     17 C3          5.0610   -1.7180   -2.0240 c3        1 TLH     -0.078900
     18 C1          7.4070   -1.6020   -2.8910 ce        1 TLH     -0.148000
     19 C           7.7600   -2.7510   -2.3130 c2        1 TLH     -0.187000
     20 H2          4.4630    1.7590    0.1400 ho        1 TLH      0.480000
     21 H61C        5.9470    3.0500   -2.8520 hc        1 TLH      0.063700
     22 H62C        4.2610    3.2920   -3.4890 hc        1 TLH      0.063700
     23 H63C        5.5440    2.5950   -4.5680 hc        1 TLH      0.063700
     24 H4          6.8430    0.8120   -3.6450 ha        1 TLH      0.142000
     25 H31C        4.0610   -1.2260   -2.1170 hc        1 TLH      0.054700
     26 H32C        4.9870   -2.7370   -2.4790 hc        1 TLH      0.054700
     27 H33C        5.3030   -1.8350   -0.9370 hc        1 TLH      0.054700
     28 H1          8.1120   -1.0830   -3.5660 ha        1 TLH      0.127000
     29 HC1         7.1060   -3.3100   -1.6300 ha        1 TLH      0.119000
     30 HC2         8.7440   -3.2080   -2.4900 ha        1 TLH      0.119000
@<TRIPOS>BOND
     1    1    2 1   
     2    2    3 1   
     3    2    4 1   
     4    2    5 1   
     5    5    6 2   
     6    5    7 1   
     7    7    8 1   
     8    7   11 2   
     9    8    9 2   
    10    8   10 1   
    11   10   13 1   
    12   11   12 1   
    13   11   13 1   
    14   12   20 1   
    15   13   14 1   
    16   13   15 1   
    17   14   21 1   
    18   14   22 1   
    19   14   23 1   
    20   15   16 2   
    21   15   24 1   
    22   16   17 1   
    23   16   18 1   
    24   17   25 1   
    25   17   26 1   
    26   17   27 1   
    27   18   19 2   
    28   18   28 1   
    29   19   29 1   
    30   19   30 1   
@<TRIPOS>SUBSTRUCTURE
     1 TLH         1 TEMP              0 ****  ****    0 ROOT
