@<TRIPOS>MOLECULE
TLH
   30    30     1     0     0
SMALL
bcc


@<TRIPOS>ATOM
      1 F2         -0.2430    1.4040   -1.1230 f         1 TLH     -0.217300
      2 C10         0.5530    0.6360   -0.3180 c3        1 TLH      0.565900
      3 F           0.0140    0.7770    0.9360 f         1 TLH     -0.217300
      4 F1          0.3090   -0.6670   -0.6540 f         1 TLH     -0.217300
      5 C9          2.0690    1.0310   -0.3550 c         1 TLH      0.584300
      6 O1          2.5830    1.3970    0.7100 o         1 TLH     -0.530100
      7 C8          2.7970    0.9560   -1.6020 ce        1 TLH     -0.455400
      8 C7          2.1920    0.5080   -2.8670 c         1 TLH      0.612900
      9 O           1.0260    0.1510   -3.0180 o         1 TLH     -0.474100
     10 S           3.4000    0.5580   -4.1230 ss        1 TLH     -0.224700
     11 C11         4.1290    1.3010   -1.7080 c2        1 TLH      0.271900
     12 O2          4.9470    1.7480   -0.7460 oh        1 TLH     -0.443100
     13 C5          4.7430    1.2190   -3.0860 c3        1 TLH      0.103500
     14 C6          5.0510    2.6280   -3.5720 c3        1 TLH     -0.084100
     15 C4          5.9470    0.3630   -3.1870 c2        1 TLH     -0.185200
     16 C2          6.1340   -0.8930   -2.7330 ce        1 TLH     -0.018200
     17 C3          5.1140   -1.6980   -2.0210 c3        1 TLH     -0.078900
     18 C1          7.4320   -1.5300   -2.9540 ce        1 TLH     -0.148000
     19 C           7.8310   -2.6640   -2.3730 c2        1 TLH     -0.187000
     20 H2          4.4830    1.7900    0.1170 ho        1 TLH      0.480000
     21 H61C        5.4100    2.5930   -4.6290 hc        1 TLH      0.063700
     22 H62C        5.8480    3.0800   -2.9310 hc        1 TLH      0.063700
     23 H63C        4.1390    3.2700   -3.5240 hc        1 TLH      0.063700
     24 H4          6.7820    0.8580   -3.7200 ha        1 TLH      0.142000
     25 H31C        5.3890   -1.7960   -0.9400 hc        1 TLH      0.054700
     26 H32C        5.0550   -2.7250   -2.4630 hc        1 TLH      0.054700
     27 H33C        4.0990   -1.2340   -2.0910 hc        1 TLH      0.054700
     28 H1          8.1040   -1.0000   -3.6530 ha        1 TLH      0.127000
     29 HC1         7.2100   -3.2320   -1.6680 ha        1 TLH      0.119000
     30 HC2         8.8210   -3.0960   -2.5720 ha        1 TLH      0.119000
@<TRIPOS>BOND
     1    1    2 1   
     2    2    3 1   
     3    2    4 1   
     4    2    5 1   
     5    5    6 2   
     6    5    7 1   
     7    7    8 1   
     8    7   11 2   
     9    8    9 2   
    10    8   10 1   
    11   10   13 1   
    12   11   12 1   
    13   11   13 1   
    14   12   20 1   
    15   13   14 1   
    16   13   15 1   
    17   14   21 1   
    18   14   22 1   
    19   14   23 1   
    20   15   16 2   
    21   15   24 1   
    22   16   17 1   
    23   16   18 1   
    24   17   25 1   
    25   17   26 1   
    26   17   27 1   
    27   18   19 2   
    28   18   28 1   
    29   19   29 1   
    30   19   30 1   
@<TRIPOS>SUBSTRUCTURE
     1 TLH         1 TEMP              0 ****  ****    0 ROOT
