@<TRIPOS>MOLECULE
TLJ
   34    34     1     0     0
SMALL
bcc


@<TRIPOS>ATOM
      1 C           5.2540   -0.6700   -1.0030 c2        1 TLJ     -0.201000
      2 O          -1.9870    2.6390   -0.4330 o         1 TLJ     -0.498100
      3 S           0.3260    1.6700    0.4530 ss        1 TLJ     -0.276700
      4 C1          3.9320   -0.7940   -1.1250 ce        1 TLJ     -0.138000
      5 O1         -0.8840   -2.0180   -0.0360 oh        1 TLJ     -0.469100
      6 C2          2.9500   -0.1880   -0.2270 ce        1 TLJ     -0.043200
      7 C3          3.4520    0.8490    0.7070 c3        1 TLJ     -0.070900
      8 C4          1.6680   -0.5960   -0.2970 c2        1 TLJ     -0.166200
      9 C5          0.5350   -0.1440    0.5490 c3        1 TLJ      0.132500
     10 C6          0.7140   -0.5520    1.9980 c3        1 TLJ     -0.080100
     11 C7         -1.3080    1.6480   -0.1700 c         1 TLJ      0.615900
     12 C8         -1.7270    0.2460   -0.3330 ce        1 TLJ     -0.317400
     13 C9         -3.0710   -0.0680   -0.8640 c3        1 TLJ     -0.023200
     14 C10        -4.0040   -0.6070    0.2060 c3        1 TLJ     -0.080400
     15 C11        -5.3480   -0.9640   -0.3730 c3        1 TLJ     -0.095100
     16 C12        -0.7820   -0.6630    0.0230 c2        1 TLJ      0.133900
     17 H           5.9470   -1.1530   -1.7050 ha        1 TLJ      0.115500
     18 HA          5.7340   -0.0890   -0.2040 ha        1 TLJ      0.115500
     19 H1          3.5060   -1.3970   -1.9480 ha        1 TLJ      0.124000
     20 HO1        -1.7640   -2.2410   -0.3860 ho        1 TLJ      0.437000
     21 H3          4.1280    1.5600    0.1690 hc        1 TLJ      0.052367
     22 H3A         2.6180    1.4440    1.1590 hc        1 TLJ      0.052367
     23 H3B         4.0320    0.3680    1.5350 hc        1 TLJ      0.052367
     24 H4          1.3860   -1.3710   -1.0340 ha        1 TLJ      0.141000
     25 H6         -0.1070   -0.1340    2.6290 hc        1 TLJ      0.058033
     26 H6A         0.6960   -1.6680    2.0750 hc        1 TLJ      0.058033
     27 H6B         1.6940   -0.1800    2.3850 hc        1 TLJ      0.058033
     28 H9         -3.5170    0.8660   -1.3060 hc        1 TLJ      0.059700
     29 H9A        -2.9810   -0.8200   -1.6950 hc        1 TLJ      0.059700
     30 H10        -3.5460   -1.5110    0.6880 hc        1 TLJ      0.041200
     31 H10A       -4.1320    0.1660    1.0100 hc        1 TLJ      0.041200
     32 H11        -6.0230   -1.3530    0.4270 hc        1 TLJ      0.036367
     33 H11A       -5.8280   -0.0670   -0.8350 hc        1 TLJ      0.036367
     34 H11B       -5.2450   -1.7500   -1.1610 hc        1 TLJ      0.036367
@<TRIPOS>BOND
     1    1    4 2   
     2    1   17 1   
     3    1   18 1   
     4    2   11 2   
     5    3    9 1   
     6    3   11 1   
     7    4    6 1   
     8    4   19 1   
     9    5   16 1   
    10    5   20 1   
    11    6    7 1   
    12    6    8 2   
    13    7   21 1   
    14    7   22 1   
    15    7   23 1   
    16    8    9 1   
    17    8   24 1   
    18    9   10 1   
    19    9   16 1   
    20   10   25 1   
    21   10   26 1   
    22   10   27 1   
    23   11   12 1   
    24   12   13 1   
    25   12   16 2   
    26   13   14 1   
    27   13   28 1   
    28   13   29 1   
    29   14   15 1   
    30   14   30 1   
    31   14   31 1   
    32   15   32 1   
    33   15   33 1   
    34   15   34 1   
@<TRIPOS>SUBSTRUCTURE
     1 TLJ         1 TEMP              0 ****  ****    0 ROOT
