@<TRIPOS>MOLECULE
TLJ
   34    34     1     0     0
SMALL
bcc


@<TRIPOS>ATOM
      1 C           0.0980    0.5900   -0.2040 c2        1 TLJ     -0.201000
      2 O           4.7860   -3.7890    4.5440 o         1 TLJ     -0.498100
      3 S           3.2790   -1.7100    3.8550 ss        1 TLJ     -0.276700
      4 C1          1.3060    0.0860    0.0540 ce        1 TLJ     -0.138000
      5 O1          6.1320   -0.2130    1.6360 oh        1 TLJ     -0.469100
      6 C2          1.8890   -0.0400    1.3880 ce        1 TLJ     -0.043200
      7 C3          0.9720    0.1480    2.5380 c3        1 TLJ     -0.070900
      8 C4          3.2040   -0.3170    1.4990 c2        1 TLJ     -0.166200
      9 C5          3.9920   -0.4400    2.7490 c3        1 TLJ      0.132500
     10 C6          4.0820    0.8780    3.4940 c3        1 TLJ     -0.080100
     11 C7          4.6920   -2.7390    3.9120 c         1 TLJ      0.615900
     12 C8          5.7410   -2.1390    3.0730 ce        1 TLJ     -0.317400
     13 C9          7.0480   -2.8140    2.9260 c3        1 TLJ     -0.023200
     14 C10         8.1580   -2.0940    3.6700 c3        1 TLJ     -0.080400
     15 C11         9.4860   -2.7760    3.4620 c3        1 TLJ     -0.095100
     16 C12         5.3770   -0.9750    2.4730 c2        1 TLJ      0.133900
     17 H          -0.5800    0.9600    0.5760 ha        1 TLJ      0.115500
     18 HA         -0.2880    0.6660   -1.2300 ha        1 TLJ      0.115500
     19 H1          1.9480   -0.2660   -0.7740 ha        1 TLJ      0.124000
     20 HO1         6.9960   -0.6470    1.5270 ho        1 TLJ      0.437000
     21 H3          1.4180   -0.2240    3.4950 hc        1 TLJ      0.052367
     22 H3A         0.0170   -0.4090    2.3660 hc        1 TLJ      0.052367
     23 H3B         0.7300    1.2340    2.6590 hc        1 TLJ      0.052367
     24 H4          3.8070   -0.4490    0.5810 ha        1 TLJ      0.141000
     25 H6          3.0590    1.2820    3.6870 hc        1 TLJ      0.058033
     26 H6A         4.6100    0.7450    4.4680 hc        1 TLJ      0.058033
     27 H6B         4.6500    1.6160    2.8730 hc        1 TLJ      0.058033
     28 H9          6.9630   -3.8650    3.3180 hc        1 TLJ      0.059700
     29 H9A         7.3140   -2.8870    1.8360 hc        1 TLJ      0.059700
     30 H10         8.2200   -1.0290    3.3210 hc        1 TLJ      0.041200
     31 H10A        7.9140   -2.0670    4.7650 hc        1 TLJ      0.041200
     32 H11        10.2890   -2.2360    4.0200 hc        1 TLJ      0.036367
     33 H11A        9.7580   -2.7920    2.3790 hc        1 TLJ      0.036367
     34 H11B        9.4470   -3.8300    3.8290 hc        1 TLJ      0.036367
@<TRIPOS>BOND
     1    1    4 2   
     2    1   17 1   
     3    1   18 1   
     4    2   11 2   
     5    3    9 1   
     6    3   11 1   
     7    4    6 1   
     8    4   19 1   
     9    5   16 1   
    10    5   20 1   
    11    6    7 1   
    12    6    8 2   
    13    7   21 1   
    14    7   22 1   
    15    7   23 1   
    16    8    9 1   
    17    8   24 1   
    18    9   10 1   
    19    9   16 1   
    20   10   25 1   
    21   10   26 1   
    22   10   27 1   
    23   11   12 1   
    24   12   13 1   
    25   12   16 2   
    26   13   14 1   
    27   13   28 1   
    28   13   29 1   
    29   14   15 1   
    30   14   30 1   
    31   14   31 1   
    32   15   32 1   
    33   15   33 1   
    34   15   34 1   
@<TRIPOS>SUBSTRUCTURE
     1 TLJ         1 TEMP              0 ****  ****    0 ROOT
