@<TRIPOS>MOLECULE
TLJ
   34    34     1     0     0
SMALL
bcc


@<TRIPOS>ATOM
      1 C           0.0680    0.6290   -0.1300 c2        1 TLJ     -0.201000
      2 O           4.8010   -3.8050    4.5210 o         1 TLJ     -0.498100
      3 S           3.2950   -1.7130    3.8680 ss        1 TLJ     -0.276700
      4 C1          1.2770    0.1190    0.1080 ce        1 TLJ     -0.138000
      5 O1          6.1230   -0.2140    1.6190 oh        1 TLJ     -0.469100
      6 C2          1.8790   -0.0190    1.4330 ce        1 TLJ     -0.043200
      7 C3          0.9780    0.1650    2.5970 c3        1 TLJ     -0.070900
      8 C4          3.1930   -0.3030    1.5230 c2        1 TLJ     -0.166200
      9 C5          3.9990   -0.4390    2.7620 c3        1 TLJ      0.132500
     10 C6          4.1050    0.8740    3.5140 c3        1 TLJ     -0.080100
     11 C7          4.7030   -2.7490    3.8980 c         1 TLJ      0.615900
     12 C8          5.7430   -2.1480    3.0480 ce        1 TLJ     -0.317400
     13 C9          7.0450   -2.8290    2.8780 c3        1 TLJ     -0.023200
     14 C10         8.1690   -2.1190    3.6120 c3        1 TLJ     -0.080400
     15 C11         9.4900   -2.8050    3.3800 c3        1 TLJ     -0.095100
     16 C12         5.3770   -0.9790    2.4620 c2        1 TLJ      0.133900
     17 H          -0.5990    0.9950    0.6630 ha        1 TLJ      0.115500
     18 HA         -0.3330    0.7140   -1.1490 ha        1 TLJ      0.115500
     19 H1          1.9060   -0.2290   -0.7320 ha        1 TLJ      0.124000
     20 HO1         6.9830   -0.6510    1.4960 ho        1 TLJ      0.437000
     21 H3          0.0180   -0.3880    2.4350 hc        1 TLJ      0.052367
     22 H3A         1.4360   -0.2150    3.5460 hc        1 TLJ      0.052367
     23 H3B         0.7420    1.2510    2.7280 hc        1 TLJ      0.052367
     24 H4          3.7830   -0.4310    0.5970 ha        1 TLJ      0.141000
     25 H6          4.6680    1.6130    2.8910 hc        1 TLJ      0.058033
     26 H6A         4.6460    0.7300    4.4800 hc        1 TLJ      0.058033
     27 H6B         3.0870    1.2810    3.7240 hc        1 TLJ      0.058033
     28 H9          7.2960   -2.8950    1.7840 hc        1 TLJ      0.059700
     29 H9A         6.9610   -3.8820    3.2640 hc        1 TLJ      0.059700
     30 H10         8.2310   -1.0520    3.2690 hc        1 TLJ      0.041200
     31 H10A        7.9410   -2.0990    4.7100 hc        1 TLJ      0.041200
     32 H11        10.3030   -2.2740    3.9300 hc        1 TLJ      0.036367
     33 H11A        9.4520   -3.8620    3.7400 hc        1 TLJ      0.036367
     34 H11B        9.7470   -2.8160    2.2930 hc        1 TLJ      0.036367
@<TRIPOS>BOND
     1    1    4 2   
     2    1   17 1   
     3    1   18 1   
     4    2   11 2   
     5    3    9 1   
     6    3   11 1   
     7    4    6 1   
     8    4   19 1   
     9    5   16 1   
    10    5   20 1   
    11    6    7 1   
    12    6    8 2   
    13    7   21 1   
    14    7   22 1   
    15    7   23 1   
    16    8    9 1   
    17    8   24 1   
    18    9   10 1   
    19    9   16 1   
    20   10   25 1   
    21   10   26 1   
    22   10   27 1   
    23   11   12 1   
    24   12   13 1   
    25   12   16 2   
    26   13   14 1   
    27   13   28 1   
    28   13   29 1   
    29   14   15 1   
    30   14   30 1   
    31   14   31 1   
    32   15   32 1   
    33   15   33 1   
    34   15   34 1   
@<TRIPOS>SUBSTRUCTURE
     1 TLJ         1 TEMP              0 ****  ****    0 ROOT
