@<TRIPOS>MOLECULE
TLL
   74    76     1     0     0
SMALL
bcc


@<TRIPOS>ATOM
      1 O2         -1.4920    0.1920   -2.7240 oh        1 TLL     -0.598100
      2 CT         -0.8170   -0.6550   -1.9190 c         1 TLL      0.613100
      3 O1         -1.4210   -1.3770   -1.1290 o         1 TLL     -0.507000
      4 CA          0.7010   -0.5710   -2.0840 c3        1 TLL      0.077500
      5 CB          1.1710    0.6540   -1.2890 c3        1 TLL     -0.096400
      6 CG          2.6730    0.8490   -1.2750 c3        1 TLL     -0.176400
      7 CD          3.0740    1.9210   -2.2810 c         1 TLL      0.627100
      8 OE2         2.5000    3.0310   -2.2690 o         1 TLL     -0.611100
      9 N           1.0840   -0.5460   -3.5250 ny        1 TLL     -0.690800
     10 C           0.9690   -1.9070   -4.1850 c         1 TLL      0.620700
     11 O           1.4150   -2.8580   -3.5540 o         1 TLL     -0.472100
     12 C11         0.2820   -1.9010   -5.4750 ca        1 TLL     -0.240600
     13 C16         0.5770   -0.9540   -6.4680 ca        1 TLL     -0.030000
     14 C15        -0.1760   -0.9240   -7.6310 ca        1 TLL     -0.192500
     15 C14        -1.2450   -1.8350   -7.8350 ca        1 TLL      0.211600
     16 C13        -1.4600   -2.8430   -6.8610 ca        1 TLL     -0.192500
     17 C12        -0.7040   -2.8730   -5.7020 ca        1 TLL     -0.030000
     18 N10        -1.9910   -1.7790   -9.0200 nu        1 TLL     -0.712600
     19 C9         -3.4000   -2.0630   -9.0090 c3        1 TLL      0.193800
     20 C6         -4.3300   -0.8750   -8.6310 c3        1 TLL      0.112500
     21 N5         -4.0370   -0.3480   -7.3020 nh        1 TLL     -0.580400
     22 C7         -5.8050   -1.3260   -8.7900 c3        1 TLL      0.148800
     23 N8         -6.2790   -2.2030   -7.7460 nu        1 TLL     -0.704000
     24 C8A        -5.7010   -1.9680   -6.4650 cc        1 TLL      0.244000
     25 C4A        -4.6970   -1.0230   -6.2450 cd        1 TLL     -0.092200
     26 N1         -6.2150   -2.7190   -5.3930 na        1 TLL     -0.723000
     27 C2         -5.6970   -2.5110   -4.0990 cc        1 TLL      0.845100
     28 NA2        -6.1410   -3.4010   -3.0900 nv        1 TLL     -0.888800
     29 N3         -4.7850   -1.5790   -3.8170 nd        1 TLL     -0.752100
     30 C4         -4.2420   -0.7900   -4.8420 c         1 TLL      0.730700
     31 O4         -3.3990    0.0750   -4.5310 o         1 TLL     -0.589100
     32 N2          4.1190    1.6590   -3.1520 ns        1 TLL     -0.510900
     33 C3          4.0440    2.1970   -4.5050 c3        1 TLL     -0.053300
     34 C5          3.3570    1.1950   -5.4750 c         1 TLL      0.892600
     35 O6          3.1910   -0.0170   -5.0850 o         1 TLL     -0.832800
     36 O7          2.9370    1.6000   -6.5810 o         1 TLL     -0.832800
     37 C8          5.4170    2.5800   -5.0600 c3        1 TLL     -0.065400
     38 C10         5.9230    3.8940   -4.5030 c3        1 TLL     -0.171400
     39 C17         6.3100    3.8080   -3.0570 c         1 TLL      0.637100
     40 O18         5.4160    4.1680   -2.0890 oh        1 TLL     -0.591100
     41 O19         7.4120    3.4840   -2.6090 o         1 TLL     -0.514000
     42 C1         -4.0820    1.1000   -7.2330 c3        1 TLL      0.156100
     43 HA          1.1520   -1.5090   -1.6310 hx        1 TLL      0.135700
     44 HB1         0.8100    0.4940   -0.2350 hc        1 TLL      0.096700
     45 HB2         0.6630    1.5810   -1.6770 hc        1 TLL      0.096700
     46 HG2         3.2050   -0.1210   -1.4500 hc        1 TLL      0.082700
     47 HG1         2.9870    1.2240   -0.2620 hc        1 TLL      0.082700
     48 HN          0.4880    0.1200   -4.0340 hn        1 TLL      0.494800
     49 H16         1.4310   -0.2460   -6.3500 ha        1 TLL      0.182000
     50 H15         0.0700   -0.1690   -8.3960 ha        1 TLL      0.146000
     51 H13        -2.2280   -3.6150   -7.0120 ha        1 TLL      0.146000
     52 H12        -0.8830   -3.6570   -4.9490 ha        1 TLL      0.182000
     53 H10        -1.7690   -0.9750   -9.5760 hn        1 TLL      0.402800
     54 H92        -3.6750   -2.3690  -10.0600 h1        1 TLL      0.057700
     55 H91        -3.6080   -2.9310   -8.3250 h1        1 TLL      0.057700
     56 H6         -4.1560   -0.0540   -9.3890 h1        1 TLL      0.073700
     57 H72        -6.4590   -0.4060   -8.7730 h1        1 TLL      0.070200
     58 H71        -5.9380   -1.8310   -9.7860 h1        1 TLL      0.070200
     59 HN8        -6.2360   -3.1720   -8.0070 hn        1 TLL      0.388800
     60 HN1        -6.8990   -3.4200   -5.5670 hn        1 TLL      0.457800
     61 HA22       -7.1220   -3.5760   -3.0860 hn        1 TLL      0.421800
     62 HA21       -2.4590    0.0390   -2.6760 ho        1 TLL      0.501000
     63 HN2         4.5280    4.2590   -2.4700 ho        1 TLL      0.442000
     64 H3          3.3970    3.1250   -4.4830 h1        1 TLL      0.085700
     65 H81         6.1660    1.7690   -4.8690 hc        1 TLL      0.075200
     66 H8          5.3000    2.6830   -6.1740 hc        1 TLL      0.075200
     67 H102        6.8360    4.2040   -5.0800 hc        1 TLL      0.070700
     68 H101        5.1450    4.6920   -4.6360 hc        1 TLL      0.070700
     69 H11        -3.3290    1.5070   -7.9600 h1        1 TLL      0.051700
     70 H14        -3.7970    1.4330   -6.2000 h1        1 TLL      0.051700
     71 H1         -5.0940    1.5140   -7.4880 h1        1 TLL      0.051700
     72 H2          2.0870   -0.2260   -3.6470 hn        1 TLL      0.494800
     73 HA23       -5.7690   -3.1980   -2.1840 hn        1 TLL      0.421800
     74 H22         4.4860    0.7280   -3.1340 hn        1 TLL      0.305500
@<TRIPOS>BOND
     1    1    2 1   
     2    1   62 1   
     3    2    3 2   
     4    2    4 1   
     5    4    5 1   
     6    4    9 1   
     7    4   43 1   
     8    5    6 1   
     9    5   44 1   
    10    5   45 1   
    11    6    7 1   
    12    6   46 1   
    13    6   47 1   
    14    7    8 2   
    15    7   32 1   
    16    9   10 1   
    17    9   48 1   
    18    9   72 1   
    19   10   11 2   
    20   10   12 1   
    21   12   13 ar  
    22   12   17 ar  
    23   13   14 ar  
    24   13   49 1   
    25   14   15 ar  
    26   14   50 1   
    27   15   16 ar  
    28   15   18 1   
    29   16   17 ar  
    30   16   51 1   
    31   17   52 1   
    32   18   19 1   
    33   18   53 1   
    34   19   20 1   
    35   19   54 1   
    36   19   55 1   
    37   20   21 1   
    38   20   22 1   
    39   20   56 1   
    40   21   25 1   
    41   21   42 1   
    42   22   23 1   
    43   22   57 1   
    44   22   58 1   
    45   23   24 1   
    46   23   59 1   
    47   24   25 2   
    48   24   26 1   
    49   25   30 1   
    50   26   27 1   
    51   26   60 1   
    52   27   28 1   
    53   27   29 2   
    54   28   61 1   
    55   28   73 1   
    56   29   30 1   
    57   30   31 2   
    58   32   33 1   
    59   32   74 1   
    60   33   34 1   
    61   33   37 1   
    62   33   64 1   
    63   34   35 1   
    64   34   36 1   
    65   37   38 1   
    66   37   65 1   
    67   37   66 1   
    68   38   39 1   
    69   38   67 1   
    70   38   68 1   
    71   39   40 1   
    72   39   41 2   
    73   40   63 1   
    74   42   69 1   
    75   42   70 1   
    76   42   71 1   
@<TRIPOS>SUBSTRUCTURE
     1 TLL         1 TEMP              0 ****  ****    0 ROOT
