@<TRIPOS>MOLECULE
TLL
   71    73     1     0     0
SMALL
bcc


@<TRIPOS>ATOM
      1 O2          4.0520   -4.9320   -4.0170 o         1 TLL     -0.847800
      2 CT          4.7850   -4.0270   -4.5080 c         1 TLL      0.914600
      3 O1          6.0400   -4.1070   -4.6110 o         1 TLL     -0.847800
      4 CA          4.1230   -2.7070   -5.0400 c3        1 TLL     -0.030300
      5 CB          4.2130   -1.6520   -3.9240 c3        1 TLL     -0.080400
      6 CG          3.8360   -0.2560   -4.3820 c3        1 TLL     -0.155400
      7 CD          2.8930    0.4560   -3.4160 c         1 TLL      0.653100
      8 OE2         2.7140    0.0400   -2.2490 o         1 TLL     -0.647100
      9 N           2.7620   -2.9360   -5.4740 n         1 TLL     -0.514900
     10 C           2.2040   -2.3820   -6.5880 c         1 TLL      0.663700
     11 O           2.8730   -1.7440   -7.4400 o         1 TLL     -0.669100
     12 C11         0.7230   -2.5230   -6.7620 ca        1 TLL     -0.153600
     13 C16         0.0420   -1.4600   -7.3680 ca        1 TLL     -0.067500
     14 C15        -1.3400   -1.4810   -7.4910 ca        1 TLL     -0.190500
     15 C14        -2.0900   -2.5790   -7.0030 ca        1 TLL      0.124600
     16 C13        -1.3880   -3.6630   -6.4340 ca        1 TLL     -0.190500
     17 C12        -0.0010   -3.6300   -6.3170 ca        1 TLL     -0.067500
     18 N10        -3.4930   -2.6160   -7.1800 nh        1 TLL     -0.719600
     19 C9         -4.3130   -3.0260   -6.0690 c3        1 TLL      0.153800
     20 C6         -4.8410   -1.9190   -5.1110 c3        1 TLL      0.147500
     21 N5         -5.5700   -0.8160   -5.7420 nh        1 TLL     -0.578400
     22 C7         -3.6930   -1.4630   -4.1700 c3        1 TLL      0.191800
     23 N8         -3.5300   -0.0320   -4.0270 nh        1 TLL     -0.716000
     24 C8A        -3.7480    0.6870   -5.2210 cc        1 TLL      0.349000
     25 C4A        -4.7290    0.2620   -6.1390 cd        1 TLL     -0.216200
     26 N1         -2.9970    1.8290   -5.4780 na        1 TLL     -0.710000
     27 C2         -3.1670    2.4980   -6.6990 cc        1 TLL      0.846100
     28 NA2        -2.3960    3.6660   -6.8810 nh        1 TLL     -0.892800
     29 N3         -4.0580    2.1210   -7.6390 nd        1 TLL     -0.790100
     30 C4         -4.8710    1.0080   -7.4070 c         1 TLL      0.717700
     31 O4         -5.6840    0.6610   -8.3020 o         1 TLL     -0.678100
     32 N2          2.2990    1.6110   -3.8750 n         1 TLL     -0.537900
     33 C3          1.2600    2.3260   -3.1640 c3        1 TLL      0.011700
     34 C5         -0.0910    2.2010   -3.9040 c         1 TLL      0.901600
     35 O6         -0.2290    2.6260   -5.0970 o         1 TLL     -0.885800
     36 O7         -1.0890    1.6680   -3.3190 o         1 TLL     -0.885800
     37 C8          1.5580    3.8270   -2.9900 c3        1 TLL     -0.056400
     38 C10         2.6980    4.1130   -2.0440 c3        1 TLL     -0.180400
     39 C17         2.9170    5.6180   -1.8430 c         1 TLL      0.903600
     40 O18         2.6750    6.1210   -0.7030 o         1 TLL     -0.875300
     41 O19         3.3670    6.3140   -2.8030 o         1 TLL     -0.875300
     42 C1         -6.5690   -1.2480   -6.6880 c3        1 TLL      0.183100
     43 HA          4.7230   -2.3530   -5.9260 h1        1 TLL      0.067700
     44 HB1         5.2750   -1.6570   -3.5630 hc        1 TLL      0.063200
     45 HB2         3.5700   -1.9640   -3.0580 hc        1 TLL      0.063200
     46 HG2         4.7600    0.3740   -4.4700 hc        1 TLL      0.056700
     47 HG1         3.3660   -0.2970   -5.4020 hc        1 TLL      0.056700
     48 HN          2.2160   -3.4980   -4.8620 hn        1 TLL      0.323500
     49 H16         0.6200   -0.5920   -7.7300 ha        1 TLL      0.150000
     50 H15        -1.8510   -0.6230   -7.9550 ha        1 TLL      0.128500
     51 H13        -1.9290   -4.5500   -6.0740 ha        1 TLL      0.128500
     52 H12         0.5160   -4.4910   -5.8650 ha        1 TLL      0.150000
     53 H10        -3.8330   -1.7640   -7.5940 hn        1 TLL      0.403800
     54 H92        -5.2130   -3.5380   -6.5210 h1        1 TLL      0.041700
     55 H91        -3.7690   -3.7850   -5.4420 h1        1 TLL      0.041700
     56 H6         -5.6120   -2.4350   -4.4610 h1        1 TLL      0.038700
     57 H72        -2.7300   -1.9410   -4.5200 h1        1 TLL      0.042700
     58 H71        -3.9100   -1.8570   -3.1370 h1        1 TLL      0.042700
     59 HN8        -2.6980    0.2320   -3.5140 hn        1 TLL      0.467800
     60 HN1        -2.2200    2.0770   -4.8500 hn        1 TLL      0.544800
     61 HA22       -1.5560    3.7110   -6.3240 hn        1 TLL      0.435300
     62 HA21       -2.2700    3.9200   -7.8350 hn        1 TLL      0.435300
     63 HN2         2.3920    1.8470   -4.8350 hn        1 TLL      0.305500
     64 H3          1.1470    1.8550   -2.1440 h1        1 TLL      0.084700
     65 H81         1.7700    4.2930   -3.9870 hc        1 TLL      0.044700
     66 H8          0.6200    4.2990   -2.5940 hc        1 TLL      0.044700
     67 H102        3.6460    3.6750   -2.4470 hc        1 TLL      0.024700
     68 H101        2.4940    3.6390   -1.0500 hc        1 TLL      0.024700
     69 H11        -6.1550   -1.6510   -7.6510 h1        1 TLL      0.029367
     70 H14        -7.2210   -0.3680   -6.9330 h1        1 TLL      0.029367
     71 H1         -7.1920   -2.0470   -6.2020 h1        1 TLL      0.029367
@<TRIPOS>BOND
     1    1    2 1   
     2    2    3 1   
     3    2    4 1   
     4    4    5 1   
     5    4    9 1   
     6    4   43 1   
     7    5    6 1   
     8    5   44 1   
     9    5   45 1   
    10    6    7 1   
    11    6   46 1   
    12    6   47 1   
    13    7    8 2   
    14    7   32 1   
    15    9   10 1   
    16    9   48 1   
    17   10   11 2   
    18   10   12 1   
    19   12   13 ar  
    20   12   17 ar  
    21   13   14 ar  
    22   13   49 1   
    23   14   15 ar  
    24   14   50 1   
    25   15   16 ar  
    26   15   18 1   
    27   16   17 ar  
    28   16   51 1   
    29   17   52 1   
    30   18   19 1   
    31   18   53 1   
    32   19   20 1   
    33   19   54 1   
    34   19   55 1   
    35   20   21 1   
    36   20   22 1   
    37   20   56 1   
    38   21   25 1   
    39   21   42 1   
    40   22   23 1   
    41   22   57 1   
    42   22   58 1   
    43   23   24 1   
    44   23   59 1   
    45   24   25 2   
    46   24   26 1   
    47   25   30 1   
    48   26   27 1   
    49   26   60 1   
    50   27   28 1   
    51   27   29 2   
    52   28   61 1   
    53   28   62 1   
    54   29   30 1   
    55   30   31 2   
    56   32   33 1   
    57   32   63 1   
    58   33   34 1   
    59   33   37 1   
    60   33   64 1   
    61   34   35 1   
    62   34   36 1   
    63   37   38 1   
    64   37   65 1   
    65   37   66 1   
    66   38   39 1   
    67   38   67 1   
    68   38   68 1   
    69   39   40 1   
    70   39   41 1   
    71   42   69 1   
    72   42   70 1   
    73   42   71 1   
@<TRIPOS>SUBSTRUCTURE
     1 TLL         1 TEMP              0 ****  ****    0 ROOT
