@<TRIPOS>MOLECULE
TLM
   28    28     1     0     0
SMALL
bcc


@<TRIPOS>ATOM
      1 S1          0.1950   -0.1630   -0.0820 ss        1 TLM     -0.274700
      2 C1          1.9330   -0.2170    0.1030 c         1 TLM      0.614900
      3 C2          2.2520   -0.1050    1.5350 ce        1 TLM     -0.317400
      4 C3          1.1660    0.0030    2.3430 c2        1 TLM      0.127900
      5 C4         -0.2000   -0.0220    1.6990 c3        1 TLM      0.133500
      6 C5         -0.9510    1.2260    1.9820 c2        1 TLM     -0.166200
      7 C6         -2.1170    1.6180    1.4310 ce        1 TLM     -0.043200
      8 C7         -2.7230    2.8690    1.8810 ce        1 TLM     -0.138000
      9 C8         -3.9720    3.2520    1.6080 c2        1 TLM     -0.200000
     10 O1          2.7480   -0.3280   -0.8100 o         1 TLM     -0.497100
     11 C9          3.6530   -0.1140    1.9880 c3        1 TLM     -0.039900
     12 O2          1.1650    0.1270    3.6980 oh        1 TLM     -0.468100
     13 C10        -0.9630   -1.2540    2.1420 c3        1 TLM     -0.080100
     14 C11        -2.8440    0.8640    0.3810 c3        1 TLM     -0.070900
     15 H51        -0.4770    1.8610    2.7540 ha        1 TLM      0.141000
     16 H71        -2.0690    3.5130    2.4970 ha        1 TLM      0.124000
     17 H81        -4.6680    2.6520    1.0070 ha        1 TLM      0.115500
     18 H82        -4.3780    4.2020    1.9780 ha        1 TLM      0.115500
     19 H91         3.9030    0.8410    2.5160 hc        1 TLM      0.051367
     20 H92         3.8370   -0.9650    2.6910 hc        1 TLM      0.051367
     21 H93         4.3420   -0.2230    1.1120 hc        1 TLM      0.051367
     22 HO2         2.0890    0.1230    4.0010 ho        1 TLM      0.434000
     23 H101       -1.0770   -1.2400    3.2550 hc        1 TLM      0.058367
     24 H102       -0.4170   -2.1830    1.8470 hc        1 TLM      0.058367
     25 H103       -1.9790   -1.2670    1.6770 hc        1 TLM      0.058367
     26 H111       -3.1890    1.5580   -0.4250 hc        1 TLM      0.052367
     27 H112       -2.2010    0.0790   -0.0930 hc        1 TLM      0.052367
     28 H113       -3.7430    0.3640    0.8250 hc        1 TLM      0.052367
@<TRIPOS>BOND
     1    1    2 1   
     2    1    5 1   
     3    2    3 1   
     4    2   10 2   
     5    3    4 2   
     6    3   11 1   
     7    4    5 1   
     8    4   12 1   
     9    5    6 1   
    10    5   13 1   
    11    6    7 2   
    12    6   15 1   
    13    7    8 1   
    14    7   14 1   
    15    8    9 2   
    16    8   16 1   
    17    9   17 1   
    18    9   18 1   
    19   11   19 1   
    20   11   20 1   
    21   11   21 1   
    22   12   22 1   
    23   13   23 1   
    24   13   24 1   
    25   13   25 1   
    26   14   26 1   
    27   14   27 1   
    28   14   28 1   
@<TRIPOS>SUBSTRUCTURE
     1 TLM         1 TEMP              0 ****  ****    0 ROOT
