@<TRIPOS>MOLECULE
TLM
   28    28     1     0     0
SMALL
bcc


@<TRIPOS>ATOM
      1 S1          1.3670   -0.5490    0.5490 ss        1 TLM     -0.274700
      2 C1          1.1110    0.1000    2.1520 c         1 TLM      0.614900
      3 C2         -0.3290    0.3510    2.3270 ce        1 TLM     -0.317400
      4 C3         -1.0870    0.0250    1.2480 c2        1 TLM      0.127900
      5 C4         -0.3900   -0.5530    0.0410 c3        1 TLM      0.133500
      6 C5         -0.6010    0.2930   -1.1590 c2        1 TLM     -0.166200
      7 C6          0.0090    0.1760   -2.3550 ce        1 TLM     -0.043200
      8 C7         -0.3750    1.0860   -3.4330 ce        1 TLM     -0.138000
      9 C8         -0.0400    0.9310   -4.7160 c2        1 TLM     -0.200000
     10 O1          1.9860    0.3130    2.9880 o         1 TLM     -0.497100
     11 C9         -0.8370    0.9110    3.5900 c3        1 TLM     -0.039900
     12 O2         -2.4370    0.1580    1.1300 oh        1 TLM     -0.468100
     13 C10        -0.8420   -1.9820   -0.1870 c3        1 TLM     -0.080100
     14 C11         1.0620   -0.8210   -2.6670 c3        1 TLM     -0.070900
     15 H51        -1.3690    1.0760   -1.0180 ha        1 TLM      0.141000
     16 H71        -0.9940    1.9470   -3.1230 ha        1 TLM      0.124000
     17 H81        -0.3620    1.6440   -5.4860 ha        1 TLM      0.115500
     18 H82         0.5670    0.0930   -5.0830 ha        1 TLM      0.115500
     19 H91         0.0060    1.0750    4.3080 hc        1 TLM      0.051367
     20 H92        -1.3440    1.8930    3.4100 hc        1 TLM      0.051367
     21 H93        -1.5750    0.2140    4.0630 hc        1 TLM      0.051367
     22 HO2        -2.7770    0.5290    1.9620 ho        1 TLM      0.434000
     23 H101       -0.3360   -2.4070   -1.0880 hc        1 TLM      0.058367
     24 H102       -0.6000   -2.6180    0.6980 hc        1 TLM      0.058367
     25 H103       -1.9480   -1.9990   -0.3530 hc        1 TLM      0.058367
     26 H111        1.4840   -1.2870   -1.7410 hc        1 TLM      0.052367
     27 H112        0.6380   -1.6330   -3.3110 hc        1 TLM      0.052367
     28 H113        1.9030   -0.3350   -3.2210 hc        1 TLM      0.052367
@<TRIPOS>BOND
     1    1    2 1   
     2    1    5 1   
     3    2    3 1   
     4    2   10 2   
     5    3    4 2   
     6    3   11 1   
     7    4    5 1   
     8    4   12 1   
     9    5    6 1   
    10    5   13 1   
    11    6    7 2   
    12    6   15 1   
    13    7    8 1   
    14    7   14 1   
    15    8    9 2   
    16    8   16 1   
    17    9   17 1   
    18    9   18 1   
    19   11   19 1   
    20   11   20 1   
    21   11   21 1   
    22   12   22 1   
    23   13   23 1   
    24   13   24 1   
    25   13   25 1   
    26   14   26 1   
    27   14   27 1   
    28   14   28 1   
@<TRIPOS>SUBSTRUCTURE
     1 TLM         1 TEMP              0 ****  ****    0 ROOT
