@<TRIPOS>MOLECULE
TLM
   28    25     1     0     0
SMALL
bcc


@<TRIPOS>ATOM
      1 S1          0.4740    0.4160   -1.5480 ss        1 TLM      0.088000
      2 C1          2.2050    0.4160   -1.5480 c2        1 TLM      0.175000
      3 C2          2.5790    0.4160   -0.1230 c2        1 TLM     -0.294000
      4 C3          1.4080    0.5180    0.8390 c1        1 TLM      0.088000
      5 C4          0.0380    0.6780    0.1690 c2        1 TLM     -0.055000
      6 C5         -1.0290   -0.2580    0.6950 c2        1 TLM     -0.165000
      7 C6         -1.9460   -0.7750   -0.1470 c1        1 TLM     -0.040000
      8 C7         -3.0120   -1.7100    0.3790 c1        1 TLM     -0.169500
      9 C8         -2.8630   -3.0430    0.2490 c1        1 TLM     -0.169500
     10 O1          2.9460    0.3430   -2.5080 o         1 TLM     -0.258000
     11 C9          3.9500    0.8980    0.2990 c3        1 TLM     -0.161000
     12 O2          1.5030   -0.0470    2.1240 oh        1 TLM     -0.222000
     13 C10        -0.5640    2.0010    0.4100 c3        1 TLM     -0.198000
     14 C11        -1.9140   -0.4130   -1.6150 c3        1 TLM     -0.192000
     15 H51        -1.0510   -0.4900    1.6430 ha        1 TLM      0.142000
     16 H71        -3.8090   -1.3480    0.8120 ha        1 TLM      0.121500
     17 H81        -2.0660   -3.4050   -0.1840 DU        1 TLM      0.116000
     18 H82        -3.5510   -3.6470    0.5880 ha        1 TLM      0.121500
     19 H91         3.9150    1.8560    0.4830 hc        1 TLM      0.090667
     20 H92         4.5900    0.7270   -0.4170 hc        1 TLM      0.090667
     21 H93         4.2280    0.4210    1.1050 hc        1 TLM      0.090667
     22 HO2         1.7810    0.5700    2.6980 ho        1 TLM      0.233000
     23 H101       -0.6750    2.1380    1.3700 hc        1 TLM      0.097333
     24 H102        0.0200    2.6950    0.0470 hc        1 TLM      0.097333
     25 H103       -1.4350    2.0470   -0.0280 hc        1 TLM      0.097333
     26 H111       -1.8270    0.5550   -1.7100 hc        1 TLM      0.092000
     27 H112       -2.7410   -0.7080   -2.0410 hc        1 TLM      0.092000
     28 H113       -1.1540   -0.8510   -2.0420 hc        1 TLM      0.092000
@<TRIPOS>BOND
     1    1    2 1   
     2    1    5 1   
     3    2    3 1   
     4    2   10 1   
     5    3    4 1   
     6    3   11 1   
     7    4   12 1   
     8    5    6 1   
     9    5   13 1   
    10    6    7 1   
    11    6   15 1   
    12    7   14 1   
    13    8    9 1   
    14    8   16 1   
    15    9   18 1   
    16   11   19 1   
    17   11   20 1   
    18   11   21 1   
    19   12   22 1   
    20   13   23 1   
    21   13   24 1   
    22   13   25 1   
    23   14   26 1   
    24   14   27 1   
    25   14   28 1   
@<TRIPOS>SUBSTRUCTURE
     1 TLM         1 TEMP              0 ****  ****    0 ROOT
