@<TRIPOS>MOLECULE
TLM
   28    28     1     0     0
SMALL
bcc


@<TRIPOS>ATOM
      1 S1          0.1950   -0.1630   -0.0820 ss        1 TLM     -0.274700
      2 C1          1.9320   -0.2310    0.1090 c         1 TLM      0.614900
      3 C2          2.2470   -0.1250    1.5420 ce        1 TLM     -0.317400
      4 C3          1.1580   -0.0100    2.3460 c2        1 TLM      0.127900
      5 C4         -0.2050   -0.0230    1.6980 c3        1 TLM      0.133500
      6 C5         -0.9480    1.2300    1.9810 c2        1 TLM     -0.166200
      7 C6         -2.1090    1.6310    1.4270 ce        1 TLM     -0.043200
      8 C7         -2.7080    2.8860    1.8790 ce        1 TLM     -0.138000
      9 C8         -3.9530    3.2780    1.6030 c2        1 TLM     -0.200000
     10 O1          2.7500   -0.3450   -0.8020 o         1 TLM     -0.497100
     11 C9          3.6460   -0.1440    2.0000 c3        1 TLM     -0.039900
     12 O2          1.1540    0.1110    3.7020 oh        1 TLM     -0.468100
     13 C10        -0.9790   -1.2510    2.1350 c3        1 TLM     -0.080100
     14 C11        -2.8380    0.8850    0.3730 c3        1 TLM     -0.070900
     15 H51        -0.4710    1.8600    2.7560 ha        1 TLM      0.141000
     16 H71        -2.0500    3.5240    2.4970 ha        1 TLM      0.124000
     17 H81        -4.6520    2.6850    0.9990 ha        1 TLM      0.115500
     18 H82        -4.3530    4.2310    1.9740 ha        1 TLM      0.115500
     19 H91         3.9020    0.8070    2.5310 hc        1 TLM      0.051367
     20 H92         3.8210   -0.9990    2.7010 hc        1 TLM      0.051367
     21 H93         4.3380   -0.2570    1.1260 hc        1 TLM      0.051367
     22 HO2         2.0770    0.1000    4.0080 ho        1 TLM      0.434000
     23 H101       -1.9930   -1.2540    1.6660 hc        1 TLM      0.058367
     24 H102       -0.4390   -2.1820    1.8400 hc        1 TLM      0.058367
     25 H103       -1.0970   -1.2380    3.2470 hc        1 TLM      0.058367
     26 H111       -3.1770    1.5840   -0.4320 hc        1 TLM      0.052367
     27 H112       -2.1990    0.0980   -0.1010 hc        1 TLM      0.052367
     28 H113       -3.7410    0.3900    0.8130 hc        1 TLM      0.052367
@<TRIPOS>BOND
     1    1    2 1   
     2    1    5 1   
     3    2    3 1   
     4    2   10 2   
     5    3    4 2   
     6    3   11 1   
     7    4    5 1   
     8    4   12 1   
     9    5    6 1   
    10    5   13 1   
    11    6    7 2   
    12    6   15 1   
    13    7    8 1   
    14    7   14 1   
    15    8    9 2   
    16    8   16 1   
    17    9   17 1   
    18    9   18 1   
    19   11   19 1   
    20   11   20 1   
    21   11   21 1   
    22   12   22 1   
    23   13   23 1   
    24   13   24 1   
    25   13   25 1   
    26   14   26 1   
    27   14   27 1   
    28   14   28 1   
@<TRIPOS>SUBSTRUCTURE
     1 TLM         1 TEMP              0 ****  ****    0 ROOT
