@<TRIPOS>MOLECULE
TLN
   36    38     1     0     0
SMALL
bcc


@<TRIPOS>ATOM
      1 P           0.3920    0.3240   -4.2660 p5        1 TLN      1.435800
      2 OP1         0.9700    1.8370   -4.1040 oh        1 TLN     -0.784400
      3 OP2        -1.0860    0.3800   -4.2070 o         1 TLN     -0.845500
      4 OP3         1.1600   -0.4190   -5.2820 o         1 TLN     -0.845500
      5 O5'         0.8760   -0.1080   -2.7370 os        1 TLN     -0.587200
      6 C5'         0.0500   -0.9350   -1.9910 c3        1 TLN      0.238400
      7 C4'        -0.7020   -0.2000   -0.8920 c3        1 TLN      0.060800
      8 O4'        -0.7930   -1.0580    0.2770 os        1 TLN     -0.432600
      9 C1'        -1.2990   -0.2200    1.3750 c3        1 TLN      0.298500
     10 N1         -0.4550   -0.2760    2.5450 n         1 TLN     -0.320400
     11 C6          0.6530    0.5310    2.6460 c1        1 TLN     -0.081900
     12 C5          1.4770    0.4340    3.7560 ce        1 TLN     -0.498500
     13 C5M         2.6530    1.3100    3.8950 c3        1 TLN      0.043100
     14 C4          1.2260   -0.5260    4.8070 c         1 TLN      0.676300
     15 O4          1.9000   -0.7300    5.8500 o         1 TLN     -0.721100
     16 N3          0.0730   -1.3370    4.6490 n         1 TLN     -0.595500
     17 C2         -0.7790   -1.2380    3.5390 c         1 TLN      0.719100
     18 O2         -1.8030   -1.9760    3.5010 o         1 TLN     -0.710100
     19 C3'        -0.1860    1.1440   -0.2640 c3        1 TLN      0.123100
     20 C2'        -1.4050    1.2000    0.7170 c3        1 TLN      0.079100
     21 O2'        -2.5440    1.1230   -0.1720 os        1 TLN     -0.457600
     22 O3'        -0.0960    2.2460   -1.1190 oh        1 TLN     -0.585800
     23 C6'        -2.1770    0.1830   -1.2170 c3        1 TLN      0.069400
     24 H5'         0.6970   -1.7200   -1.5020 h1        1 TLN      0.033700
     25 H5''       -0.7080   -1.4310   -2.6620 h1        1 TLN      0.033700
     26 H1'        -2.3150   -0.6430    1.6230 h2        1 TLN      0.084700
     27 H6          0.9930    2.1320   -3.1970 ho        1 TLN      0.446000
     28 H71         3.5780    0.7080    4.0820 hc        1 TLN      0.001700
     29 H72         2.8000    1.9160    2.9680 hc        1 TLN      0.001700
     30 H73         2.5300    2.0110    4.7610 hc        1 TLN      0.001700
     31 H3         -0.1460   -2.0210    5.3330 hn        1 TLN      0.300500
     32 H3'         0.7960    1.0530    0.2680 h1        1 TLN      0.154700
     33 H2'        -1.5220    2.0680    1.3840 h1        1 TLN      0.105700
     34 HO3'       -0.9170    2.2910   -1.6280 ho        1 TLN      0.406000
     35 H6'1       -2.2900    0.6910   -2.2060 h1        1 TLN      0.076200
     36 H6'2       -2.8570   -0.6970   -1.1320 h1        1 TLN      0.076200
@<TRIPOS>BOND
     1    1    2 1   
     2    1    3 1   
     3    1    4 1   
     4    1    5 1   
     5    2   27 1   
     6    5    6 1   
     7    6    7 1   
     8    6   24 1   
     9    6   25 1   
    10    7    8 1   
    11    7   19 1   
    12    7   23 1   
    13    8    9 1   
    14    9   10 1   
    15    9   20 1   
    16    9   26 1   
    17   10   11 2   
    18   10   17 1   
    19   11   12 2   
    20   12   13 1   
    21   12   14 1   
    22   13   28 1   
    23   13   29 1   
    24   13   30 1   
    25   14   15 2   
    26   14   16 1   
    27   16   17 1   
    28   16   31 1   
    29   17   18 2   
    30   19   20 1   
    31   19   22 1   
    32   19   32 1   
    33   20   21 1   
    34   20   33 1   
    35   21   23 1   
    36   22   34 1   
    37   23   35 1   
    38   23   36 1   
@<TRIPOS>SUBSTRUCTURE
     1 TLN         1 TEMP              0 ****  ****    0 ROOT
