@<TRIPOS>MOLECULE
TLO
   49    51     1     0     0
SMALL
bcc


@<TRIPOS>ATOM
      1 N1          4.2680   -0.0800    0.1660 n         1 TLO     -0.374000
      2 C2          5.5190   -0.6660    0.4600 c         1 TLO      0.800500
      3 O2          6.5470    0.0130    0.7120 o         1 TLO     -0.699500
      4 N3          5.6320   -2.0650    0.4270 n         1 TLO     -0.596500
      5 C4          4.5460   -2.9160    0.1390 c         1 TLO      0.716700
      6 O4          4.7680   -4.1440    0.1390 o         1 TLO     -0.670500
      7 C5          3.2680   -2.2570   -0.1360 cc        1 TLO     -0.275400
      8 C6          3.1710   -0.8920   -0.0940 cd        1 TLO      0.066600
      9 PA         -1.3630    2.6290    0.7980 p5        1 TLO      1.604800
     10 PB         -1.3530   -0.1900   -0.8080 p5        1 TLO      1.619800
     11 CG         -3.2710   -1.5090    0.5350 ca        1 TLO      0.265100
     12 CZ         -5.9150   -2.2890    1.0870 ca        1 TLO     -0.211000
     13 C1'         4.1410    1.3790    0.3030 c3        1 TLO      0.301500
     14 O1A        -2.5940    2.8590    1.5660 o         1 TLO     -0.873500
     15 O1B         0.0820   -0.5510   -0.8710 o         1 TLO     -0.871500
     16 C2'         3.5410    2.0680   -0.9380 c3        1 TLO     -0.120400
     17 O2A        -0.7200    3.5820   -0.1350 o         1 TLO     -0.873500
     18 O2B        -2.2760   -0.2590   -1.9470 o         1 TLO     -0.871500
     19 C3'         2.1640    2.5760   -0.4980 c3        1 TLO      0.140100
     20 O3'         2.0710    3.9460   -0.8320 oh        1 TLO     -0.651800
     21 O3A        -1.4530    1.1940    0.0130 os        1 TLO     -0.825800
     22 O3B        -1.9710   -1.2250    0.3670 os        1 TLO     -0.503500
     23 C4'         2.1120    2.3680    1.0310 c3        1 TLO      0.070100
     24 O4'         3.3340    1.7130    1.4320 os        1 TLO     -0.429600
     25 C5'         0.9190    1.5180    1.5060 c3        1 TLO      0.172400
     26 O5'        -0.1550    2.3060    1.8910 os        1 TLO     -0.591200
     27 C5M         2.1030   -3.1080   -0.4480 c3        1 TLO     -0.042900
     28 CD1        -3.7780   -2.7350    0.0470 ca        1 TLO     -0.189500
     29 CD2        -4.1150   -0.6810    1.3130 ca        1 TLO     -0.189500
     30 CE1        -5.0880   -3.1100    0.3220 ca        1 TLO     -0.119000
     31 CE2        -5.4210   -1.0770    1.5720 ca        1 TLO     -0.119000
     32 HN3         6.5230   -2.4520    0.6400 hn        1 TLO      0.326500
     33 H6          2.1880   -0.3780   -0.2850 h4        1 TLO      0.262000
     34 HZ         -6.9490   -2.5900    1.3000 ha        1 TLO      0.093000
     35 H1'         5.1730    1.7770    0.5430 h2        1 TLO      0.094700
     36 H2'         4.1970    2.9250   -1.2320 hc        1 TLO      0.063700
     37 H2'A        3.4440    1.3810   -1.8110 hc        1 TLO      0.063700
     38 H3'         1.3510    1.9950   -1.0140 h1        1 TLO      0.093700
     39 HO3'        1.1290    4.1860   -0.7370 ho        1 TLO      0.479000
     40 H4'         2.1150    3.3580    1.5620 h1        1 TLO      0.078700
     41 H5'         0.6090    0.7930    0.6980 h1        1 TLO      0.049700
     42 H5'A        1.2540    0.9390    2.4130 h1        1 TLO      0.049700
     43 H5M         2.3330   -3.7680   -1.3210 hc        1 TLO      0.059367
     44 H5MA        1.8620   -3.7630    0.4260 hc        1 TLO      0.059367
     45 H5MB        1.2070   -2.4720   -0.6880 hc        1 TLO      0.059367
     46 HD1        -3.1250   -3.3760   -0.5600 ha        1 TLO      0.153500
     47 HD2        -3.7370    0.2830    1.6930 ha        1 TLO      0.153500
     48 HE1        -5.4730   -4.0620   -0.0700 ha        1 TLO      0.100000
     49 HE2        -6.0730   -0.4230    2.1690 ha        1 TLO      0.100000
@<TRIPOS>BOND
     1    1    2 1   
     2    1    8 1   
     3    1   13 1   
     4    2    3 2   
     5    2    4 1   
     6    4    5 1   
     7    4   32 1   
     8    5    6 2   
     9    5    7 1   
    10    7    8 2   
    11    7   27 1   
    12    8   33 1   
    13    9   14 1   
    14    9   17 1   
    15    9   21 1   
    16    9   26 1   
    17   10   15 1   
    18   10   18 1   
    19   10   21 1   
    20   10   22 1   
    21   11   22 1   
    22   11   28 ar  
    23   11   29 ar  
    24   12   30 ar  
    25   12   31 ar  
    26   12   34 1   
    27   13   16 1   
    28   13   24 1   
    29   13   35 1   
    30   16   19 1   
    31   16   36 1   
    32   16   37 1   
    33   19   20 1   
    34   19   23 1   
    35   19   38 1   
    36   20   39 1   
    37   23   24 1   
    38   23   25 1   
    39   23   40 1   
    40   25   26 1   
    41   25   41 1   
    42   25   42 1   
    43   27   43 1   
    44   27   44 1   
    45   27   45 1   
    46   28   30 ar  
    47   28   46 1   
    48   29   31 ar  
    49   29   47 1   
    50   30   48 1   
    51   31   49 1   
@<TRIPOS>SUBSTRUCTURE
     1 TLO         1 TEMP              0 ****  ****    0 ROOT
