@<TRIPOS>MOLECULE
TLO
   49    51     1     0     0
SMALL
bcc


@<TRIPOS>ATOM
      1 N1          0.2120   -0.2060   -0.7160 n         1 TLO     -0.374000
      2 C2          0.0440    0.4930    0.5000 c         1 TLO      0.800500
      3 O2         -0.2760    1.7080    0.5480 o         1 TLO     -0.699500
      4 N3          0.2860   -0.1850    1.7050 ns        1 TLO     -0.596500
      5 C4          0.6650   -1.5400    1.7610 c         1 TLO      0.716700
      6 O4          0.8520   -2.0340    2.8910 o         1 TLO     -0.670500
      7 C5          0.8030   -2.2230    0.4730 cc        1 TLO     -0.275400
      8 C6          0.5570   -1.5520   -0.6940 cd        1 TLO      0.066600
      9 PA         -0.9740   -3.4290   -5.9740 p5        1 TLO      1.604800
     10 PB          1.0310   -4.8840   -3.8800 p5        1 TLO      1.619800
     11 CG         -0.1570   -7.2870   -3.6750 ca        1 TLO      0.265100
     12 CZ         -0.6610   -9.9490   -4.4260 ca        1 TLO     -0.211000
     13 C1'        -0.1430    0.4850   -1.9650 c3        1 TLO      0.301500
     14 O1A        -1.8030   -4.3710   -6.7400 o         1 TLO     -0.873500
     15 O1B         1.1870   -3.8870   -2.7950 o         1 TLO     -0.871500
     16 C2'         0.9650    0.4400   -3.0350 c3        1 TLO     -0.120400
     17 O2A        -0.1740   -2.3140   -6.5290 o         1 TLO     -0.873500
     18 O2B         2.1400   -5.6230   -4.4930 o         1 TLO     -0.871500
     19 C3'         0.4160   -0.4500   -4.1550 c3        1 TLO      0.140100
     20 O3'         0.5400    0.2490   -5.3760 oh        1 TLO     -0.651800
     21 O3A         0.0120   -4.2510   -4.9570 os        1 TLO     -0.825800
     22 O3B         0.0040   -6.0390   -3.2100 os        1 TLO     -0.503500
     23 C4'        -1.0670   -0.6980   -3.8000 c3        1 TLO      0.070100
     24 O4'        -1.3310   -0.0670   -2.5290 os        1 TLO     -0.429600
     25 C5'        -1.4440   -2.1870   -3.6990 c3        1 TLO      0.172400
     26 O5'        -1.9730   -2.6670   -4.8880 os        1 TLO     -0.591200
     27 C5M         1.2040   -3.6440    0.4820 c3        1 TLO     -0.042900
     28 CD1         0.4920   -8.3570   -3.0190 ca        1 TLO     -0.189500
     29 CD2        -1.0720   -7.5770   -4.7150 ca        1 TLO     -0.189500
     30 CE1         0.2390   -9.6690   -3.4000 ca        1 TLO     -0.119000
     31 CE2        -1.3070   -8.8970   -5.0790 ca        1 TLO     -0.119000
     32 HN3         0.1590    0.3310    2.5460 hn        1 TLO      0.326500
     33 H6          0.6410   -2.0740   -1.6880 h4        1 TLO      0.262000
     34 HZ         -0.8570  -10.9870   -4.7240 ha        1 TLO      0.093000
     35 H1'        -0.4090    1.5500   -1.6850 h2        1 TLO      0.094700
     36 H2'         1.1480    1.4760   -3.4150 hc        1 TLO      0.063700
     37 H2'A        1.9270    0.0310   -2.6460 hc        1 TLO      0.063700
     38 H3'         0.9880   -1.4170   -4.2000 h1        1 TLO      0.093700
     39 HO3'        0.3840   -0.4070   -6.0830 ho        1 TLO      0.479000
     40 H4'        -1.7380   -0.1800   -4.5380 h1        1 TLO      0.078700
     41 H5'        -2.2460   -2.2820   -2.9120 h1        1 TLO      0.049700
     42 H5'A       -0.5480   -2.7980   -3.3890 h1        1 TLO      0.049700
     43 H5M         2.1710   -3.7660    1.0300 hc        1 TLO      0.059367
     44 H5MA        1.3210   -4.0240   -0.5700 hc        1 TLO      0.059367
     45 H5MB        0.4300   -4.2570    1.0070 hc        1 TLO      0.059367
     46 HD1         1.2060   -8.1330   -2.2150 ha        1 TLO      0.153500
     47 HD2        -1.5790   -6.7520   -5.2440 ha        1 TLO      0.153500
     48 HE1         0.7560  -10.4930   -2.8880 ha        1 TLO      0.100000
     49 HE2        -2.0120   -9.1130   -5.8950 ha        1 TLO      0.100000
@<TRIPOS>BOND
     1    1    2 1   
     2    1    8 1   
     3    1   13 1   
     4    2    3 2   
     5    2    4 1   
     6    4    5 1   
     7    4   32 1   
     8    5    6 2   
     9    5    7 1   
    10    7    8 2   
    11    7   27 1   
    12    8   33 1   
    13    9   14 1   
    14    9   17 1   
    15    9   21 1   
    16    9   26 1   
    17   10   15 1   
    18   10   18 1   
    19   10   21 1   
    20   10   22 1   
    21   11   22 1   
    22   11   28 ar  
    23   11   29 ar  
    24   12   30 ar  
    25   12   31 ar  
    26   12   34 1   
    27   13   16 1   
    28   13   24 1   
    29   13   35 1   
    30   16   19 1   
    31   16   36 1   
    32   16   37 1   
    33   19   20 1   
    34   19   23 1   
    35   19   38 1   
    36   20   39 1   
    37   23   24 1   
    38   23   25 1   
    39   23   40 1   
    40   25   26 1   
    41   25   41 1   
    42   25   42 1   
    43   27   43 1   
    44   27   44 1   
    45   27   45 1   
    46   28   30 ar  
    47   28   46 1   
    48   29   31 ar  
    49   29   47 1   
    50   30   48 1   
    51   31   49 1   
@<TRIPOS>SUBSTRUCTURE
     1 TLO         1 TEMP              0 ****  ****    0 ROOT
