@<TRIPOS>MOLECULE
TLO
   49    51     1     0     0
SMALL
bcc


@<TRIPOS>ATOM
      1 N1          0.1620   -0.2050   -0.7150 n         1 TLO     -0.374000
      2 C2         -0.0250    0.4930    0.4990 c         1 TLO      0.800500
      3 O2         -0.3570    1.7040    0.5450 o         1 TLO     -0.699500
      4 N3          0.2140   -0.1830    1.7070 n         1 TLO     -0.596500
      5 C4          0.6060   -1.5350    1.7660 c         1 TLO      0.716700
      6 O4          0.7880   -2.0270    2.8980 o         1 TLO     -0.670500
      7 C5          0.7630   -2.2160    0.4800 cc        1 TLO     -0.275400
      8 C6          0.5210   -1.5470   -0.6900 cd        1 TLO      0.066600
      9 PA         -0.9430   -3.4390   -5.9840 p5        1 TLO      1.604800
     10 PB          1.0570   -4.8740   -3.8700 p5        1 TLO      1.619800
     11 CG         -0.1090   -7.2880   -3.6770 ca        1 TLO      0.265100
     12 CZ         -0.5800   -9.9550   -4.4320 ca        1 TLO     -0.211000
     13 C1'        -0.1880    0.4830   -1.9660 c3        1 TLO      0.301500
     14 O1A        -1.7550   -4.3890   -6.7570 o         1 TLO     -0.873500
     15 O1B         1.1930   -3.8750   -2.7850 o         1 TLO     -0.871500
     16 C2'         0.9300    0.4490   -3.0260 c3        1 TLO     -0.120400
     17 O2A        -0.1490   -2.3160   -6.5320 o         1 TLO     -0.873500
     18 O2B         2.1790   -5.6020   -4.4740 o         1 TLO     -0.871500
     19 C3'         0.4000   -0.4460   -4.1520 c3        1 TLO      0.140100
     20 O3'         0.5290    0.2540   -5.3720 oh        1 TLO     -0.651800
     21 O3A         0.0420   -4.2510   -4.9570 os        1 TLO     -0.825800
     22 O3B         0.0360   -6.0390   -3.2100 os        1 TLO     -0.503500
     23 C4'        -1.0830   -0.7090   -3.8110 c3        1 TLO      0.070100
     24 O4'        -1.3650   -0.0800   -2.5420 os        1 TLO     -0.429600
     25 C5'        -1.4470   -2.2010   -3.7130 c3        1 TLO      0.172400
     26 O5'        -1.9590   -2.6870   -4.9070 os        1 TLO     -0.591200
     27 C5M         1.1780   -3.6320    0.4920 c3        1 TLO     -0.042900
     28 CD1         0.5450   -8.3520   -3.0140 ca        1 TLO     -0.189500
     29 CD2        -1.0110   -7.5880   -4.7250 ca        1 TLO     -0.189500
     30 CE1         0.3080   -9.6670   -3.3970 ca        1 TLO     -0.119000
     31 CE2        -1.2300   -8.9100   -5.0910 ca        1 TLO     -0.119000
     32 HN3         0.0730    0.3310    2.5460 hn        1 TLO      0.326500
     33 H6          0.6200   -2.0680   -1.6830 h4        1 TLO      0.262000
     34 HZ         -0.7630  -10.9950   -4.7310 ha        1 TLO      0.093000
     35 H1'        -0.4680    1.5450   -1.6900 h2        1 TLO      0.094700
     36 H2'         1.1060    1.4860   -3.4050 hc        1 TLO      0.063700
     37 H2'A        1.8930    0.0500   -2.6280 hc        1 TLO      0.063700
     38 H3'         0.9830   -1.4070   -4.1910 h1        1 TLO      0.093700
     39 HO3'        0.3860   -0.4040   -6.0800 ho        1 TLO      0.479000
     40 H4'        -1.7520   -0.1980   -4.5550 h1        1 TLO      0.078700
     41 H5'        -2.2550   -2.3040   -2.9330 h1        1 TLO      0.049700
     42 H5'A       -0.5470   -2.8040   -3.3940 h1        1 TLO      0.049700
     43 H5M         2.1410   -3.7440    1.0490 hc        1 TLO      0.059367
     44 H5MA        1.3080   -4.0110   -0.5580 hc        1 TLO      0.059367
     45 H5MB        0.4050   -4.2530    1.0100 hc        1 TLO      0.059367
     46 HD1         1.2490   -8.1210   -2.2040 ha        1 TLO      0.153500
     47 HD2        -1.5220   -6.7680   -5.2580 ha        1 TLO      0.153500
     48 HE1         0.8290  -10.4850   -2.8800 ha        1 TLO      0.100000
     49 HE2        -1.9250   -9.1320   -5.9130 ha        1 TLO      0.100000
@<TRIPOS>BOND
     1    1    2 1   
     2    1    8 1   
     3    1   13 1   
     4    2    3 2   
     5    2    4 1   
     6    4    5 1   
     7    4   32 1   
     8    5    6 2   
     9    5    7 1   
    10    7    8 2   
    11    7   27 1   
    12    8   33 1   
    13    9   14 1   
    14    9   17 1   
    15    9   21 1   
    16    9   26 1   
    17   10   15 1   
    18   10   18 1   
    19   10   21 1   
    20   10   22 1   
    21   11   22 1   
    22   11   28 ar  
    23   11   29 ar  
    24   12   30 ar  
    25   12   31 ar  
    26   12   34 1   
    27   13   16 1   
    28   13   24 1   
    29   13   35 1   
    30   16   19 1   
    31   16   36 1   
    32   16   37 1   
    33   19   20 1   
    34   19   23 1   
    35   19   38 1   
    36   20   39 1   
    37   23   24 1   
    38   23   25 1   
    39   23   40 1   
    40   25   26 1   
    41   25   41 1   
    42   25   42 1   
    43   27   43 1   
    44   27   44 1   
    45   27   45 1   
    46   28   30 ar  
    47   28   46 1   
    48   29   31 ar  
    49   29   47 1   
    50   30   48 1   
    51   31   49 1   
@<TRIPOS>SUBSTRUCTURE
     1 TLO         1 TEMP              0 ****  ****    0 ROOT
