@<TRIPOS>MOLECULE
TLO
   49    51     1     0     0
SMALL
bcc


@<TRIPOS>ATOM
      1 N1          0.2530   -0.2080   -0.7170 n         1 TLO     -0.374000
      2 C2          0.1020    0.4920    0.5000 c         1 TLO      0.800500
      3 O2         -0.2090    1.7090    0.5520 o         1 TLO     -0.699500
      4 N3          0.3540   -0.1880    1.7030 n         1 TLO     -0.596500
      5 C4          0.7250   -1.5460    1.7540 c         1 TLO      0.716700
      6 O4          0.9220   -2.0410    2.8830 o         1 TLO     -0.670500
      7 C5          0.8450   -2.2290    0.4650 cc        1 TLO     -0.275400
      8 C6          0.5900   -1.5560   -0.7000 cd        1 TLO      0.066600
      9 PA         -1.0100   -3.4220   -5.9630 p5        1 TLO      1.604800
     10 PB          1.0080   -4.8900   -3.8900 p5        1 TLO      1.619800
     11 CG         -0.1930   -7.2860   -3.6750 ca        1 TLO      0.265100
     12 CZ         -0.7220   -9.9440   -4.4220 ca        1 TLO     -0.211000
     13 C1'        -0.1110    0.4860   -1.9620 c3        1 TLO      0.301500
     14 O1A        -1.8520   -4.3590   -6.7210 o         1 TLO     -0.873500
     15 O1B         1.1820   -3.8950   -2.8080 o         1 TLO     -0.871500
     16 C2'         0.9850    0.4340   -3.0440 c3        1 TLO     -0.120400
     17 O2A        -0.2090   -2.3120   -6.5270 o         1 TLO     -0.873500
     18 O2B         2.1070   -5.6360   -4.5160 o         1 TLO     -0.871500
     19 C3'         0.4180   -0.4520   -4.1580 c3        1 TLO      0.140100
     20 O3'         0.5340    0.2460   -5.3810 oh        1 TLO     -0.651800
     21 O3A        -0.0180   -4.2500   -4.9560 os        1 TLO     -0.825800
     22 O3B        -0.0180   -6.0400   -3.2100 os        1 TLO     -0.503500
     23 C4'        -1.0620   -0.6910   -3.7880 c3        1 TLO      0.070100
     24 O4'        -1.3090   -0.0590   -2.5140 os        1 TLO     -0.429600
     25 C5'        -1.4480   -2.1770   -3.6830 c3        1 TLO      0.172400
     26 O5'        -1.9920   -2.6540   -4.8670 os        1 TLO     -0.591200
     27 C5M         1.2360   -3.6520    0.4690 c3        1 TLO     -0.042900
     28 CD1         0.4580   -8.3610   -3.0260 ca        1 TLO     -0.189500
     29 CD2        -1.1210   -7.5700   -4.7050 ca        1 TLO     -0.189500
     30 CE1         0.1920   -9.6710   -3.4060 ca        1 TLO     -0.119000
     31 CE2        -1.3680   -8.8880   -5.0670 ca        1 TLO     -0.119000
     32 HN3         0.2390    0.3280    2.5450 hn        1 TLO      0.326500
     33 H6          0.6600   -2.0790   -1.6940 h4        1 TLO      0.262000
     34 HZ         -0.9270  -10.9800   -4.7180 ha        1 TLO      0.093000
     35 H1'        -0.3680    1.5520   -1.6790 h2        1 TLO      0.094700
     36 H2'         1.1710    1.4680   -3.4260 hc        1 TLO      0.063700
     37 H2'A        1.9490    0.0190   -2.6650 hc        1 TLO      0.063700
     38 H3'         0.9840   -1.4230   -4.2100 h1        1 TLO      0.093700
     39 HO3'        0.3660   -0.4090   -6.0860 ho        1 TLO      0.479000
     40 H4'        -1.7380   -0.1690   -4.5180 h1        1 TLO      0.078700
     41 H5'        -0.5520   -2.7950   -3.3820 h1        1 TLO      0.049700
     42 H5'A       -2.2420   -2.2680   -2.8880 h1        1 TLO      0.049700
     43 H5M         0.4650   -4.2600    1.0040 hc        1 TLO      0.059367
     44 H5MA        1.3390   -4.0330   -0.5840 hc        1 TLO      0.059367
     45 H5MB        2.2090   -3.7800    1.0060 hc        1 TLO      0.059367
     46 HD1         1.1820   -8.1420   -2.2310 ha        1 TLO      0.153500
     47 HD2        -1.6290   -6.7410   -5.2260 ha        1 TLO      0.153500
     48 HE1         0.7100  -10.4980   -2.9000 ha        1 TLO      0.100000
     49 HE2        -2.0840   -9.0980   -5.8750 ha        1 TLO      0.100000
@<TRIPOS>BOND
     1    1    2 1   
     2    1    8 1   
     3    1   13 1   
     4    2    3 2   
     5    2    4 1   
     6    4    5 1   
     7    4   32 1   
     8    5    6 2   
     9    5    7 1   
    10    7    8 2   
    11    7   27 1   
    12    8   33 1   
    13    9   14 1   
    14    9   17 1   
    15    9   21 1   
    16    9   26 1   
    17   10   15 1   
    18   10   18 1   
    19   10   21 1   
    20   10   22 1   
    21   11   22 1   
    22   11   28 ar  
    23   11   29 ar  
    24   12   30 ar  
    25   12   31 ar  
    26   12   34 1   
    27   13   16 1   
    28   13   24 1   
    29   13   35 1   
    30   16   19 1   
    31   16   36 1   
    32   16   37 1   
    33   19   20 1   
    34   19   23 1   
    35   19   38 1   
    36   20   39 1   
    37   23   24 1   
    38   23   25 1   
    39   23   40 1   
    40   25   26 1   
    41   25   41 1   
    42   25   42 1   
    43   27   43 1   
    44   27   44 1   
    45   27   45 1   
    46   28   30 ar  
    47   28   46 1   
    48   29   31 ar  
    49   29   47 1   
    50   30   48 1   
    51   31   49 1   
@<TRIPOS>SUBSTRUCTURE
     1 TLO         1 TEMP              0 ****  ****    0 ROOT
