@<TRIPOS>MOLECULE
TLP
   39    39     1     0     0
SMALL
bcc


@<TRIPOS>ATOM
      1 N1         -1.6640    0.4550    0.3490 n3        1 TLP     -0.808200
      2 C1         -2.7280    1.3280   -0.1320 c3        1 TLP      0.032500
      3 C2         -3.1620    2.3750    0.9270 c3        1 TLP      0.164100
      4 O1         -4.0020    3.3600    0.3350 oh        1 TLP     -0.664800
      5 C3         -1.9960    3.1420    1.5310 c3        1 TLP     -0.099100
      6 C4         -3.9800    0.5130   -0.5940 c         1 TLP      0.921600
      7 O2         -5.1280    0.9710   -0.2960 o         1 TLP     -0.857300
      8 O3         -3.8280   -0.5270   -1.2920 o         1 TLP     -0.857300
      9 N2          1.4270   -3.5660    0.5450 nb        1 TLP     -0.686000
     10 C5          0.0860   -3.6450    0.3370 ca        1 TLP      0.280600
     11 C6         -0.6250   -4.9420    0.5270 c3        1 TLP     -0.102400
     12 C7         -0.6720   -2.5150   -0.0660 ca        1 TLP      0.046800
     13 O4         -2.0130   -2.7350   -0.2510 oh        1 TLP     -0.545100
     14 C8         -0.0300   -1.2710   -0.2620 ca        1 TLP     -0.156300
     15 C9         -0.8400   -0.0920   -0.7210 c3        1 TLP      0.193100
     16 C10         1.3500   -1.1940   -0.0390 ca        1 TLP     -0.114600
     17 C11         2.0200   -2.3830    0.3600 ca        1 TLP      0.362200
     18 C12         2.1520    0.0770   -0.1970 c3        1 TLP      0.240700
     19 O5          3.4030   -0.0260    0.3490 os        1 TLP     -0.567200
     20 P1          4.7270    0.6390   -0.5770 p5        1 TLP      1.315900
     21 O6          4.8820    2.0110    0.0210 o         1 TLP     -0.931500
     22 O7          5.8210   -0.3460   -0.2710 o         1 TLP     -0.931500
     23 O8          4.1860    0.6110   -1.9840 o         1 TLP     -0.931500
     24 H1         -1.0710    0.9410    0.9970 hn        1 TLP      0.347800
     25 H2         -2.4000    1.9130   -1.0460 h1        1 TLP      0.020700
     26 H3         -3.7420    1.8480    1.7360 h1        1 TLP      0.032700
     27 H4         -4.7320    2.8830   -0.0910 ho        1 TLP      0.442000
     28 H5         -2.3620    4.1060    1.9610 hc        1 TLP      0.032033
     29 H6         -1.5200    2.5470    2.3460 hc        1 TLP      0.032033
     30 H7         -1.2300    3.3730    0.7540 hc        1 TLP      0.032033
     31 H9         -1.5220   -4.7800    1.1750 hc        1 TLP      0.017700
     32 H10        -0.9820   -5.3180   -0.4650 hc        1 TLP      0.017700
     33 H11         0.0240   -5.7210    0.9930 hc        1 TLP      0.017700
     34 H12        -2.4630   -1.8900   -0.4560 ho        1 TLP      0.478000
     35 H13        -1.5290   -0.4240   -1.5550 h1        1 TLP      0.054700
     36 H14        -0.1420    0.6830   -1.1560 h1        1 TLP      0.054700
     37 H15         3.1150   -2.3250    0.5350 h4        1 TLP      0.068100
     38 H16         2.2180    0.3270   -1.3020 h1        1 TLP      0.022700
     39 H17         1.5530    0.8860    0.3290 h1        1 TLP      0.022700
@<TRIPOS>BOND
     1    1    2 1   
     2    1   15 1   
     3    1   24 1   
     4    2    3 1   
     5    2    6 1   
     6    2   25 1   
     7    3    4 1   
     8    3    5 1   
     9    3   26 1   
    10    4   27 1   
    11    5   28 1   
    12    5   29 1   
    13    5   30 1   
    14    6    7 1   
    15    6    8 1   
    16    9   10 ar  
    17    9   17 ar  
    18   10   11 1   
    19   10   12 ar  
    20   11   31 1   
    21   11   32 1   
    22   11   33 1   
    23   12   13 1   
    24   12   14 ar  
    25   13   34 1   
    26   14   15 1   
    27   14   16 ar  
    28   15   35 1   
    29   15   36 1   
    30   16   17 ar  
    31   16   18 1   
    32   17   37 1   
    33   18   19 1   
    34   18   38 1   
    35   18   39 1   
    36   19   20 1   
    37   20   21 1   
    38   20   22 1   
    39   20   23 1   
@<TRIPOS>SUBSTRUCTURE
     1 TLP         1 TEMP              0 ****  ****    0 ROOT
