@<TRIPOS>MOLECULE
TLP
   40    40     1     0     0
SMALL
bcc


@<TRIPOS>ATOM
      1 N1          0.1610   -0.0110    0.1370 n3        1 TLP     -0.792200
      2 C1          1.5800    0.2930   -0.0250 c3        1 TLP      0.003500
      3 C2          2.1600    0.9700    1.2440 c3        1 TLP      0.175100
      4 O1          3.5790    0.8850    1.2500 oh        1 TLP     -0.657800
      5 C3          1.6950    0.3210    2.5360 c3        1 TLP     -0.079100
      6 C4          1.9300    1.1890   -1.2510 c         1 TLP      0.889600
      7 O2          3.1520    1.4520   -1.4530 o         1 TLP     -0.848300
      8 O3          1.0020    1.6160   -1.9990 o         1 TLP     -0.848300
      9 N2         -4.6530   -0.9330   -1.2600 nb        1 TLP     -0.672000
     10 C5         -3.9250    0.1340   -1.6600 ca        1 TLP      0.330600
     11 C6         -4.5990    1.3350   -2.2330 c3        1 TLP     -0.118400
     12 C7         -2.5050    0.1590   -1.5400 ca        1 TLP      0.030800
     13 O4         -1.9030    1.3110   -1.9660 oh        1 TLP     -0.532100
     14 C8         -1.8260   -0.9520   -0.9940 ca        1 TLP     -0.130300
     15 C9         -0.3290   -0.9330   -0.8810 c3        1 TLP      0.192100
     16 C10        -2.5940   -2.0540   -0.5910 ca        1 TLP     -0.136600
     17 C11        -3.9970   -1.9840   -0.7480 ca        1 TLP      0.364200
     18 C12        -1.9700   -3.2790    0.0070 c3        1 TLP      0.217700
     19 O5         -2.9340   -4.2030    0.4100 os        1 TLP     -0.577200
     20 P1         -2.6260   -5.8010    0.1210 p5        1 TLP      1.429800
     21 O6         -1.5210   -6.0420    1.3040 oh        1 TLP     -0.784400
     22 O7         -3.8640   -6.5490    0.3990 o         1 TLP     -0.838000
     23 O8         -1.7870   -5.8940   -1.0950 o         1 TLP     -0.838000
     24 H1         -0.3540    0.8520    0.0780 hn        1 TLP      0.350800
     25 H2          2.1320   -0.6820   -0.1650 h1        1 TLP      0.060700
     26 H3          1.8690    2.0590    1.2370 h1        1 TLP      0.016700
     27 H4          3.8870    1.1080    0.3550 ho        1 TLP      0.447000
     28 H5          2.3240    0.6790    3.3860 hc        1 TLP      0.029367
     29 H6          1.7880   -0.7890    2.4660 hc        1 TLP      0.029367
     30 H7          0.6290    0.5820    2.7330 hc        1 TLP      0.029367
     31 H9         -4.1050    1.6060   -3.2000 hc        1 TLP      0.034367
     32 H10        -5.6880    1.1670   -2.4130 hc        1 TLP      0.034367
     33 H11        -4.4760    2.1960   -1.5300 hc        1 TLP      0.034367
     34 H12        -0.9320    1.1880   -2.0180 ho        1 TLP      0.481000
     35 H13         0.0510   -1.9570   -0.6010 h1        1 TLP      0.051700
     36 H14         0.0920   -0.6940   -1.9060 h1        1 TLP      0.051700
     37 H15        -4.6200   -2.8410   -0.4260 h4        1 TLP      0.045100
     38 H16        -1.3750   -2.9520    0.9120 h1        1 TLP      0.049700
     39 H17        -1.2770   -3.7560   -0.7480 h1        1 TLP      0.049700
     40 H121       -0.6330   -5.9790    0.9710 ho        1 TLP      0.422000
@<TRIPOS>BOND
     1    1    2 1   
     2    1   15 1   
     3    1   24 1   
     4    2    3 1   
     5    2    6 1   
     6    2   25 1   
     7    3    4 1   
     8    3    5 1   
     9    3   26 1   
    10    4   27 1   
    11    5   28 1   
    12    5   29 1   
    13    5   30 1   
    14    6    7 1   
    15    6    8 1   
    16    9   10 ar  
    17    9   17 ar  
    18   10   11 1   
    19   10   12 ar  
    20   11   31 1   
    21   11   32 1   
    22   11   33 1   
    23   12   13 1   
    24   12   14 ar  
    25   13   34 1   
    26   14   15 1   
    27   14   16 ar  
    28   15   35 1   
    29   15   36 1   
    30   16   17 ar  
    31   16   18 1   
    32   17   37 1   
    33   18   19 1   
    34   18   38 1   
    35   18   39 1   
    36   19   20 1   
    37   20   21 1   
    38   20   22 1   
    39   20   23 1   
    40   21   40 1   
@<TRIPOS>SUBSTRUCTURE
     1 TLP         1 TEMP              0 ****  ****    0 ROOT
