@<TRIPOS>MOLECULE
TLP
   40    40     1     0     0
SMALL
bcc


@<TRIPOS>ATOM
      1 N1          0.1690   -0.0100    0.1150 n3        1 TLP     -0.792200
      2 C1          1.5880    0.2830   -0.0610 c3        1 TLP      0.003500
      3 C2          2.1810    0.9750    1.1940 c3        1 TLP      0.175100
      4 O1          3.5990    0.8820    1.1900 oh        1 TLP     -0.657800
      5 C3          1.7220    0.3460    2.4980 c3        1 TLP     -0.079100
      6 C4          1.9330    1.1610   -1.3020 c         1 TLP      0.889600
      7 O2          3.1550    1.4150   -1.5160 o         1 TLP     -0.848300
      8 O3          1.0020    1.5820   -2.0500 o         1 TLP     -0.848300
      9 N2         -4.6600   -0.9280   -1.2330 nb        1 TLP     -0.672000
     10 C5         -3.9290    0.1300   -1.6540 ca        1 TLP      0.330600
     11 C6         -4.6020    1.3250   -2.2410 c3        1 TLP     -0.118400
     12 C7         -2.5090    0.1480   -1.5460 ca        1 TLP      0.030800
     13 O4         -1.9040    1.2920   -1.9930 oh        1 TLP     -0.532100
     14 C8         -1.8310   -0.9570   -0.9880 ca        1 TLP     -0.130300
     15 C9         -0.3330   -0.9450   -0.8850 c3        1 TLP      0.192100
     16 C10        -2.6020   -2.0490   -0.5620 ca        1 TLP     -0.136600
     17 C11        -4.0060   -1.9740   -0.7110 ca        1 TLP      0.364200
     18 C12        -1.9790   -3.2680    0.0490 c3        1 TLP      0.217700
     19 O5         -2.9450   -4.1810    0.4740 os        1 TLP     -0.577200
     20 P1         -2.6480   -5.7850    0.2060 p5        1 TLP      1.429800
     21 O6         -1.5360   -6.0150    1.3850 oh        1 TLP     -0.784400
     22 O7         -3.8880   -6.5220    0.5040 o         1 TLP     -0.838000
     23 O8         -1.8190   -5.9000   -1.0150 o         1 TLP     -0.838000
     24 H1         -0.6500   -5.9610    1.0450 ho        1 TLP      0.422000
     25 H2          2.1340   -0.6960   -0.1920 h1        1 TLP      0.060700
     26 H3          1.8950    2.0650    1.1740 h1        1 TLP      0.016700
     27 H4          3.9020    1.0920    0.2910 ho        1 TLP      0.447000
     28 H5          2.3590    0.7120    3.3390 hc        1 TLP      0.029367
     29 H6          0.6590    0.6160    2.7000 hc        1 TLP      0.029367
     30 H7          1.8080   -0.7650    2.4430 hc        1 TLP      0.029367
     31 H9         -4.4660    2.1960   -1.5530 hc        1 TLP      0.034367
     32 H10        -4.1150    1.5770   -3.2160 hc        1 TLP      0.034367
     33 H11        -5.6930    1.1610   -2.4080 hc        1 TLP      0.034367
     34 H12        -0.9350    1.1630   -2.0490 ho        1 TLP      0.481000
     35 H13         0.0820   -0.7220   -1.9170 h1        1 TLP      0.051700
     36 H14         0.0430   -1.9660   -0.5930 h1        1 TLP      0.051700
     37 H15        -4.6300   -2.8230   -0.3710 h4        1 TLP      0.045100
     38 H16        -1.3770   -2.9310    0.9450 h1        1 TLP      0.049700
     39 H17        -1.2950   -3.7600   -0.7030 h1        1 TLP      0.049700
     40 H121       -0.3430    0.8550    0.0470 hn        1 TLP      0.350800
@<TRIPOS>BOND
     1    1    2 1   
     2    1   15 1   
     3    1   40 1   
     4    2    3 1   
     5    2    6 1   
     6    2   25 1   
     7    3    4 1   
     8    3    5 1   
     9    3   26 1   
    10    4   27 1   
    11    5   28 1   
    12    5   29 1   
    13    5   30 1   
    14    6    7 1   
    15    6    8 1   
    16    9   10 ar  
    17    9   17 ar  
    18   10   11 1   
    19   10   12 ar  
    20   11   31 1   
    21   11   32 1   
    22   11   33 1   
    23   12   13 1   
    24   12   14 ar  
    25   13   34 1   
    26   14   15 1   
    27   14   16 ar  
    28   15   35 1   
    29   15   36 1   
    30   16   17 ar  
    31   16   18 1   
    32   17   37 1   
    33   18   19 1   
    34   18   38 1   
    35   18   39 1   
    36   19   20 1   
    37   20   21 1   
    38   20   22 1   
    39   20   23 1   
    40   21   24 1   
@<TRIPOS>SUBSTRUCTURE
     1 TLP         1 TEMP              0 ****  ****    0 ROOT
