@<TRIPOS>MOLECULE
TLP
   40    40     1     0     0
SMALL
bcc


@<TRIPOS>ATOM
      1 N1          0.1530   -0.0080    0.1500 n7        1 TLP     -0.792200
      2 C1          1.5700    0.3070   -0.0020 c3        1 TLP      0.003500
      3 C2          2.1410    0.9720    1.2770 c3        1 TLP      0.175100
      4 O1          3.5610    0.8970    1.2870 oh        1 TLP     -0.657800
      5 C3          1.6760    0.3040    2.5590 c3        1 TLP     -0.079100
      6 C4          1.9180    1.2220   -1.2160 c         1 TLP      0.889600
      7 O2          3.1390    1.4960   -1.4100 o         1 TLP     -0.848300
      8 O3          0.9900    1.6510   -1.9620 o         1 TLP     -0.848300
      9 N2         -4.6490   -0.9480   -1.2750 nb        1 TLP     -0.672000
     10 C5         -3.9270    0.1280   -1.6610 ca        1 TLP      0.330600
     11 C6         -4.6080    1.3310   -2.2240 c3        1 TLP     -0.118400
     12 C7         -2.5080    0.1620   -1.5360 ca        1 TLP      0.030800
     13 O4         -1.9130    1.3230   -1.9470 oh        1 TLP     -0.532100
     14 C8         -1.8230   -0.9490   -0.9990 ca        1 TLP     -0.130300
     15 C9         -0.3270   -0.9220   -0.8790 c3        1 TLP      0.192100
     16 C10        -2.5850   -2.0610   -0.6100 ca        1 TLP     -0.136600
     17 C11        -3.9880   -2.0000   -0.7710 ca        1 TLP      0.364200
     18 C12        -1.9540   -3.2880   -0.0220 c3        1 TLP      0.217700
     19 O5         -2.9130   -4.2230    0.3680 os        1 TLP     -0.577200
     20 P1         -2.5930   -5.8160    0.0620 p5        1 TLP      1.429800
     21 O6         -1.4920   -6.0630    1.2470 oh        1 TLP     -0.784400
     22 O7         -3.8280   -6.5750    0.3280 o         1 TLP     -0.838000
     23 O8         -1.7500   -5.8890   -1.1520 o         1 TLP     -0.838000
     24 H1         -0.6030   -5.9900    0.9180 ho        1 TLP      0.422000
     25 H2          2.1290   -0.6610   -0.1530 h1        1 TLP      0.060700
     26 H3          1.8430    2.0600    1.2830 h1        1 TLP      0.016700
     27 H4          3.8700    1.1340    0.3970 ho        1 TLP      0.447000
     28 H5          0.6080    0.5550    2.7560 hc        1 TLP      0.029367
     29 H6          1.7770   -0.8040    2.4750 hc        1 TLP      0.029367
     30 H7          2.3000    0.6550    3.4160 hc        1 TLP      0.029367
     31 H9         -5.6960    1.1580   -2.4060 hc        1 TLP      0.034367
     32 H10        -4.4890    2.1860   -1.5140 hc        1 TLP      0.034367
     33 H11        -4.1150    1.6110   -3.1880 hc        1 TLP      0.034367
     34 H12        -0.9410    1.2080   -1.9950 ho        1 TLP      0.481000
     35 H13         0.0590   -1.9460   -0.6100 h1        1 TLP      0.051700
     36 H14         0.0970   -0.6670   -1.9000 h1        1 TLP      0.051700
     37 H15        -4.6060   -2.8640   -0.4600 h4        1 TLP      0.045100
     38 H16        -1.2550   -3.7530   -0.7800 h1        1 TLP      0.049700
     39 H17        -1.3650   -2.9670    0.8880 h1        1 TLP      0.049700
     40 H121       -0.3680    0.8520    0.1000 hn        1 TLP      0.350800
@<TRIPOS>BOND
     1    1    2 1   
     2    1   15 1   
     3    1   40 1   
     4    2    3 1   
     5    2    6 1   
     6    2   25 1   
     7    3    4 1   
     8    3    5 1   
     9    3   26 1   
    10    4   27 1   
    11    5   28 1   
    12    5   29 1   
    13    5   30 1   
    14    6    7 1   
    15    6    8 1   
    16    9   10 ar  
    17    9   17 ar  
    18   10   11 1   
    19   10   12 ar  
    20   11   31 1   
    21   11   32 1   
    22   11   33 1   
    23   12   13 1   
    24   12   14 ar  
    25   13   34 1   
    26   14   15 1   
    27   14   16 ar  
    28   15   35 1   
    29   15   36 1   
    30   16   17 ar  
    31   16   18 1   
    32   17   37 1   
    33   18   19 1   
    34   18   38 1   
    35   18   39 1   
    36   19   20 1   
    37   20   21 1   
    38   20   22 1   
    39   20   23 1   
    40   21   24 1   
@<TRIPOS>SUBSTRUCTURE
     1 TLP         1 TEMP              0 ****  ****    0 ROOT
