@<TRIPOS>MOLECULE
TLS
   68    73     1     0     0
SMALL
bcc


@<TRIPOS>ATOM
      1 C1         -0.4510   -0.0170   -0.1620 ca        1 TLS     -0.084200
      2 N2          0.9260   -0.2800   -0.1850 na        1 TLS     -0.152300
      3 C3         -0.8250    0.0180    1.2420 ca        1 TLS      0.086400
      4 C4         -1.3910    0.2040   -1.1740 ca        1 TLS     -0.081000
      5 C5          1.3280   -0.4240    1.1670 cc        1 TLS      0.458800
      6 C6          1.7380   -0.4470   -1.3610 c3        1 TLS      0.099600
      7 N7          0.3050   -0.2360    2.0340 nd        1 TLS     -0.591100
      8 C8         -2.1600    0.2840    1.6010 ca        1 TLS     -0.029300
      9 C9         -2.7050    0.4480   -0.7800 ca        1 TLS     -0.124900
     10 C10         2.7380   -0.7370    1.5580 c3        1 TLS     -0.111700
     11 C11         2.2790   -1.8270   -1.5850 ca        1 TLS     -0.152300
     12 C12        -3.0790    0.4910    0.5790 ca        1 TLS     -0.147000
     13 C13        -2.5550    0.3370    3.0250 c3        1 TLS     -0.044800
     14 C14        -3.7190    0.6820   -1.8160 cc        1 TLS      0.490400
     15 C15         3.5520    0.5320    1.7170 c3        1 TLS     -0.074400
     16 C16         1.4270   -2.9270   -1.6990 ca        1 TLS     -0.125000
     17 C17         3.6610   -2.0120   -1.7080 ca        1 TLS     -0.125000
     18 N18        -4.9710    0.0050   -1.8180 na        1 TLS     -0.165300
     19 N19        -3.5900    1.5360   -2.8570 nd        1 TLS     -0.567100
     20 C20         4.9700    0.2090    2.1160 c3        1 TLS     -0.098100
     21 C21         1.9510   -4.1970   -1.9270 ca        1 TLS     -0.117500
     22 C22         4.1870   -3.2780   -1.9440 ca        1 TLS     -0.117500
     23 C23        -5.6660    0.4680   -2.9420 ca        1 TLS     -0.074200
     24 C24        -5.4180   -0.9970   -0.9120 c3        1 TLS      0.030600
     25 C25        -4.7880    1.4320   -3.5860 ca        1 TLS      0.070400
     26 C26         3.3360   -4.3890   -2.0510 cp        1 TLS      0.014000
     27 C27        -6.9290    0.1710   -3.4670 ca        1 TLS     -0.134000
     28 C28        -5.2180    2.0780   -4.7530 ca        1 TLS     -0.073000
     29 C29         3.8700   -5.7280   -2.3060 cp        1 TLS     -0.052000
     30 C30        -7.3120    0.8330   -4.6250 ca        1 TLS     -0.122000
     31 C31        -6.4730    1.7690   -5.2540 ca        1 TLS     -0.159000
     32 C32         5.0020   -6.2300   -1.6450 ca        1 TLS     -0.072600
     33 C33         3.2090   -6.5340   -3.2510 ca        1 TLS     -0.131000
     34 C34         5.4440   -7.5270   -1.9410 ca        1 TLS     -0.122000
     35 C35         5.7960   -5.4490   -0.6010 c         1 TLS      0.908200
     36 C36         3.6630   -7.8150   -3.5390 ca        1 TLS     -0.170000
     37 C37         4.7860   -8.3160   -2.8780 ca        1 TLS     -0.139000
     38 O38         5.5190   -5.6390    0.6130 o         1 TLS     -0.821300
     39 O39         6.7090   -4.6790   -1.0160 o         1 TLS     -0.821300
     40 H4         -1.1090    0.1890   -2.2360 ha        1 TLS      0.153000
     41 H6          1.1110   -0.1520   -2.2530 h1        1 TLS      0.059700
     42 H6A         2.5990    0.2830   -1.2800 h1        1 TLS      0.059700
     43 H10         2.7300   -1.3090    2.5250 hc        1 TLS      0.089200
     44 H10A        3.2090   -1.4020    0.7790 hc        1 TLS      0.089200
     45 H12        -4.1270    0.7100    0.8360 ha        1 TLS      0.129000
     46 H13        -2.3210   -0.6370    3.5250 hc        1 TLS      0.046033
     47 H13A       -3.6460    0.5460    3.1380 hc        1 TLS      0.046033
     48 H13B       -1.9800    1.1390    3.5520 hc        1 TLS      0.046033
     49 H15         3.5520    1.1030    0.7510 hc        1 TLS      0.038200
     50 H15A        3.0770    1.1890    2.4920 hc        1 TLS      0.038200
     51 H16         0.3400   -2.7940   -1.5970 ha        1 TLS      0.122500
     52 H17         4.3440   -1.1550   -1.6100 ha        1 TLS      0.122500
     53 H20         4.9910   -0.3240    3.0970 hc        1 TLS      0.040367
     54 H20A        5.4560   -0.4480    1.3540 hc        1 TLS      0.040367
     55 H20B        5.5670    1.1480    2.2100 hc        1 TLS      0.040367
     56 H21         1.2740   -5.0620   -1.9940 ha        1 TLS      0.167000
     57 H22         5.2850   -3.4270   -2.0060 ha        1 TLS      0.167000
     58 H24        -6.1210   -0.5520   -0.1560 h1        1 TLS      0.053033
     59 H24A       -4.5370   -1.4400   -0.3740 h1        1 TLS      0.053033
     60 H24B       -5.9580   -1.8050   -1.4750 h1        1 TLS      0.053033
     61 H27        -7.5880   -0.5600   -2.9810 ha        1 TLS      0.131000
     62 H28        -4.5670    2.8100   -5.2520 ha        1 TLS      0.144000
     63 H30        -8.2990    0.6210   -5.0640 ha        1 TLS      0.125000
     64 H31        -6.8270    2.2650   -6.1700 ha        1 TLS      0.126000
     65 H33         2.3250   -6.1390   -3.7740 ha        1 TLS      0.111000
     66 H34         6.3280   -7.9140   -1.4110 ha        1 TLS      0.136000
     67 H36         3.1400   -8.4310   -4.2830 ha        1 TLS      0.106000
     68 H37         5.1470   -9.3300   -3.1000 ha        1 TLS      0.108000
@<TRIPOS>BOND
     1    1    2 1   
     2    1    3 ar  
     3    1    4 ar  
     4    2    5 1   
     5    2    6 1   
     6    3    7 1   
     7    3    8 ar  
     8    4    9 ar  
     9    4   40 1   
    10    5    7 2   
    11    5   10 1   
    12    6   11 1   
    13    6   41 1   
    14    6   42 1   
    15    8   12 ar  
    16    8   13 1   
    17    9   12 ar  
    18    9   14 1   
    19   10   15 1   
    20   10   43 1   
    21   10   44 1   
    22   11   16 ar  
    23   11   17 ar  
    24   12   45 1   
    25   13   46 1   
    26   13   47 1   
    27   13   48 1   
    28   14   18 1   
    29   14   19 2   
    30   15   20 1   
    31   15   49 1   
    32   15   50 1   
    33   16   21 ar  
    34   16   51 1   
    35   17   22 ar  
    36   17   52 1   
    37   18   23 1   
    38   18   24 1   
    39   19   25 1   
    40   20   53 1   
    41   20   54 1   
    42   20   55 1   
    43   21   26 ar  
    44   21   56 1   
    45   22   26 ar  
    46   22   57 1   
    47   23   25 ar  
    48   23   27 ar  
    49   24   58 1   
    50   24   59 1   
    51   24   60 1   
    52   25   28 ar  
    53   26   29 1   
    54   27   30 ar  
    55   27   61 1   
    56   28   31 ar  
    57   28   62 1   
    58   29   32 ar  
    59   29   33 ar  
    60   30   31 ar  
    61   30   63 1   
    62   31   64 1   
    63   32   34 ar  
    64   32   35 1   
    65   33   36 ar  
    66   33   65 1   
    67   34   37 ar  
    68   34   66 1   
    69   35   38 1   
    70   35   39 1   
    71   36   37 ar  
    72   36   67 1   
    73   37   68 1   
@<TRIPOS>SUBSTRUCTURE
     1 TLS         1 TEMP              0 ****  ****    0 ROOT
