@<TRIPOS>MOLECULE
TLS
   68    73     1     0     0
SMALL
bcc


@<TRIPOS>ATOM
      1 C1          1.4190   -1.6940   -0.1430 ca        1 TLS     -0.084200
      2 N2          0.1220   -1.9560   -0.6030 na        1 TLS     -0.152300
      3 C3          1.6450   -2.6180    0.9570 ca        1 TLS      0.086400
      4 C4          2.4080   -0.7940   -0.5550 ca        1 TLS     -0.081000
      5 C5         -0.3980   -2.9810    0.2290 cc        1 TLS      0.458800
      6 C6         -0.5610   -1.2590   -1.6600 c3        1 TLS      0.099600
      7 N7          0.4960   -3.3990    1.1550 nd        1 TLS     -0.591100
      8 C8          2.8840   -2.6150    1.6260 ca        1 TLS     -0.029300
      9 C9          3.6140   -0.8100    0.1420 ca        1 TLS     -0.124900
     10 C10        -1.7830   -3.5230    0.0670 c3        1 TLS     -0.111700
     11 C11        -1.7350   -0.4290   -1.2380 ca        1 TLS     -0.152300
     12 C12         3.8470   -1.7060    1.2070 ca        1 TLS     -0.147000
     13 C13         3.1350   -3.5570    2.7380 c3        1 TLS     -0.044800
     14 C14         4.6730    0.1240   -0.2610 cc        1 TLS      0.490400
     15 C15        -1.8040   -4.6700   -0.9250 c3        1 TLS     -0.074400
     16 C16        -1.5960    0.5940   -0.2970 ca        1 TLS     -0.125000
     17 C17        -2.9880   -0.6670   -1.8130 ca        1 TLS     -0.125000
     18 N18         5.3670    0.9360    0.6800 na        1 TLS     -0.165300
     19 N19         5.1000    0.3210   -1.5290 nd        1 TLS     -0.567100
     20 C20        -3.2010   -5.2150   -1.0790 c3        1 TLS     -0.098100
     21 C21        -2.6980    1.3650    0.0660 ca        1 TLS     -0.117500
     22 C22        -4.0890    0.1060   -1.4590 ca        1 TLS     -0.117500
     23 C23         6.2850    1.6930   -0.0570 ca        1 TLS     -0.074200
     24 C24         5.1380    1.0290    2.0810 c3        1 TLS      0.030600
     25 C25         6.1100    1.2960   -1.4440 ca        1 TLS      0.070400
     26 C26        -3.9570    1.1310   -0.5080 cp        1 TLS      0.014000
     27 C27         7.2310    2.6580    0.3090 ca        1 TLS     -0.134000
     28 C28         6.9070    1.8880   -2.4340 ca        1 TLS     -0.073000
     29 C29        -5.1020    1.9600   -0.1270 cp        1 TLS     -0.052000
     30 C30         7.9970    3.2200   -0.7030 ca        1 TLS     -0.122000
     31 C31         7.8380    2.8410   -2.0470 ca        1 TLS     -0.159000
     32 C32        -6.3740    1.4230    0.1260 ca        1 TLS     -0.072600
     33 C33        -4.9020    3.3480   -0.0110 ca        1 TLS     -0.131000
     34 C34        -7.4160    2.2870    0.4940 ca        1 TLS     -0.122000
     35 C35        -6.7060   -0.0630    0.0340 c         1 TLS      0.908200
     36 C36        -5.9460    4.1920    0.3480 ca        1 TLS     -0.170000
     37 C37        -7.2100    3.6580    0.6050 ca        1 TLS     -0.139000
     38 O38        -6.6680   -0.7430    1.0930 o         1 TLS     -0.821300
     39 O39        -7.0330   -0.5210   -1.1000 o         1 TLS     -0.821300
     40 H4          2.2440   -0.1020   -1.3930 ha        1 TLS      0.153000
     41 H6          0.1930   -0.5900   -2.1690 h1        1 TLS      0.059700
     42 H6A        -0.9030   -2.0360   -2.4080 h1        1 TLS      0.059700
     43 H10        -2.1560   -3.8760    1.0660 hc        1 TLS      0.089200
     44 H10A       -2.4740   -2.7030   -0.2790 hc        1 TLS      0.089200
     45 H12         4.8270   -1.6920    1.7090 ha        1 TLS      0.129000
     46 H13         3.0380   -4.6110    2.3760 hc        1 TLS      0.046033
     47 H13A        4.1570   -3.4190    3.1670 hc        1 TLS      0.046033
     48 H13B        2.3800   -3.4020    3.5500 hc        1 TLS      0.046033
     49 H15        -1.4250   -4.3150   -1.9190 hc        1 TLS      0.038200
     50 H15A       -1.1140   -5.4820   -0.5750 hc        1 TLS      0.038200
     51 H16        -0.6180    0.7850    0.1670 ha        1 TLS      0.122500
     52 H17        -3.1130   -1.4780   -2.5470 ha        1 TLS      0.122500
     53 H20        -3.9020   -4.4160   -1.4250 hc        1 TLS      0.040367
     54 H20A       -3.2110   -6.0450   -1.8260 hc        1 TLS      0.040367
     55 H20B       -3.5790   -5.6110   -0.1050 hc        1 TLS      0.040367
     56 H21        -2.5840    2.1550    0.8230 ha        1 TLS      0.167000
     57 H22        -5.0880   -0.1070   -1.8910 ha        1 TLS      0.167000
     58 H24         5.9090    0.4330    2.6420 h1        1 TLS      0.053033
     59 H24A        5.2050    2.1020    2.4070 h1        1 TLS      0.053033
     60 H24B        4.1180    0.6270    2.3260 h1        1 TLS      0.053033
     61 H27         7.3590    2.9590    1.3570 ha        1 TLS      0.131000
     62 H28         6.7880    1.5990   -3.4870 ha        1 TLS      0.144000
     63 H30         8.7480    3.9820   -0.4490 ha        1 TLS      0.125000
     64 H31         8.4710    3.3170   -2.8110 ha        1 TLS      0.126000
     65 H33        -3.9070    3.7700   -0.2160 ha        1 TLS      0.111000
     66 H34        -8.4070    1.8550    0.6990 ha        1 TLS      0.136000
     67 H36        -5.7770    5.2740    0.4300 ha        1 TLS      0.106000
     68 H37        -8.0380    4.3210    0.8920 ha        1 TLS      0.108000
@<TRIPOS>BOND
     1    1    2 1   
     2    1    3 ar  
     3    1    4 ar  
     4    2    5 1   
     5    2    6 1   
     6    3    7 1   
     7    3    8 ar  
     8    4    9 ar  
     9    4   40 1   
    10    5    7 2   
    11    5   10 1   
    12    6   11 1   
    13    6   41 1   
    14    6   42 1   
    15    8   12 ar  
    16    8   13 1   
    17    9   12 ar  
    18    9   14 1   
    19   10   15 1   
    20   10   43 1   
    21   10   44 1   
    22   11   16 ar  
    23   11   17 ar  
    24   12   45 1   
    25   13   46 1   
    26   13   47 1   
    27   13   48 1   
    28   14   18 1   
    29   14   19 2   
    30   15   20 1   
    31   15   49 1   
    32   15   50 1   
    33   16   21 ar  
    34   16   51 1   
    35   17   22 ar  
    36   17   52 1   
    37   18   23 1   
    38   18   24 1   
    39   19   25 1   
    40   20   53 1   
    41   20   54 1   
    42   20   55 1   
    43   21   26 ar  
    44   21   56 1   
    45   22   26 ar  
    46   22   57 1   
    47   23   25 ar  
    48   23   27 ar  
    49   24   58 1   
    50   24   59 1   
    51   24   60 1   
    52   25   28 ar  
    53   26   29 1   
    54   27   30 ar  
    55   27   61 1   
    56   28   31 ar  
    57   28   62 1   
    58   29   32 ar  
    59   29   33 ar  
    60   30   31 ar  
    61   30   63 1   
    62   31   64 1   
    63   32   34 ar  
    64   32   35 1   
    65   33   36 ar  
    66   33   65 1   
    67   34   37 ar  
    68   34   66 1   
    69   35   38 1   
    70   35   39 1   
    71   36   37 ar  
    72   36   67 1   
    73   37   68 1   
@<TRIPOS>SUBSTRUCTURE
     1 TLS         1 TEMP              0 ****  ****    0 ROOT
