@<TRIPOS>MOLECULE
TLS
   68    73     1     0     0
SMALL
bcc


@<TRIPOS>ATOM
      1 C1         -0.4500   -0.0180   -0.1590 ca        1 TLS     -0.084200
      2 N2          0.9260   -0.2780   -0.1860 na        1 TLS     -0.152300
      3 C3         -0.8210    0.0150    1.2470 ca        1 TLS      0.086400
      4 C4         -1.3940    0.2020   -1.1680 ca        1 TLS     -0.081000
      5 C5          1.3330   -0.4220    1.1660 cc        1 TLS      0.458800
      6 C6          1.7360   -0.4420   -1.3630 c3        1 TLS      0.099600
      7 N7          0.3110   -0.2380    2.0360 nd        1 TLS     -0.591100
      8 C8         -2.1560    0.2770    1.6090 ca        1 TLS     -0.029300
      9 C9         -2.7070    0.4420   -0.7710 ca        1 TLS     -0.124900
     10 C10         2.7440   -0.7320    1.5520 c3        1 TLS     -0.111700
     11 C11         2.2790   -1.8210   -1.5910 ca        1 TLS     -0.152300
     12 C12        -3.0780    0.4830    0.5900 ca        1 TLS     -0.147000
     13 C13        -2.5470    0.3270    3.0340 c3        1 TLS     -0.044800
     14 C14        -3.7250    0.6740   -1.8030 cc        1 TLS      0.490400
     15 C15         3.5560    0.5390    1.7110 c3        1 TLS     -0.074400
     16 C16         1.4270   -2.9220   -1.7040 ca        1 TLS     -0.125000
     17 C17         3.6600   -2.0040   -1.7160 ca        1 TLS     -0.125000
     18 N18        -4.9750   -0.0060   -1.8030 na        1 TLS     -0.165300
     19 N19        -3.6000    1.5290   -2.8440 nd        1 TLS     -0.567100
     20 C20         4.9750    0.2190    2.1060 c3        1 TLS     -0.098100
     21 C21         1.9530   -4.1910   -1.9350 ca        1 TLS     -0.117500
     22 C22         4.1880   -3.2700   -1.9550 ca        1 TLS     -0.117500
     23 C23        -5.6740    0.4560   -2.9250 ca        1 TLS     -0.074200
     24 C24        -5.4170   -1.0100   -0.8980 c3        1 TLS      0.030600
     25 C25        -4.8010    1.4230   -3.5700 ca        1 TLS      0.070400
     26 C26         3.3380   -4.3810   -2.0620 cp        1 TLS      0.014000
     27 C27        -6.9370    0.1560   -3.4480 ca        1 TLS     -0.134000
     28 C28        -5.2340    2.0690   -4.7360 ca        1 TLS     -0.073000
     29 C29         3.8730   -5.7200   -2.3200 cp        1 TLS     -0.052000
     30 C30        -7.3260    0.8180   -4.6030 ca        1 TLS     -0.122000
     31 C31        -6.4910    1.7570   -5.2340 ca        1 TLS     -0.159000
     32 C32         5.0070   -6.2200   -1.6620 ca        1 TLS     -0.072600
     33 C33         3.2110   -6.5240   -3.2650 ca        1 TLS     -0.131000
     34 C34         5.4500   -7.5170   -1.9610 ca        1 TLS     -0.122000
     35 C35         5.8020   -5.4410   -0.6180 c         1 TLS      0.908200
     36 C36         3.6660   -7.8050   -3.5560 ca        1 TLS     -0.170000
     37 C37         4.7910   -8.3050   -2.8980 ca        1 TLS     -0.139000
     38 O38         5.5280   -5.6330    0.5960 o         1 TLS     -0.821300
     39 O39         6.7140   -4.6680   -1.0340 o         1 TLS     -0.821300
     40 H4         -1.1150    0.1880   -2.2310 ha        1 TLS      0.153000
     41 H6          1.1070   -0.1470   -2.2530 h1        1 TLS      0.059700
     42 H6A         2.5960    0.2880   -1.2830 h1        1 TLS      0.059700
     43 H10         2.7400   -1.3050    2.5190 hc        1 TLS      0.089200
     44 H10A        3.2140   -1.3950    0.7720 hc        1 TLS      0.089200
     45 H12        -4.1260    0.6990    0.8490 ha        1 TLS      0.129000
     46 H13        -2.3100   -0.6460    3.5330 hc        1 TLS      0.046033
     47 H13A       -3.6390    0.5340    3.1500 hc        1 TLS      0.046033
     48 H13B       -1.9730    1.1310    3.5610 hc        1 TLS      0.046033
     49 H15         3.5520    1.1100    0.7450 hc        1 TLS      0.038200
     50 H15A        3.0820    1.1940    2.4880 hc        1 TLS      0.038200
     51 H16         0.3410   -2.7910   -1.5990 ha        1 TLS      0.122500
     52 H17         4.3420   -1.1460   -1.6180 ha        1 TLS      0.122500
     53 H20         5.0000   -0.3160    3.0860 hc        1 TLS      0.040033
     54 H20A        5.4610   -0.4360    1.3410 hc        1 TLS      0.040033
     55 H20B        5.5710    1.1590    2.1990 hc        1 TLS      0.040033
     56 H21         1.2770   -5.0570   -2.0020 ha        1 TLS      0.167000
     57 H22         5.2850   -3.4170   -2.0200 ha        1 TLS      0.167000
     58 H24        -6.1190   -0.5690   -0.1390 h1        1 TLS      0.053033
     59 H24A       -4.5330   -1.4520   -0.3610 h1        1 TLS      0.053033
     60 H24B       -5.9560   -1.8200   -1.4600 h1        1 TLS      0.053033
     61 H27        -7.5930   -0.5770   -2.9600 ha        1 TLS      0.131000
     62 H28        -4.5870    2.8030   -5.2360 ha        1 TLS      0.144000
     63 H30        -8.3120    0.6040   -5.0400 ha        1 TLS      0.125000
     64 H31        -6.8480    2.2530   -6.1480 ha        1 TLS      0.126000
     65 H33         2.3260   -6.1300   -3.7860 ha        1 TLS      0.111000
     66 H34         6.3350   -7.9040   -1.4330 ha        1 TLS      0.136000
     67 H36         3.1430   -8.4200   -4.3000 ha        1 TLS      0.106000
     68 H37         5.1530   -9.3180   -3.1220 ha        1 TLS      0.108000
@<TRIPOS>BOND
     1    1    2 1   
     2    1    3 ar  
     3    1    4 ar  
     4    2    5 1   
     5    2    6 1   
     6    3    7 1   
     7    3    8 ar  
     8    4    9 ar  
     9    4   40 1   
    10    5    7 2   
    11    5   10 1   
    12    6   11 1   
    13    6   41 1   
    14    6   42 1   
    15    8   12 ar  
    16    8   13 1   
    17    9   12 ar  
    18    9   14 1   
    19   10   15 1   
    20   10   43 1   
    21   10   44 1   
    22   11   16 ar  
    23   11   17 ar  
    24   12   45 1   
    25   13   46 1   
    26   13   47 1   
    27   13   48 1   
    28   14   18 1   
    29   14   19 2   
    30   15   20 1   
    31   15   49 1   
    32   15   50 1   
    33   16   21 ar  
    34   16   51 1   
    35   17   22 ar  
    36   17   52 1   
    37   18   23 1   
    38   18   24 1   
    39   19   25 1   
    40   20   53 1   
    41   20   54 1   
    42   20   55 1   
    43   21   26 ar  
    44   21   56 1   
    45   22   26 ar  
    46   22   57 1   
    47   23   25 ar  
    48   23   27 ar  
    49   24   58 1   
    50   24   59 1   
    51   24   60 1   
    52   25   28 ar  
    53   26   29 1   
    54   27   30 ar  
    55   27   61 1   
    56   28   31 ar  
    57   28   62 1   
    58   29   32 ar  
    59   29   33 ar  
    60   30   31 ar  
    61   30   63 1   
    62   31   64 1   
    63   32   34 ar  
    64   32   35 1   
    65   33   36 ar  
    66   33   65 1   
    67   34   37 ar  
    68   34   66 1   
    69   35   38 1   
    70   35   39 1   
    71   36   37 ar  
    72   36   67 1   
    73   37   68 1   
@<TRIPOS>SUBSTRUCTURE
     1 TLS         1 TEMP              0 ****  ****    0 ROOT
