@<TRIPOS>MOLECULE
TLT
   33    34     1     0     0
SMALL
bcc


@<TRIPOS>ATOM
      1 N          -0.0050   -0.0780    0.0000 na        1 TLT      0.005900
      2 C1          1.3650    0.1190   -0.0010 cc        1 TLT      0.013400
      3 O1         -2.8220   -0.0470    0.9060 o         1 TLT     -0.586100
      4 C2         -0.4810    0.0450    1.3230 cc        1 TLT     -0.277900
      5 O2          3.5650   -1.9000   -1.4620 o         1 TLT     -0.829800
      6 C3          1.7800    0.3830    1.3370 cd        1 TLT     -0.252000
      7 O3          1.5800   -1.8340   -2.4900 o         1 TLT     -0.829800
      8 C4          0.6320    0.3320    2.1570 cd        1 TLT     -0.127000
      9 C5          2.2350    0.0910   -1.1910 c3        1 TLT     -0.170100
     10 C6         -1.8720   -0.0640    1.7100 c         1 TLT      0.617300
     11 C7         -0.8100   -0.4020   -1.1360 c3        1 TLT     -0.015400
     12 C8         -2.1410   -0.1880    3.1680 ca        1 TLT     -0.138600
     13 C9         -3.1930    0.5390    3.7360 ca        1 TLT     -0.089000
     14 C10        -1.3850   -1.0480    3.9730 ca        1 TLT     -0.089000
     15 C11        -2.7160   -0.4310    5.9040 ca        1 TLT     -0.076300
     16 C12        -3.4730    0.4230    5.0950 ca        1 TLT     -0.147500
     17 C13        -1.6740   -1.1700    5.3300 ca        1 TLT     -0.147500
     18 C14         2.4750   -1.3390   -1.7460 c         1 TLT      0.922600
     19 C15        -3.0040   -0.5460    7.3520 c3        1 TLT     -0.049800
     20 H3          2.8040    0.5650    1.6440 ha        1 TLT      0.148000
     21 H4          0.5860    0.4960    3.2300 ha        1 TLT      0.136000
     22 H5          3.2280    0.5280   -0.9110 hc        1 TLT      0.048200
     23 H5A         1.7880    0.7060   -2.0150 hc        1 TLT      0.048200
     24 H7         -1.6030   -1.1390   -0.8380 h1        1 TLT      0.074367
     25 H7A        -0.1580   -0.8510   -1.9440 h1        1 TLT      0.074367
     26 H7B        -1.3160    0.5270   -1.5140 h1        1 TLT      0.074367
     27 H9         -3.8000    1.1960    3.0940 ha        1 TLT      0.150000
     28 H10        -0.5620   -1.6280    3.5250 ha        1 TLT      0.150000
     29 H12        -4.2980    1.0030    5.5350 ha        1 TLT      0.125000
     30 H13        -1.0790   -1.8510    5.9560 ha        1 TLT      0.125000
     31 H15        -2.3790    0.1850    7.9250 hc        1 TLT      0.038367
     32 H15A       -2.7700   -1.5730    7.7260 hc        1 TLT      0.038367
     33 H15B       -4.0800   -0.3290    7.5660 hc        1 TLT      0.038367
@<TRIPOS>BOND
     1    1    2 1   
     2    1    4 1   
     3    1   11 1   
     4    2    6 2   
     5    2    9 1   
     6    3   10 2   
     7    4    8 2   
     8    4   10 1   
     9    5   18 1   
    10    6    8 1   
    11    6   20 1   
    12    7   18 1   
    13    8   21 1   
    14    9   18 1   
    15    9   22 1   
    16    9   23 1   
    17   10   12 1   
    18   11   24 1   
    19   11   25 1   
    20   11   26 1   
    21   12   13 ar  
    22   12   14 ar  
    23   13   16 ar  
    24   13   27 1   
    25   14   17 ar  
    26   14   28 1   
    27   15   16 ar  
    28   15   17 ar  
    29   15   19 1   
    30   16   29 1   
    31   17   30 1   
    32   19   31 1   
    33   19   32 1   
    34   19   33 1   
@<TRIPOS>SUBSTRUCTURE
     1 TLT         1 TEMP              0 ****  ****    0 ROOT
