@<TRIPOS>MOLECULE
TLT
   33    34     1     0     0
SMALL
bcc


@<TRIPOS>ATOM
      1 N          -0.0160   -0.0950   -0.0050 na        1 TLT      0.005900
      2 C1          1.3510    0.1220   -0.0130 cc        1 TLT      0.013400
      3 O1         -2.8300   -0.0950    0.9110 o         1 TLT     -0.586100
      4 C2         -0.4890    0.0380    1.3180 cc        1 TLT     -0.277900
      5 O2          3.5750   -1.8820   -1.4580 o         1 TLT     -0.829800
      6 C3          1.7670    0.4090    1.3190 cd        1 TLT     -0.252000
      7 O3          1.5850   -1.8580   -2.4790 o         1 TLT     -0.829800
      8 C4          0.6220    0.3520    2.1440 cd        1 TLT     -0.127000
      9 C5          2.2170    0.0920   -1.2070 c3        1 TLT     -0.170100
     10 C6         -1.8770   -0.0880    1.7120 c         1 TLT      0.617300
     11 C7         -0.8210   -0.4460   -1.1340 c3        1 TLT     -0.015400
     12 C8         -2.1380   -0.1980    3.1730 ca        1 TLT     -0.138600
     13 C9         -3.2000    0.5210    3.7360 ca        1 TLT     -0.089000
     14 C10        -1.3670   -1.0360    3.9850 ca        1 TLT     -0.089000
     15 C11        -2.6990   -0.4150    5.9140 ca        1 TLT     -0.076300
     16 C12        -3.4730    0.4180    5.0970 ca        1 TLT     -0.147500
     17 C13        -1.6490   -1.1450    5.3450 ca        1 TLT     -0.147500
     18 C14         2.4750   -1.3410   -1.7450 c         1 TLT      0.922600
     19 C15        -2.9810   -0.5150    7.3640 c3        1 TLT     -0.049800
     20 H3          2.7890    0.6100    1.6200 ha        1 TLT      0.148000
     21 H4          0.5780    0.5280    3.2150 ha        1 TLT      0.136000
     22 H5          3.2040    0.5470   -0.9360 hc        1 TLT      0.048200
     23 H5A         1.7580    0.6900   -2.0370 hc        1 TLT      0.048200
     24 H7         -1.6010   -1.1900   -0.8230 h1        1 TLT      0.074367
     25 H7A        -0.1650   -0.8940   -1.9380 h1        1 TLT      0.074367
     26 H7B        -1.3420    0.4710   -1.5210 h1        1 TLT      0.074367
     27 H9         -3.8190    1.1600    3.0880 ha        1 TLT      0.150000
     28 H10        -0.5360   -1.6090    3.5410 ha        1 TLT      0.150000
     29 H12        -4.3040    0.9900    5.5330 ha        1 TLT      0.125000
     30 H13        -1.0410   -1.8090    5.9760 ha        1 TLT      0.125000
     31 H15        -2.3770    0.2430    7.9230 hc        1 TLT      0.038367
     32 H15A       -2.7160   -1.5290    7.7540 hc        1 TLT      0.038367
     33 H15B       -4.0620   -0.3260    7.5770 hc        1 TLT      0.038367
@<TRIPOS>BOND
     1    1    2 1   
     2    1    4 1   
     3    1   11 1   
     4    2    6 2   
     5    2    9 1   
     6    3   10 2   
     7    4    8 2   
     8    4   10 1   
     9    5   18 1   
    10    6    8 1   
    11    6   20 1   
    12    7   18 1   
    13    8   21 1   
    14    9   18 1   
    15    9   22 1   
    16    9   23 1   
    17   10   12 1   
    18   11   24 1   
    19   11   25 1   
    20   11   26 1   
    21   12   13 ar  
    22   12   14 ar  
    23   13   16 ar  
    24   13   27 1   
    25   14   17 ar  
    26   14   28 1   
    27   15   16 ar  
    28   15   17 ar  
    29   15   19 1   
    30   16   29 1   
    31   17   30 1   
    32   19   31 1   
    33   19   32 1   
    34   19   33 1   
@<TRIPOS>SUBSTRUCTURE
     1 TLT         1 TEMP              0 ****  ****    0 ROOT
