@<TRIPOS>MOLECULE
TLT
   33    34     1     0     0
SMALL
bcc


@<TRIPOS>ATOM
      1 N          -1.5810    0.8300   -0.2140 na        1 TLT      0.005900
      2 C1         -2.3850   -0.0750   -0.8860 cc        1 TLT      0.013400
      3 O1          0.8330    2.3230    0.6220 o         1 TLT     -0.586100
      4 C2         -0.2330    0.4400   -0.3650 cc        1 TLT     -0.277900
      5 O2         -5.0630   -1.5520    0.4160 o         1 TLT     -0.829800
      6 C3         -1.5470   -1.0580   -1.4870 cd        1 TLT     -0.252000
      7 O3         -4.6800    0.4960    1.2270 o         1 TLT     -0.829800
      8 C4         -0.2110   -0.7380   -1.1590 cd        1 TLT     -0.127000
      9 C5         -3.8550   -0.0080   -0.9830 c3        1 TLT     -0.170100
     10 C6          0.8990    1.1650    0.1720 c         1 TLT      0.617300
     11 C7         -2.0310    1.9510    0.5510 c3        1 TLT     -0.015400
     12 C8          2.2050    0.4520    0.1540 ca        1 TLT     -0.138600
     13 C9          3.3600    1.1450   -0.2280 ca        1 TLT     -0.089000
     14 C10         2.3050   -0.8860    0.5490 ca        1 TLT     -0.089000
     15 C11         4.6970   -0.8380    0.1570 ca        1 TLT     -0.076300
     16 C12         4.5950    0.5030   -0.2340 ca        1 TLT     -0.147500
     17 C13         3.5430   -1.5240    0.5510 ca        1 TLT     -0.147500
     18 C14        -4.5790   -0.3940    0.3350 c         1 TLT      0.922600
     19 C15         6.0130   -1.5170    0.1700 c3        1 TLT     -0.049800
     20 H3         -1.9010   -1.9010   -2.0700 ha        1 TLT      0.148000
     21 H4          0.6830   -1.2740   -1.4620 ha        1 TLT      0.136000
     22 H5         -4.1800    1.0290   -1.2600 hc        1 TLT      0.048200
     23 H5A        -4.1860   -0.7170   -1.7850 hc        1 TLT      0.048200
     24 H7         -1.3890    2.0630    1.4660 h1        1 TLT      0.074367
     25 H7A        -1.9350    2.8860   -0.0630 h1        1 TLT      0.074367
     26 H7B        -3.1070    1.7890    0.8580 h1        1 TLT      0.074367
     27 H9          3.2790    2.2050   -0.5160 ha        1 TLT      0.150000
     28 H10         1.3970   -1.4310    0.8560 ha        1 TLT      0.150000
     29 H12         5.4960    1.0510   -0.5440 ha        1 TLT      0.125000
     30 H13         3.6140   -2.5760    0.8640 ha        1 TLT      0.125000
     31 H15         6.4840   -1.4160    1.1810 hc        1 TLT      0.038367
     32 H15A        5.9030   -2.6060   -0.0560 hc        1 TLT      0.038367
     33 H15B        6.7050   -1.0670   -0.5840 hc        1 TLT      0.038367
@<TRIPOS>BOND
     1    1    2 1   
     2    1    4 1   
     3    1   11 1   
     4    2    6 2   
     5    2    9 1   
     6    3   10 2   
     7    4    8 2   
     8    4   10 1   
     9    5   18 1   
    10    6    8 1   
    11    6   20 1   
    12    7   18 1   
    13    8   21 1   
    14    9   18 1   
    15    9   22 1   
    16    9   23 1   
    17   10   12 1   
    18   11   24 1   
    19   11   25 1   
    20   11   26 1   
    21   12   13 ar  
    22   12   14 ar  
    23   13   16 ar  
    24   13   27 1   
    25   14   17 ar  
    26   14   28 1   
    27   15   16 ar  
    28   15   17 ar  
    29   15   19 1   
    30   16   29 1   
    31   17   30 1   
    32   19   31 1   
    33   19   32 1   
    34   19   33 1   
@<TRIPOS>SUBSTRUCTURE
     1 TLT         1 TEMP              0 ****  ****    0 ROOT
