@<TRIPOS>MOLECULE
TLX
   43    44     1     0     0
SMALL
bcc


@<TRIPOS>ATOM
      1 N1          0.2960   -0.0590   -0.7040 n3        1 TLX     -0.703600
      2 C2          1.7430    0.0590   -0.8840 c3        1 TLX      0.168800
      3 C3          2.2750   -0.5180   -2.1980 c3        1 TLX     -0.079400
      4 C4          1.4340   -0.1200   -3.4140 c3        1 TLX      0.186800
      5 N5          0.0380   -0.3390   -3.1310 n3        1 TLX     -0.740600
      6 C6         -0.9560   -0.0910   -4.1600 c3        1 TLX      0.180800
      7 C7         -2.2930    0.1610   -3.4280 c3        1 TLX     -0.084400
      8 C8         -1.9510    0.2600   -1.9410 c3        1 TLX     -0.077400
      9 C9         -0.4040    0.4000   -1.9210 c3        1 TLX      0.413700
     10 C1'        -0.2070    0.6480    0.4640 c3        1 TLX      0.177800
     11 C2'         0.4100    0.1850    1.8140 c3        1 TLX      0.160500
     12 C3'        -0.6820    0.3540    2.8850 c3        1 TLX     -0.116400
     13 C4'        -0.2430   -0.0260    4.2900 c3        1 TLX     -0.067700
     14 C5'        -1.3930    0.1910    5.2550 c3        1 TLX     -0.092100
     15 CM'         0.2340   -1.4610    4.3630 c3        1 TLX     -0.092100
     16 N'          1.6600    0.8660    2.0920 n3        1 TLX     -0.906800
     17 H21         2.0720    1.1380   -0.8110 h1        1 TLX      0.042200
     18 H22         2.2270   -0.5060   -0.0380 h1        1 TLX      0.042200
     19 H31         3.3220   -0.1520   -2.3460 hc        1 TLX      0.050700
     20 H32         2.3040   -1.6360   -2.1240 hc        1 TLX      0.050700
     21 H41         1.6560    0.9550   -3.6850 h1        1 TLX      0.026700
     22 H42         1.7190   -0.7570   -4.2970 h1        1 TLX      0.026700
     23 H61        -0.7000    0.7890   -4.8130 h1        1 TLX      0.034200
     24 H62        -1.0140   -1.0030   -4.8120 h1        1 TLX      0.034200
     25 H71        -2.7610    1.1050   -3.7970 hc        1 TLX      0.046200
     26 H72        -3.0050   -0.6780   -3.6180 hc        1 TLX      0.046200
     27 H81        -2.4250    1.1510   -1.4660 hc        1 TLX      0.053200
     28 H82        -2.2810   -0.6560   -1.3940 hc        1 TLX      0.053200
     29 H9         -0.1820    1.5160   -2.0620 h2        1 TLX     -0.009300
     30 H1'1       -1.3140    0.4360    0.5080 h1        1 TLX      0.031200
     31 H1'2       -0.0840    1.7680    0.3680 h1        1 TLX      0.031200
     32 H2'         0.6490   -0.9190    1.7430 h1        1 TLX      0.078700
     33 H3'1       -1.5570   -0.2870    2.5970 hc        1 TLX      0.045200
     34 H3'2       -1.0340    1.4200    2.8920 hc        1 TLX      0.045200
     35 H4'         0.6020    0.6490    4.6090 hc        1 TLX      0.037700
     36 H5'1       -1.0700   -0.0360    6.2990 hc        1 TLX      0.035867
     37 H5'2       -1.7430    1.2510    5.2140 hc        1 TLX      0.035867
     38 H5'3       -2.2510   -0.4750    4.9980 hc        1 TLX      0.035867
     39 HM'1       -0.5370   -2.1530    3.9480 hc        1 TLX      0.035867
     40 HM'2        1.1780   -1.5930    3.7810 hc        1 TLX      0.035867
     41 HM'3        0.4330   -1.7480    5.4240 hc        1 TLX      0.035867
     42 HN'1        1.5140    1.8510    2.1920 hn        1 TLX      0.345800
     43 HN'2        2.0630    0.5100    2.9380 hn        1 TLX      0.345800
@<TRIPOS>BOND
     1    1    2 1   
     2    1    9 1   
     3    1   10 1   
     4    2    3 1   
     5    2   17 1   
     6    2   18 1   
     7    3    4 1   
     8    3   19 1   
     9    3   20 1   
    10    4    5 1   
    11    4   21 1   
    12    4   22 1   
    13    5    6 1   
    14    5    9 1   
    15    6    7 1   
    16    6   23 1   
    17    6   24 1   
    18    7    8 1   
    19    7   25 1   
    20    7   26 1   
    21    8    9 1   
    22    8   27 1   
    23    8   28 1   
    24    9   29 1   
    25   10   11 1   
    26   10   30 1   
    27   10   31 1   
    28   11   12 1   
    29   11   16 1   
    30   11   32 1   
    31   12   13 1   
    32   12   33 1   
    33   12   34 1   
    34   13   14 1   
    35   13   15 1   
    36   13   35 1   
    37   14   36 1   
    38   14   37 1   
    39   14   38 1   
    40   15   39 1   
    41   15   40 1   
    42   15   41 1   
    43   16   42 1   
    44   16   43 1   
@<TRIPOS>SUBSTRUCTURE
     1 TLX         1 TEMP              0 ****  ****    0 ROOT
