@<TRIPOS>MOLECULE
TLX
   44    45     1     0     0
SMALL
bcc


@<TRIPOS>ATOM
      1 N1          0.8580   -0.5740   -0.3530 n3        1 TLX     -0.780600
      2 C2          2.1550   -1.2100   -0.1080 c3        1 TLX      0.175800
      3 C3          2.5990   -1.1560    1.3560 c3        1 TLX     -0.080400
      4 C4          1.4800   -1.5250    2.3360 c3        1 TLX      0.174800
      5 N5          0.2670   -0.8180    1.9940 n3        1 TLX     -0.741600
      6 C6         -0.9180   -0.9950    2.8210 c3        1 TLX      0.170800
      7 C7         -2.1390   -0.7080    1.9200 c3        1 TLX     -0.086400
      8 C8         -1.5890   -0.5260    0.5040 c3        1 TLX     -0.077400
      9 C9         -0.1470   -1.0930    0.5950 c3        1 TLX      0.399700
     10 C1'         0.4440   -0.6030   -1.7360 c3        1 TLX      0.158800
     11 C2'        -0.1590    0.7580   -2.2030 c3        1 TLX      0.111500
     12 C3'        -0.0740    0.8420   -3.7240 c3        1 TLX     -0.115400
     13 C4'        -0.6800    2.1020   -4.3260 c3        1 TLX     -0.076700
     14 C5'        -0.6480    1.9890   -5.8400 c3        1 TLX     -0.100600
     15 CM'        -2.0980    2.3410   -3.8530 c3        1 TLX     -0.100600
     16 N'          0.5090    1.9250   -1.5350 n4        1 TLX     -0.826600
     17 H21         2.1340   -2.2910   -0.4370 h1        1 TLX      0.040700
     18 H22         2.9210   -0.6760   -0.7360 h1        1 TLX      0.040700
     19 H31         3.4490   -1.8730    1.4910 hc        1 TLX      0.064200
     20 H32         2.9730   -0.1270    1.5940 hc        1 TLX      0.064200
     21 H41         1.3380   -2.6460    2.3330 h1        1 TLX      0.050200
     22 H42         1.7780   -1.2200    3.3780 h1        1 TLX      0.050200
     23 H61        -0.9920   -2.0290    3.2580 h1        1 TLX      0.056200
     24 H62        -0.8570   -0.2600    3.6680 h1        1 TLX      0.056200
     25 H71        -2.8580   -1.5620    1.9620 hc        1 TLX      0.064200
     26 H72        -2.6730    0.2100    2.2620 hc        1 TLX      0.064200
     27 H81        -1.5880    0.5550    0.2230 hc        1 TLX      0.038700
     28 H82        -2.1850   -1.0910   -0.2520 hc        1 TLX      0.038700
     29 H9         -0.2340   -2.2220    0.4260 h2        1 TLX      0.024700
     30 H1'1        1.3230   -0.8430   -2.4010 h1        1 TLX      0.075200
     31 H1'2       -0.3570   -1.3730   -1.9390 h1        1 TLX      0.075200
     32 H2'        -1.2460    0.8010   -1.8830 hx        1 TLX      0.109700
     33 H3'1        0.9950    0.7540   -4.0580 hc        1 TLX      0.083700
     34 H3'2       -0.6220   -0.0550   -4.1250 hc        1 TLX      0.083700
     35 H4'        -0.0490    2.9910   -4.0400 hc        1 TLX      0.030700
     36 H5'1        0.3930    1.7990   -6.1970 hc        1 TLX      0.050367
     37 H5'2       -1.0140    2.9380   -6.3010 hc        1 TLX      0.050367
     38 H5'3       -1.3030    1.1530   -6.1850 hc        1 TLX      0.050367
     39 HM'1       -2.1210    2.6220   -2.7720 hc        1 TLX      0.050367
     40 HM'2       -2.7240    1.4280   -3.9980 hc        1 TLX      0.050367
     41 HM'3       -2.5600    3.1760   -4.4360 hc        1 TLX      0.050367
     42 HN'1        0.3790    1.8540   -0.5160 hn        1 TLX      0.462133
     43 HN'2        1.5110    1.9120   -1.7370 hn        1 TLX      0.462133
     44 H'3         0.1010    2.7980   -1.8800 hn        1 TLX      0.462133
@<TRIPOS>BOND
     1    1    2 1   
     2    1    9 1   
     3    1   10 1   
     4    2    3 1   
     5    2   17 1   
     6    2   18 1   
     7    3    4 1   
     8    3   19 1   
     9    3   20 1   
    10    4    5 1   
    11    4   21 1   
    12    4   22 1   
    13    5    6 1   
    14    5    9 1   
    15    6    7 1   
    16    6   23 1   
    17    6   24 1   
    18    7    8 1   
    19    7   25 1   
    20    7   26 1   
    21    8    9 1   
    22    8   27 1   
    23    8   28 1   
    24    9   29 1   
    25   10   11 1   
    26   10   30 1   
    27   10   31 1   
    28   11   12 1   
    29   11   16 1   
    30   11   32 1   
    31   12   13 1   
    32   12   33 1   
    33   12   34 1   
    34   13   14 1   
    35   13   15 1   
    36   13   35 1   
    37   14   36 1   
    38   14   37 1   
    39   14   38 1   
    40   15   39 1   
    41   15   40 1   
    42   15   41 1   
    43   16   42 1   
    44   16   43 1   
    45   16   44 1   
@<TRIPOS>SUBSTRUCTURE
     1 TLX         1 TEMP              0 ****  ****    0 ROOT
