@<TRIPOS>MOLECULE
TLX
   44    45     1     0     0
SMALL
bcc


@<TRIPOS>ATOM
      1 N1          0.8820   -0.5510   -0.3620 n3        1 TLX     -0.780600
      2 C2          2.1970   -1.1520   -0.1270 c3        1 TLX      0.175800
      3 C3          2.6470   -1.0920    1.3350 c3        1 TLX     -0.080400
      4 C4          1.5440   -1.4970    2.3190 c3        1 TLX      0.174800
      5 N5          0.3100   -0.8220    1.9870 n3        1 TLX     -0.741600
      6 C6         -0.8660   -1.0370    2.8190 c3        1 TLX      0.170800
      7 C7         -2.0990   -0.7810    1.9250 c3        1 TLX     -0.086400
      8 C8         -1.5620   -0.5770    0.5070 c3        1 TLX     -0.077400
      9 C9         -0.1030   -1.1030    0.5890 c3        1 TLX      0.399700
     10 C1'         0.4610   -0.5850   -1.7430 c3        1 TLX      0.159800
     11 C2'        -0.1820    0.7620   -2.1990 c3        1 TLX      0.111500
     12 C3'        -0.1060    0.8570   -3.7210 c3        1 TLX     -0.115400
     13 C4'        -0.7510    2.1020   -4.3130 c3        1 TLX     -0.076700
     14 C5'        -0.7220    1.9990   -5.8270 c3        1 TLX     -0.100600
     15 CM'        -2.1720    2.2990   -3.8320 c3        1 TLX     -0.100600
     16 N'          0.4560    1.9440   -1.5280 n4        1 TLX     -0.826600
     17 H21         2.2050   -2.2310   -0.4610 h1        1 TLX      0.040700
     18 H22         2.9450   -0.5930   -0.7560 h1        1 TLX      0.040700
     19 H31         3.5170   -1.7860    1.4620 hc        1 TLX      0.064200
     20 H32         2.9940   -0.0540    1.5760 hc        1 TLX      0.064200
     21 H41         1.4340   -2.6220    2.3110 h1        1 TLX      0.050200
     22 H42         1.8390   -1.1890    3.3610 h1        1 TLX      0.050200
     23 H61        -0.8200   -0.3040    3.6690 h1        1 TLX      0.056200
     24 H62        -0.9070   -2.0750    3.2520 h1        1 TLX      0.056200
     25 H71        -2.6570    0.1200    2.2750 hc        1 TLX      0.064200
     26 H72        -2.7930   -1.6550    1.9670 hc        1 TLX      0.064200
     27 H81        -1.5930    0.5050    0.2320 hc        1 TLX      0.038700
     28 H82        -2.1460   -1.1540   -0.2470 hc        1 TLX      0.038700
     29 H9         -0.1590   -2.2330    0.4140 h2        1 TLX      0.024700
     30 H1'1        1.3430   -0.7960   -2.4130 h1        1 TLX      0.075200
     31 H1'2       -0.3200   -1.3750   -1.9460 h1        1 TLX      0.075200
     32 H2'        -1.2680    0.7720   -1.8740 hx        1 TLX      0.109700
     33 H3'1       -0.6310   -0.0530   -4.1240 hc        1 TLX      0.083700
     34 H3'2        0.9630    0.8000   -4.0600 hc        1 TLX      0.083700
     35 H4'        -0.1420    3.0070   -4.0250 hc        1 TLX      0.030700
     36 H5'1       -1.1160    2.9390   -6.2820 hc        1 TLX      0.050367
     37 H5'2        0.3220    1.8400   -6.1900 hc        1 TLX      0.050367
     38 H5'3       -1.3550    1.1470   -6.1740 hc        1 TLX      0.050367
     39 HM'1       -2.1990    2.5740   -2.7490 hc        1 TLX      0.050367
     40 HM'2       -2.7730    1.3690   -3.9800 hc        1 TLX      0.050367
     41 HM'3       -2.6600    3.1240   -4.4080 hc        1 TLX      0.050367
     42 HN'1        0.3320    1.8630   -0.5090 hn        1 TLX      0.462133
     43 HN'2        0.0220    2.8070   -1.8660 hn        1 TLX      0.462133
     44 H'3         1.4570    1.9600   -1.7350 hn        1 TLX      0.462133
@<TRIPOS>BOND
     1    1    2 1   
     2    1    9 1   
     3    1   10 1   
     4    2    3 1   
     5    2   17 1   
     6    2   18 1   
     7    3    4 1   
     8    3   19 1   
     9    3   20 1   
    10    4    5 1   
    11    4   21 1   
    12    4   22 1   
    13    5    6 1   
    14    5    9 1   
    15    6    7 1   
    16    6   23 1   
    17    6   24 1   
    18    7    8 1   
    19    7   25 1   
    20    7   26 1   
    21    8    9 1   
    22    8   27 1   
    23    8   28 1   
    24    9   29 1   
    25   10   11 1   
    26   10   30 1   
    27   10   31 1   
    28   11   12 1   
    29   11   16 1   
    30   11   32 1   
    31   12   13 1   
    32   12   33 1   
    33   12   34 1   
    34   13   14 1   
    35   13   15 1   
    36   13   35 1   
    37   14   36 1   
    38   14   37 1   
    39   14   38 1   
    40   15   39 1   
    41   15   40 1   
    42   15   41 1   
    43   16   42 1   
    44   16   43 1   
    45   16   44 1   
@<TRIPOS>SUBSTRUCTURE
     1 TLX         1 TEMP              0 ****  ****    0 ROOT
