@<TRIPOS>MOLECULE
TLX
   44    45     1     0     0
SMALL
bcc


@<TRIPOS>ATOM
      1 N1          0.8640   -0.5960   -0.3860 n3        1 TLX     -0.780600
      2 C2          2.1560   -1.2560   -0.1830 c3        1 TLX      0.175800
      3 C3          2.6380   -1.2260    1.2700 c3        1 TLX     -0.080400
      4 C4          1.5390   -1.5900    2.2740 c3        1 TLX      0.174800
      5 N5          0.3290   -0.8600    1.9720 n3        1 TLX     -0.741600
      6 C6         -0.8380   -1.0290    2.8260 c3        1 TLX      0.170800
      7 C7         -2.0760   -0.7130    1.9600 c3        1 TLX     -0.086400
      8 C8         -1.5600   -0.5220    0.5330 c3        1 TLX     -0.077400
      9 C9         -0.1250   -1.1120    0.5810 c3        1 TLX      0.399700
     10 C1'         0.4140   -0.6030   -1.7590 c3        1 TLX      0.158800
     11 C2'        -0.1800    0.7730   -2.1930 c3        1 TLX      0.111500
     12 C3'        -0.1320    0.8750   -3.7160 c3        1 TLX     -0.115400
     13 C4'        -0.7350    2.1510   -4.2870 c3        1 TLX     -0.076700
     14 C5'        -0.7430    2.0560   -5.8020 c3        1 TLX     -0.100600
     15 CM'        -2.1360    2.4060   -3.7740 c3        1 TLX     -0.100600
     16 N'          0.5230    1.9220   -1.5300 nz        1 TLX     -0.826600
     17 H21         2.9150   -0.7250   -0.8240 h1        1 TLX      0.040700
     18 H22         2.1100   -2.3320   -0.5240 h1        1 TLX      0.040700
     19 H31         3.4800   -1.9580    1.3740 hc        1 TLX      0.064200
     20 H32         3.0340   -0.2060    1.5100 hc        1 TLX      0.064200
     21 H41         1.8690   -1.3030    3.3110 h1        1 TLX      0.050200
     22 H42         1.3800   -2.7090    2.2610 h1        1 TLX      0.050200
     23 H61        -0.9160   -2.0670    3.2530 h1        1 TLX      0.056200
     24 H62        -0.7430   -0.3060    3.6800 h1        1 TLX      0.056200
     25 H71        -2.5870    0.2090    2.3270 hc        1 TLX      0.064200
     26 H72        -2.8070   -1.5570    2.0110 hc        1 TLX      0.064200
     27 H81        -2.1840   -1.0680   -0.2130 hc        1 TLX      0.038700
     28 H82        -1.5490    0.5630    0.2660 hc        1 TLX      0.038700
     29 H9         -0.2330   -2.2370    0.4000 h2        1 TLX      0.024700
     30 H1'1       -0.4040   -1.3570   -1.9510 h1        1 TLX      0.075200
     31 H1'2        1.2720   -0.8480   -2.4490 h1        1 TLX      0.075200
     32 H2'        -1.2570    0.8280   -1.8450 hx        1 TLX      0.109700
     33 H3'1       -0.7040   -0.0090   -4.1130 hc        1 TLX      0.083700
     34 H3'2        0.9260    0.7750   -4.0780 hc        1 TLX      0.083700
     35 H4'        -0.0820    3.0270   -4.0070 hc        1 TLX      0.030700
     36 H5'1       -1.4190    1.2340   -6.1400 hc        1 TLX      0.050367
     37 H5'2        0.2860    1.8550   -6.1880 hc        1 TLX      0.050367
     38 H5'3       -1.1060    3.0160   -6.2430 hc        1 TLX      0.050367
     39 HM'1       -2.1270    2.6740   -2.6900 hc        1 TLX      0.050367
     40 HM'2       -2.6000    3.2550   -4.3350 hc        1 TLX      0.050367
     41 HM'3       -2.7790    1.5040   -3.9140 hc        1 TLX      0.050367
     42 HN'1        0.4180    1.8410   -0.5080 hn        1 TLX      0.462133
     43 HN'2        1.5200    1.8960   -1.7570 hn        1 TLX      0.462133
     44 H'3         0.1200    2.8050   -1.8530 hn        1 TLX      0.462133
@<TRIPOS>BOND
     1    1    2 1   
     2    1    9 1   
     3    1   10 1   
     4    2    3 1   
     5    2   17 1   
     6    2   18 1   
     7    3    4 1   
     8    3   19 1   
     9    3   20 1   
    10    4    5 1   
    11    4   21 1   
    12    4   22 1   
    13    5    6 1   
    14    5    9 1   
    15    6    7 1   
    16    6   23 1   
    17    6   24 1   
    18    7    8 1   
    19    7   25 1   
    20    7   26 1   
    21    8    9 1   
    22    8   27 1   
    23    8   28 1   
    24    9   29 1   
    25   10   11 1   
    26   10   30 1   
    27   10   31 1   
    28   11   12 1   
    29   11   16 1   
    30   11   32 1   
    31   12   13 1   
    32   12   33 1   
    33   12   34 1   
    34   13   14 1   
    35   13   15 1   
    36   13   35 1   
    37   14   36 1   
    38   14   37 1   
    39   14   38 1   
    40   15   39 1   
    41   15   40 1   
    42   15   41 1   
    43   16   42 1   
    44   16   43 1   
    45   16   44 1   
@<TRIPOS>SUBSTRUCTURE
     1 TLX         1 TEMP              0 ****  ****    0 ROOT
