@<TRIPOS>MOLECULE
TLY
   28    27     1     0     0
SMALL
bcc


@<TRIPOS>ATOM
      1 C          -4.4610   -0.3760   -0.1180 c         1 TLY      0.887600
      2 N          -3.3020    1.8160    0.4470 n3        1 TLY     -0.891800
      3 O          -5.4740    0.0940    0.4740 o         1 TLY     -0.843300
      4 CA         -3.1860    0.5270   -0.2230 c3        1 TLY      0.017500
      5 CB         -1.9860   -0.2940    0.2500 c3        1 TLY     -0.064400
      6 CD          0.4870   -0.5670    0.2530 c3        1 TLY     -0.096400
      7 CE          1.8180    0.0870   -0.1100 c3        1 TLY      0.071000
      8 CG         -0.6640    0.3520   -0.1020 c3        1 TLY     -0.073400
      9 CX          4.2350   -0.3450    0.1190 c         1 TLY      0.419400
     10 SX          4.7150    1.1440   -0.1960 s         1 TLY     -0.546400
     11 CY          5.2820   -1.3880    0.4200 c3        1 TLY     -0.160100
     12 NZ          2.9500   -0.7750    0.1410 n         1 TLY     -0.473900
     13 OXT        -4.4090   -1.5200   -0.6480 o         1 TLY     -0.843300
     14 H          -4.2150    2.1820    0.2290 hn        1 TLY      0.330800
     15 H2         -3.2960    1.6590    1.4400 hn        1 TLY      0.330800
     16 HA         -3.0480    0.7510   -1.3210 h1        1 TLY      0.041700
     17 HB         -2.0430   -0.4550    1.3580 hc        1 TLY      0.047200
     18 HBA        -2.0660   -1.3020   -0.2410 hc        1 TLY      0.047200
     19 HD          0.3670   -1.5380   -0.2960 hc        1 TLY      0.041200
     20 HDA         0.4570   -0.7950    1.3510 hc        1 TLY      0.041200
     21 HE          1.8150    0.3690   -1.2040 h1        1 TLY      0.068700
     22 HEA         1.9510    1.0420    0.4790 h1        1 TLY      0.068700
     23 HG         -0.6380    0.5810   -1.2000 hc        1 TLY      0.043700
     24 HGA        -0.5550    1.3260    0.4420 hc        1 TLY      0.043700
     25 HY          5.1330   -1.8210    1.4410 hc        1 TLY      0.061033
     26 HYA         5.2440   -2.2190   -0.3270 hc        1 TLY      0.061033
     27 HYB         6.2940   -0.9150    0.3770 hc        1 TLY      0.061033
     28 HNZ         2.7530   -1.7270    0.3580 hn        1 TLY      0.308500
@<TRIPOS>BOND
     1    1    3 1   
     2    1    4 1   
     3    1   13 1   
     4    2    4 1   
     5    2   14 1   
     6    2   15 1   
     7    4    5 1   
     8    4   16 1   
     9    5    8 1   
    10    5   17 1   
    11    5   18 1   
    12    6    7 1   
    13    6    8 1   
    14    6   19 1   
    15    6   20 1   
    16    7   12 1   
    17    7   21 1   
    18    7   22 1   
    19    8   23 1   
    20    8   24 1   
    21    9   10 2   
    22    9   11 1   
    23    9   12 1   
    24   11   25 1   
    25   11   26 1   
    26   11   27 1   
    27   12   28 1   
@<TRIPOS>SUBSTRUCTURE
     1 TLY         1 TEMP              0 ****  ****    0 ROOT
