@<TRIPOS>MOLECULE
TLZ
   26    25     1     0     0
SMALL
bcc


@<TRIPOS>ATOM
      1 O6         -0.0540    0.1540    0.1430 oh        1 TLZ     -0.619800
      2 C6          1.3520   -0.0210    0.0500 c3        1 TLZ      0.096900
      3 C5          1.8940    0.1290    1.4740 c3        1 TLZ      0.144100
      4 O5          1.3360   -0.8520    2.3360 oh        1 TLZ     -0.621800
      5 C4          3.4200   -0.0810    1.4850 c3        1 TLZ      0.126100
      6 O4          3.9460    0.9290    0.6390 oh        1 TLZ     -0.608800
      7 C3          3.9820    0.0330    2.9160 c3        1 TLZ      0.126100
      8 O3          3.8840   -1.2070    3.5960 oh        1 TLZ     -0.608800
      9 C2          5.4650    0.4410    2.9140 c3        1 TLZ      0.144100
     10 O2          6.1260   -0.2930    1.8930 oh        1 TLZ     -0.621800
     11 C1          6.1000    0.1850    4.2820 c3        1 TLZ      0.096900
     12 O1          7.4540    0.6000    4.1720 oh        1 TLZ     -0.619800
     13 H1         -0.3990    0.1150   -0.7560 ho        1 TLZ      0.410500
     14 H2          1.5810   -1.0440   -0.3500 h1        1 TLZ      0.048450
     15 H3          1.8100    0.7590   -0.6110 h1        1 TLZ      0.048450
     16 H4          1.6420    1.1550    1.8640 h1        1 TLZ      0.058200
     17 H5          0.3780   -0.8160    2.2110 ho        1 TLZ      0.430000
     18 H6          3.6720   -1.1030    1.0850 h1        1 TLZ      0.057200
     19 H7          4.8670    0.6910    0.4590 ho        1 TLZ      0.430500
     20 H8          3.4070    0.8160    3.4880 h1        1 TLZ      0.057200
     21 H9          2.9680   -1.5060    3.5190 ho        1 TLZ      0.430500
     22 H10         5.5340    1.5380    2.6600 h1        1 TLZ      0.058200
     23 H11         7.0750   -0.2130    2.0600 ho        1 TLZ      0.430000
     24 H12         5.5740    0.7870    5.0680 h1        1 TLZ      0.048450
     25 H13         6.0410   -0.9060    4.5360 h1        1 TLZ      0.048450
     26 H14         7.9000    0.3060    4.9740 ho        1 TLZ      0.410500
@<TRIPOS>BOND
     1    1    2 1   
     2    1   13 1   
     3    2    3 1   
     4    2   14 1   
     5    2   15 1   
     6    3    4 1   
     7    3    5 1   
     8    3   16 1   
     9    4   17 1   
    10    5    6 1   
    11    5    7 1   
    12    5   18 1   
    13    6   19 1   
    14    7    8 1   
    15    7    9 1   
    16    7   20 1   
    17    8   21 1   
    18    9   10 1   
    19    9   11 1   
    20    9   22 1   
    21   10   23 1   
    22   11   12 1   
    23   11   24 1   
    24   11   25 1   
    25   12   26 1   
@<TRIPOS>SUBSTRUCTURE
     1 TLZ         1 TEMP              0 ****  ****    0 ROOT
