@<TRIPOS>MOLECULE
TM2
   46    47     1     0     0
SMALL
bcc


@<TRIPOS>ATOM
      1 P          -7.1170    0.4340    0.0590 p5        1 TM2      1.337900
      2 O1P        -6.6190   -0.4010   -1.1060 o         1 TM2     -0.932833
      3 O2P        -8.0350    1.5670   -0.2840 o         1 TM2     -0.932833
      4 O3P        -7.4090   -0.3480    1.3060 o         1 TM2     -0.932833
      5 O5'        -5.6250    1.2330    0.4600 os        1 TM2     -0.564200
      6 C5'        -4.5940    0.3850    0.7640 c3        1 TM2      0.237400
      7 C4'        -3.6070    0.2990   -0.4240 c3        1 TM2      0.071100
      8 O4'        -2.2450    0.2800    0.0760 os        1 TM2     -0.445600
      9 C1'        -1.4420   -0.5690   -0.7410 c3        1 TM2      0.277500
     10 N1         -0.3930   -1.1940    0.0790 n         1 TM2     -0.346000
     11 C6          0.8320   -0.5530    0.1720 cc        1 TM2      0.091600
     12 C2         -0.6920   -2.2280    1.0060 c         1 TM2      0.807500
     13 O2         -1.7410   -2.9020    0.9830 o         1 TM2     -0.623500
     14 N3          0.2850   -2.5670    1.9700 n         1 TM2     -0.598500
     15 C4          1.5310   -1.9350    2.0690 c         1 TM2      0.723700
     16 O4          2.3040   -2.2980    2.9800 o         1 TM2     -0.666500
     17 C5          1.8020   -0.8930    1.0740 cd        1 TM2     -0.309400
     18 C2'        -2.3870   -1.5370   -1.5220 c3        1 TM2      0.104100
     19 O2'        -1.9510   -1.6040   -2.8620 oh        1 TM2     -0.623800
     20 C3'        -3.8010   -0.9440   -1.3120 c3        1 TM2      0.136100
     21 C7          3.1310   -0.2080    1.1080 c3        1 TM2      0.228000
     22 N8          3.9130   -0.3950   -0.1030 n3        1 TM2     -0.827200
     23 C9          5.2810    0.0900    0.0300 c3        1 TM2      0.197800
     24 C11         6.2610   -0.5230   -0.9470 c3        1 TM2     -0.298600
     25 S12         7.9120    0.1090   -0.7790 s6        1 TM2      1.423800
     26 O1S         7.8200    1.5130   -0.9380 o         1 TM2     -0.756200
     27 O2S         8.3490   -0.2880    0.5100 o         1 TM2     -0.756200
     28 O3'        -4.3300   -0.5880   -2.5670 oh        1 TM2     -0.696800
     29 O3S         8.6280   -0.5280   -1.8280 o         1 TM2     -0.756200
     30 H5'1       -4.0150    0.7920    1.6450 h1        1 TM2      0.006200
     31 H5'2       -4.9750   -0.6430    1.0180 h1        1 TM2      0.006200
     32 H4'        -3.7000    1.2310   -1.0480 h1        1 TM2      0.063700
     33 H3'        -4.4760   -1.6900   -0.8100 h1        1 TM2      0.105700
     34 H1'        -0.8960    0.0830   -1.4910 h2        1 TM2      0.053700
     35 H2'        -2.3340   -2.5880   -1.1340 h1        1 TM2      0.091700
     36 H6          1.0100    0.2580   -0.5630 h4        1 TM2      0.176000
     37 H3          0.0320   -3.2660    2.6320 hn        1 TM2      0.333500
     38 H7C1        2.9640    0.9040    1.2180 h1        1 TM2      0.041200
     39 H7C2        3.6810   -0.5550    2.0350 h1        1 TM2      0.041200
     40 HA         -2.4820   -0.9860   -3.3830 ho        1 TM2      0.427000
     41 HB         -5.2910   -0.4030   -2.4050 ho        1 TM2      0.519000
     42 H8          3.9140   -1.3630   -0.3680 hn        1 TM2      0.350800
     43 H9C1        5.2470    1.2050   -0.1420 h1        1 TM2      0.038700
     44 H9C2        5.6850   -0.0770    1.0740 h1        1 TM2      0.038700
     45 H111        6.2970   -1.6310   -0.8090 h1        1 TM2      0.068700
     46 H112        5.9170   -0.3400   -1.9940 h1        1 TM2      0.068700
@<TRIPOS>BOND
     1    1    2 1   
     2    1    3 1   
     3    1    4 1   
     4    1    5 1   
     5    5    6 1   
     6    6    7 1   
     7    6   30 1   
     8    6   31 1   
     9    7    8 1   
    10    7   20 1   
    11    7   32 1   
    12    8    9 1   
    13    9   10 1   
    14    9   18 1   
    15    9   34 1   
    16   10   11 1   
    17   10   12 1   
    18   11   17 2   
    19   11   36 1   
    20   12   13 2   
    21   12   14 1   
    22   14   15 1   
    23   14   37 1   
    24   15   16 2   
    25   15   17 1   
    26   17   21 1   
    27   18   19 1   
    28   18   20 1   
    29   18   35 1   
    30   19   40 1   
    31   20   28 1   
    32   20   33 1   
    33   21   22 1   
    34   21   38 1   
    35   21   39 1   
    36   22   23 1   
    37   22   42 1   
    38   23   24 1   
    39   23   43 1   
    40   23   44 1   
    41   24   25 1   
    42   24   45 1   
    43   24   46 1   
    44   25   26 1   
    45   25   27 1   
    46   25   29 1   
    47   28   41 1   
@<TRIPOS>SUBSTRUCTURE
     1 TM2         1 TEMP              0 ****  ****    0 ROOT
