@<TRIPOS>MOLECULE
TM2
   47    48     1     0     0
SMALL
bcc


@<TRIPOS>ATOM
      1 P           0.0780   -1.8380   -3.9220 p5        1 TM2      1.448800
      2 O1P         0.1380   -0.9700   -5.1050 o         1 TM2     -0.846000
      3 O2P         1.4060   -2.7760   -3.7950 oh        1 TM2     -0.784400
      4 O3P        -0.1420   -1.4290   -2.5090 o         1 TM2     -0.846000
      5 O5'        -1.0690   -3.0060   -4.1700 os        1 TM2     -0.568200
      6 C5'        -1.2530   -3.9490   -3.1660 c3        1 TM2      0.208400
      7 C4'        -2.4450   -3.5800   -2.2640 c3        1 TM2      0.076100
      8 O4'        -3.1960   -4.7810   -2.0100 os        1 TM2     -0.435600
      9 C1'        -3.7020   -4.7640   -0.6640 c3        1 TM2      0.261500
     10 N1         -3.7190   -6.1240   -0.1440 n         1 TM2     -0.359000
     11 C6         -2.5480   -6.8590   -0.0070 cc        1 TM2      0.060600
     12 C2         -4.9720   -6.7690    0.0230 c         1 TM2      0.813500
     13 O2         -6.0600   -6.1670   -0.1290 o         1 TM2     -0.665500
     14 N3         -4.9780   -8.1200    0.4030 n         1 TM2     -0.592500
     15 C4         -3.8060   -8.8780    0.5850 c         1 TM2      0.722700
     16 O4         -3.9330  -10.0710    0.9120 o         1 TM2     -0.625500
     17 C5         -2.5370   -8.1730    0.3550 cd        1 TM2     -0.255400
     18 C2'        -2.8260   -3.7630    0.1590 c3        1 TM2      0.109100
     19 O2'        -3.6480   -2.9810    0.9900 oh        1 TM2     -0.587800
     20 C3'        -2.0390   -2.9700   -0.9070 c3        1 TM2      0.113100
     21 C7         -1.2670   -8.9480    0.5280 c3        1 TM2      0.235000
     22 N8         -1.0920   -9.4600    1.8730 n3        1 TM2     -0.826200
     23 C9          0.1040  -10.2800    2.0140 c3        1 TM2      0.197800
     24 C11         0.0430  -11.2800    3.1470 c3        1 TM2     -0.297600
     25 S12         1.5220  -12.2620    3.2850 s6        1 TM2      1.426800
     26 O1S         2.5630  -11.3490    3.5770 o         1 TM2     -0.753867
     27 O2S         1.2350  -13.1510    4.3520 o         1 TM2     -0.753867
     28 O3'        -2.4290   -1.6170   -0.8310 oh        1 TM2     -0.644800
     29 O3S         1.6640  -12.9090    2.0340 o         1 TM2     -0.753867
     30 H5'1       -0.3160   -4.0430   -2.5500 h1        1 TM2      0.030200
     31 H5'2       -1.4740   -4.9360   -3.6620 h1        1 TM2      0.030200
     32 H4'        -3.1300   -2.8750   -2.8120 h1        1 TM2      0.079700
     33 H3'        -0.9320   -3.0620   -0.7370 h1        1 TM2      0.083700
     34 H1'        -4.7720   -4.3940   -0.7030 h2        1 TM2      0.105700
     35 H2'        -2.1270   -4.2930    0.8610 h1        1 TM2      0.083700
     36 H6         -1.6160   -6.2960   -0.2110 h4        1 TM2      0.175000
     37 H3         -5.8680   -8.5440    0.5430 hn        1 TM2      0.339500
     38 H7C1       -0.3870   -8.2790    0.3040 h1        1 TM2      0.035200
     39 H7C2       -1.2700   -9.7700   -0.2530 h1        1 TM2      0.035200
     40 HA         -3.9780   -2.2330    0.4720 ho        1 TM2      0.425000
     41 HB         -1.7200   -1.1010   -1.2590 ho        1 TM2      0.483000
     42 H8          1.6990   -2.8690   -2.8950 ho        1 TM2      0.430000
     43 H9C1        0.9630   -9.5710    2.2000 h1        1 TM2      0.040700
     44 H9C2        0.3360  -10.8490    1.0630 h1        1 TM2      0.040700
     45 H111       -0.8220  -11.9730    3.0050 h1        1 TM2      0.069200
     46 H112       -0.1210  -10.7500    4.1160 h1        1 TM2      0.069200
     47 H82        -1.9070   -9.9800    2.1510 hn        1 TM2      0.365800
@<TRIPOS>BOND
     1    1    2 1   
     2    1    3 1   
     3    1    4 1   
     4    1    5 1   
     5    3   42 1   
     6    5    6 1   
     7    6    7 1   
     8    6   30 1   
     9    6   31 1   
    10    7    8 1   
    11    7   20 1   
    12    7   32 1   
    13    8    9 1   
    14    9   10 1   
    15    9   18 1   
    16    9   34 1   
    17   10   11 1   
    18   10   12 1   
    19   11   17 2   
    20   11   36 1   
    21   12   13 2   
    22   12   14 1   
    23   14   15 1   
    24   14   37 1   
    25   15   16 2   
    26   15   17 1   
    27   17   21 1   
    28   18   19 1   
    29   18   20 1   
    30   18   35 1   
    31   19   40 1   
    32   20   28 1   
    33   20   33 1   
    34   21   22 1   
    35   21   38 1   
    36   21   39 1   
    37   22   23 1   
    38   22   47 1   
    39   23   24 1   
    40   23   43 1   
    41   23   44 1   
    42   24   25 1   
    43   24   45 1   
    44   24   46 1   
    45   25   26 1   
    46   25   27 1   
    47   25   29 1   
    48   28   41 1   
@<TRIPOS>SUBSTRUCTURE
     1 TM2         1 TEMP              0 ****  ****    0 ROOT
