@<TRIPOS>MOLECULE
TM2
   47    48     1     0     0
SMALL
bcc


@<TRIPOS>ATOM
      1 P           0.0460   -1.3610   -3.1750 p5        1 TM2      1.446800
      2 O1P         0.3010   -0.5050   -4.3470 o         1 TM2     -0.846000
      3 O2P         1.4490   -2.1580   -2.9460 oh        1 TM2     -0.785400
      4 O3P        -0.5200   -0.9650   -1.8650 o         1 TM2     -0.846000
      5 O5'        -0.8830   -2.6520   -3.6390 os        1 TM2     -0.574200
      6 C5'        -1.0730   -3.6590   -2.6970 c3        1 TM2      0.202400
      7 C4'        -2.4250   -3.5010   -1.9800 c3        1 TM2      0.077100
      8 O4'        -3.0280   -4.8040   -1.8730 os        1 TM2     -0.435600
      9 C1'        -3.7450   -4.8970   -0.6290 c3        1 TM2      0.262500
     10 N1         -3.7270   -6.2780   -0.1680 n         1 TM2     -0.359000
     11 C6         -2.5320   -6.9430    0.0770 cc        1 TM2      0.060600
     12 C2         -4.9480   -6.9980   -0.1400 c         1 TM2      0.813500
     13 O2         -6.0490   -6.4630   -0.4060 o         1 TM2     -0.667500
     14 N3         -4.9100   -8.3520    0.2280 n         1 TM2     -0.592500
     15 C4         -3.7190   -9.0390    0.5300 c         1 TM2      0.721700
     16 O4         -3.8090  -10.2370    0.8530 o         1 TM2     -0.625500
     17 C5         -2.4770   -8.2600    0.4230 cd        1 TM2     -0.255400
     18 C2'        -3.0950   -3.8700    0.3570 c3        1 TM2      0.108100
     19 O2'        -4.0860   -3.2650    1.1480 oh        1 TM2     -0.587800
     20 C3'        -2.3150   -2.9040   -0.5610 c3        1 TM2      0.111100
     21 C7         -1.1850   -8.9650    0.7000 c3        1 TM2      0.230000
     22 N8         -1.1010   -9.4810    2.0550 n3        1 TM2     -0.820200
     23 C9          0.1150  -10.2280    2.3250 c3        1 TM2      0.191800
     24 C11         0.2550  -11.5960    1.6920 c3        1 TM2     -0.328600
     25 S12         1.6670  -12.4920    2.2950 s6        1 TM2      1.427800
     26 O1S         1.5630  -13.7590    1.6670 o         1 TM2     -0.754533
     27 O2S         2.7960  -11.7460    1.8790 o         1 TM2     -0.754533
     28 O3'        -2.9380   -1.6390   -0.5040 oh        1 TM2     -0.646800
     29 O3S         1.5070  -12.5480    3.7030 o         1 TM2     -0.754533
     30 H5'1       -1.0770   -4.6420   -3.2470 h1        1 TM2      0.038200
     31 H5'2       -0.2310   -3.6500   -1.9510 h1        1 TM2      0.038200
     32 H4'        -3.1160   -2.8710   -2.6070 h1        1 TM2      0.077700
     33 H3'        -1.2430   -2.8210   -0.2370 h1        1 TM2      0.088700
     34 H1'        -4.8220   -4.6090   -0.8250 h2        1 TM2      0.103700
     35 H2'        -2.4040   -4.3710    1.0880 h1        1 TM2      0.083700
     36 H6         -1.6210   -6.3220   -0.0300 h4        1 TM2      0.178000
     37 H3         -5.7820   -8.8310    0.2730 hn        1 TM2      0.338500
     38 H7C1       -0.3290   -8.2450    0.5560 h1        1 TM2      0.041200
     39 H7C2       -1.0740   -9.7810   -0.0780 h1        1 TM2      0.041200
     40 HA         -4.4730   -2.5360    0.6430 ho        1 TM2      0.424000
     41 HB         -2.2810   -0.9940   -0.8250 ho        1 TM2      0.483000
     42 H8         -1.9030  -10.0610    2.2390 hn        1 TM2      0.362800
     43 H9C1        0.1550  -10.3550    3.4480 h1        1 TM2      0.058700
     44 H9C2        0.9970   -9.5970    2.0180 h1        1 TM2      0.058700
     45 H111       -0.6570  -12.2090    1.8910 h1        1 TM2      0.067700
     46 H112        0.3430  -11.4980    0.5830 h1        1 TM2      0.067700
     47 H82         2.0320   -2.0860   -3.6930 ho        1 TM2      0.432000
@<TRIPOS>BOND
     1    1    2 1   
     2    1    3 1   
     3    1    4 1   
     4    1    5 1   
     5    3   47 1   
     6    5    6 1   
     7    6    7 1   
     8    6   30 1   
     9    6   31 1   
    10    7    8 1   
    11    7   20 1   
    12    7   32 1   
    13    8    9 1   
    14    9   10 1   
    15    9   18 1   
    16    9   34 1   
    17   10   11 1   
    18   10   12 1   
    19   11   17 2   
    20   11   36 1   
    21   12   13 2   
    22   12   14 1   
    23   14   15 1   
    24   14   37 1   
    25   15   16 2   
    26   15   17 1   
    27   17   21 1   
    28   18   19 1   
    29   18   20 1   
    30   18   35 1   
    31   19   40 1   
    32   20   28 1   
    33   20   33 1   
    34   21   22 1   
    35   21   38 1   
    36   21   39 1   
    37   22   23 1   
    38   22   42 1   
    39   23   24 1   
    40   23   43 1   
    41   23   44 1   
    42   24   25 1   
    43   24   45 1   
    44   24   46 1   
    45   25   26 1   
    46   25   27 1   
    47   25   29 1   
    48   28   41 1   
@<TRIPOS>SUBSTRUCTURE
     1 TM2         1 TEMP              0 ****  ****    0 ROOT
