@<TRIPOS>MOLECULE
TM2
   47    48     1     0     0
SMALL
bcc


@<TRIPOS>ATOM
      1 P           0.0000    0.0000    0.0000 p5        1 TM2      0.743900
      2 O1P         1.6100    0.0000    0.0000 o         1 TM2     -0.648500
      3 O2P        -0.5370    0.0000    1.5180 o         1 TM2     -0.648500
      4 O3P        -0.4930    1.2080   -0.6980 o         1 TM2     -0.648500
      5 O5'        -0.5360   -1.3150   -0.7590 os        1 TM2     -0.474200
      6 C5'        -1.9210   -1.5540   -1.0170 c3        1 TM2      0.286400
      7 C4'        -2.0810   -2.8860   -1.7510 c3        1 TM2      0.141100
      8 O4'        -1.6970   -3.9700   -0.8860 os        1 TM2     -0.343600
      9 C1'        -2.5510   -5.0880   -1.2100 c3        1 TM2      0.195500
     10 N1         -2.6030   -6.0370   -0.0940 n         1 TM2      0.119000
     11 C6         -2.3120   -7.3560   -0.3110 cc        1 TM2     -0.157400
     12 C2         -2.9310   -5.6010    1.1360 c         1 TM2      0.562500
     13 O2         -3.1810   -4.4240    1.3080 o         1 TM2     -0.646500
     14 N3         -2.9860   -6.4500    2.1790 ns        1 TM2     -0.131500
     15 C4         -2.7110   -7.7590    2.0050 c         1 TM2      0.647700
     16 O4         -2.7620   -8.5280    2.9480 o         1 TM2     -0.747500
     17 C5         -2.3600   -8.2300    0.7170 cd        1 TM2     -0.474400
     18 C2'        -3.9370   -4.4340   -1.4340 c3        1 TM2      0.106100
     19 O2'        -4.7510   -5.2420   -2.2880 oh        1 TM2     -0.574800
     20 C3'        -3.5580   -3.1030   -2.1290 c3        1 TM2      0.134100
     21 C7         -2.0430   -9.6870    0.4960 c3        1 TM2      0.115000
     22 N8         -0.6310   -9.9340    0.8150 ny        1 TM2     -0.038000
     23 C9         -0.2850  -11.3480    0.6100 c3        1 TM2      0.010800
     24 C11         1.1900  -11.5660    0.9500 c3        1 TM2     -0.082600
     25 S12         1.6170  -13.3110    0.6990 s6        1 TM2      0.952800
     26 O1S         3.0910  -13.3990    1.0660 o         1 TM2     -0.634533
     27 O2S         0.9660  -14.1280    1.6630 o         1 TM2     -0.634533
     28 O3'        -3.7000   -3.2220   -3.5460 oh        1 TM2     -0.574800
     29 O3S         1.5790  -13.6390   -0.6830 o         1 TM2     -0.634533
     30 H5'1       -2.3170   -0.7540   -1.6310 h1        1 TM2     -0.014300
     31 H5'2       -2.4620   -1.5910   -0.0800 h1        1 TM2     -0.014300
     32 H4'        -1.4680   -2.8960   -2.6450 h1        1 TM2      0.035700
     33 H3'        -4.1670   -2.2920   -1.7480 h1        1 TM2      0.021700
     34 H1'        -2.2110   -5.5750   -2.1160 h2        1 TM2      0.040700
     35 H2'        -4.4290   -4.2450   -0.4870 h1        1 TM2      0.050700
     36 H6         -2.0460   -7.6980   -1.3040 h4        1 TM2      0.128000
     37 H3         -3.2330   -6.1080    3.0870 hn        1 TM2      0.202500
     38 H7C1       -2.6700  -10.2940    1.1380 hx        1 TM2      0.057700
     39 H7C2       -2.2300   -9.9440   -0.5390 hx        1 TM2      0.057700
     40 HA         -5.6370   -5.2440   -1.9670 ho        1 TM2      0.377000
     41 HB         -4.2570   -2.5310   -3.8660 ho        1 TM2      0.380000
     42 H8         -0.4610   -9.6900    1.7700 hn        1 TM2      0.243800
     43 H9C1       -0.4610  -11.6170   -0.4240 hx        1 TM2      0.069200
     44 H9C2       -0.9000  -11.9660    1.2540 hx        1 TM2      0.069200
     45 H111        1.8040  -10.9480    0.3070 h1        1 TM2      0.065700
     46 H112        1.3660  -11.2970    1.9850 h1        1 TM2      0.065700
     47 H82        -0.0560   -9.3640    0.2260 hn        1 TM2      0.243800
@<TRIPOS>BOND
     1    1    2 1   
     2    1    3 1   
     3    1    4 1   
     4    1    5 1   
     5    5    6 1   
     6    6    7 1   
     7    6   30 1   
     8    6   31 1   
     9    7    8 1   
    10    7   20 1   
    11    7   32 1   
    12    8    9 1   
    13    9   10 1   
    14    9   18 1   
    15    9   34 1   
    16   10   11 1   
    17   10   12 1   
    18   11   17 2   
    19   11   36 1   
    20   12   13 2   
    21   12   14 1   
    22   14   15 1   
    23   14   37 1   
    24   15   16 2   
    25   15   17 1   
    26   17   21 1   
    27   18   19 1   
    28   18   20 1   
    29   18   35 1   
    30   19   40 1   
    31   20   28 1   
    32   20   33 1   
    33   21   22 1   
    34   21   38 1   
    35   21   39 1   
    36   22   23 1   
    37   22   42 1   
    38   22   47 1   
    39   23   24 1   
    40   23   43 1   
    41   23   44 1   
    42   24   25 1   
    43   24   45 1   
    44   24   46 1   
    45   25   26 1   
    46   25   27 1   
    47   25   29 1   
    48   28   41 1   
@<TRIPOS>SUBSTRUCTURE
     1 TM2         1 TEMP              0 ****  ****    0 ROOT
