@<TRIPOS>MOLECULE
TM3
   83    87     1     0     0
SMALL
bcc


@<TRIPOS>ATOM
      1 C1          0.1320    0.2900   -0.4020 c3        1 TM3      0.126400
      2 C2          1.6450    0.3280   -0.1600 c3        1 TM3      0.130800
      3 N3          1.9930    0.1000    1.2390 n3        1 TM3     -0.725600
      4 C4          1.3230   -1.0760    1.7810 c3        1 TM3      0.130800
      5 C5         -0.1810   -1.0880    1.4880 c3        1 TM3      0.126400
      6 O6         -0.4520   -0.9050    0.1030 os        1 TM3     -0.415600
      7 C13         3.4380    0.0680    1.4270 c3        1 TM3      0.170800
      8 C14         3.8650    0.0700    2.8940 c3        1 TM3     -0.092400
      9 C15         5.3790    0.2800    2.9560 c3        1 TM3      0.186800
     10 N16         5.8800    0.2200    4.3170 nh        1 TM3     -0.771200
     11 C17         7.2520    0.4970    4.4830 cc        1 TM3      0.622700
     12 N23         8.1830    0.6130    3.4890 nd        1 TM3     -0.621100
     13 C24         9.4140    0.7840    4.1470 ca        1 TM3      0.103400
     14 C25         9.2150    0.7820    5.5850 ca        1 TM3     -0.082200
     15 N26         7.8430    0.5490    5.7940 na        1 TM3     -0.177300
     16 C32        10.2760    0.9640    6.4710 ca        1 TM3     -0.108000
     17 C33        11.5490    1.1340    5.9270 ca        1 TM3     -0.112300
     18 C34        11.7550    1.1200    4.5350 ca        1 TM3     -0.133000
     19 C35        10.7080    0.9510    3.6390 ca        1 TM3     -0.092000
     20 C41         7.1660    0.6370    7.0480 c3        1 TM3      0.005000
     21 C42         6.7110    2.0380    7.4230 ca        1 TM3      0.354600
     22 C45         7.3470    2.7110    8.5010 ca        1 TM3      0.020800
     23 C46         6.9210    4.0010    8.8500 ca        1 TM3     -0.170000
     24 C47         5.8890    4.5780    8.1170 ca        1 TM3     -0.199300
     25 C48         5.3050    3.8530    7.0530 ca        1 TM3      0.387600
     26 N49         5.7140    2.6060    6.7170 nb        1 TM3     -0.653000
     27 O56         8.3550    2.0490    9.1570 oh        1 TM3     -0.491100
     28 C58         4.2040    4.4870    6.2650 c3        1 TM3     -0.146400
     29 C60        12.7180    1.3720    6.8390 c3        1 TM3      0.235100
     30 N61        12.8800    0.3350    7.8380 nh        1 TM3     -0.731600
     31 C62        14.1110    0.2420    8.5060 ca        1 TM3      0.157600
     32 C66        14.9590    1.3680    8.6230 ca        1 TM3     -0.191000
     33 C67        16.1390    1.3110    9.3640 ca        1 TM3     -0.044300
     34 C68        16.4990    0.1210   10.0030 ca        1 TM3     -0.172000
     35 C69        15.6770   -0.9950    9.8950 ca        1 TM3     -0.090000
     36 C70        14.4910   -0.9640    9.1580 ca        1 TM3     -0.140300
     37 C77        17.0120    2.5050    9.4560 c3        1 TM3     -0.054800
     38 C79        13.6600   -2.1980    9.0970 c3        1 TM3     -0.032100
     39 C80        13.8760   -2.9670    7.8080 c3        1 TM3     -0.084400
     40 C81        12.9780   -4.1920    7.7660 c3        1 TM3      0.130400
     41 O82        13.2850   -4.8900    6.5700 oh        1 TM3     -0.599800
     42 H1         -0.0810    0.2620   -1.5030 h1        1 TM3      0.053200
     43 H1A        -0.3670    1.1790    0.0660 h1        1 TM3      0.053200
     44 H2          2.1330   -0.4310   -0.8390 h1        1 TM3      0.041450
     45 H2A         2.0260    1.3470   -0.4470 h1        1 TM3      0.041450
     46 H4          1.4650   -1.0660    2.8970 h1        1 TM3      0.041450
     47 H4A         1.7730   -2.0320    1.3810 h1        1 TM3      0.041450
     48 H5         -0.7060   -0.2930    2.0800 h1        1 TM3      0.053200
     49 H5A        -0.6120   -2.0950    1.7260 h1        1 TM3      0.053200
     50 H13         3.8570    0.9900    0.9300 h1        1 TM3      0.036700
     51 H13A        3.9050   -0.8300    0.9210 h1        1 TM3      0.036700
     52 H14         3.3360    0.8860    3.4500 hc        1 TM3      0.055200
     53 H14A        3.5930   -0.9050    3.3750 hc        1 TM3      0.055200
     54 H15         5.8940   -0.5320    2.3680 h1        1 TM3      0.056700
     55 H15A        5.6300    1.2660    2.4650 h1        1 TM3      0.056700
     56 HN16        5.3010    0.7110    4.9730 hn        1 TM3      0.416800
     57 H32        10.1130    0.9870    7.5590 ha        1 TM3      0.152000
     58 H34        12.7760    1.2490    4.1440 ha        1 TM3      0.132000
     59 H35        10.8840    0.9460    2.5540 ha        1 TM3      0.147000
     60 H41         6.2690   -0.0470    7.0260 h1        1 TM3      0.086200
     61 H41A        7.8740    0.2690    7.8490 h1        1 TM3      0.086200
     62 H46         7.3970    4.5430    9.6800 ha        1 TM3      0.144000
     63 H47         5.5300    5.5880    8.3590 ha        1 TM3      0.148000
     64 HO56        8.7250    2.6490    9.8230 ho        1 TM3      0.429000
     65 H58         3.9060    5.4580    6.7310 hc        1 TM3      0.054700
     66 H58A        3.3070    3.8210    6.2250 hc        1 TM3      0.054700
     67 H58B        4.5430    4.6830    5.2170 hc        1 TM3      0.054700
     68 H60        12.5490    2.3450    7.3890 h1        1 TM3      0.044700
     69 H66        14.6910    2.3170    8.1340 ha        1 TM3      0.132000
     70 H68        17.4280    0.0690   10.5880 ha        1 TM3      0.130000
     71 H69        15.9680   -1.9290   10.4000 ha        1 TM3      0.128000
     72 H77        17.7110    2.5340    8.5820 hc        1 TM3      0.043700
     73 H77A       17.6240    2.4820   10.3920 hc        1 TM3      0.043700
     74 H77B       16.4080    3.4450    9.4510 hc        1 TM3      0.043700
     75 H79        13.9240   -2.8660    9.9630 hc        1 TM3      0.046700
     76 H79A       12.5710   -1.9500    9.2180 hc        1 TM3      0.046700
     77 H80        13.6620   -2.3230    6.9160 hc        1 TM3      0.058200
     78 H80A       14.9470   -3.2890    7.7290 hc        1 TM3      0.058200
     79 H81        13.1700   -4.8540    8.6530 h1        1 TM3      0.019700
     80 H81A       11.8960   -3.8890    7.7690 h1        1 TM3      0.019700
     81 HO82       12.6770   -5.6360    6.5230 ho        1 TM3      0.399000
     82 HO83       12.5150   -0.5490    7.5450 hn        1 TM3      0.403800
     83 HO84       13.6560    1.4960    6.2200 h1        1 TM3      0.044700
@<TRIPOS>BOND
     1    1    2 1   
     2    1    6 1   
     3    1   42 1   
     4    1   43 1   
     5    2    3 1   
     6    2   44 1   
     7    2   45 1   
     8    3    4 1   
     9    3    7 1   
    10    4    5 1   
    11    4   46 1   
    12    4   47 1   
    13    5    6 1   
    14    5   48 1   
    15    5   49 1   
    16    7    8 1   
    17    7   50 1   
    18    7   51 1   
    19    8    9 1   
    20    8   52 1   
    21    8   53 1   
    22    9   10 1   
    23    9   54 1   
    24    9   55 1   
    25   10   11 1   
    26   10   56 1   
    27   11   12 2   
    28   11   15 1   
    29   12   13 1   
    30   13   14 ar  
    31   13   19 ar  
    32   14   15 1   
    33   14   16 ar  
    34   15   20 1   
    35   16   17 ar  
    36   16   57 1   
    37   17   18 ar  
    38   17   29 1   
    39   18   19 ar  
    40   18   58 1   
    41   19   59 1   
    42   20   21 1   
    43   20   60 1   
    44   20   61 1   
    45   21   22 ar  
    46   21   26 ar  
    47   22   23 ar  
    48   22   27 1   
    49   23   24 ar  
    50   23   62 1   
    51   24   25 ar  
    52   24   63 1   
    53   25   26 ar  
    54   25   28 1   
    55   27   64 1   
    56   28   65 1   
    57   28   66 1   
    58   28   67 1   
    59   29   30 1   
    60   29   68 1   
    61   29   83 1   
    62   30   31 1   
    63   30   82 1   
    64   31   32 ar  
    65   31   36 ar  
    66   32   33 ar  
    67   32   69 1   
    68   33   34 ar  
    69   33   37 1   
    70   34   35 ar  
    71   34   70 1   
    72   35   36 ar  
    73   35   71 1   
    74   36   38 1   
    75   37   72 1   
    76   37   73 1   
    77   37   74 1   
    78   38   39 1   
    79   38   75 1   
    80   38   76 1   
    81   39   40 1   
    82   39   77 1   
    83   39   78 1   
    84   40   41 1   
    85   40   79 1   
    86   40   80 1   
    87   41   81 1   
@<TRIPOS>SUBSTRUCTURE
     1 TM3         1 TEMP              0 ****  ****    0 ROOT
