@<TRIPOS>MOLECULE
TM3
   83    87     1     0     0
SMALL
bcc


@<TRIPOS>ATOM
      1 C1         10.1620    1.2360   -0.9290 c3        1 TM3      0.126400
      2 C2          8.7180    1.4560   -1.3910 c3        1 TM3      0.130300
      3 N3          7.7440    1.1560   -0.3480 n3        1 TM3     -0.726600
      4 C4          8.0800    1.8050    0.9130 c3        1 TM3      0.130300
      5 C5          9.5410    1.5840    1.3210 c3        1 TM3      0.126400
      6 O6         10.4410    1.9370    0.2770 os        1 TM3     -0.414600
      7 C13         6.3860    1.4460   -0.7900 c3        1 TM3      0.170800
      8 C14         5.3080    0.9220    0.1590 c3        1 TM3     -0.095400
      9 C15         3.9490    1.0630   -0.5260 c3        1 TM3      0.193800
     10 N16         2.8550    0.6530    0.3350 nh        1 TM3     -0.776200
     11 C17         1.6000    0.5070   -0.2680 cc        1 TM3      0.634700
     12 N23         1.2150    1.0600   -1.4580 nd        1 TM3     -0.623100
     13 C24        -0.1550    0.7680   -1.5800 ca        1 TM3      0.113400
     14 C25        -0.6110    0.0080   -0.4300 ca        1 TM3     -0.101200
     15 N26         0.5000   -0.1270    0.4300 na        1 TM3     -0.184300
     16 C32        -1.9460   -0.3700   -0.2940 ca        1 TM3     -0.127000
     17 C33        -2.8280   -0.0230   -1.3200 ca        1 TM3     -0.105300
     18 C34        -2.3910    0.6980   -2.4430 ca        1 TM3     -0.128000
     19 C35        -1.0690    1.1020   -2.5850 ca        1 TM3     -0.091000
     20 C41         0.6330   -1.1330    1.4380 c3        1 TM3     -0.010000
     21 C42         1.2990   -2.4240    0.9850 ca        1 TM3      0.303600
     22 C45         0.5200   -3.5280    0.5640 ca        1 TM3      0.023800
     23 C46         1.1640   -4.7330    0.2210 ca        1 TM3     -0.111000
     24 C47         2.5480   -4.7830    0.2860 ca        1 TM3     -0.210300
     25 C48         3.2670   -3.6280    0.6830 ca        1 TM3      0.393600
     26 N49         2.6500   -2.4770    1.0240 nb        1 TM3     -0.663000
     27 O56        -0.8520   -3.5270    0.5160 oh        1 TM3     -0.495100
     28 C58         4.7600   -3.7030    0.7370 c3        1 TM3     -0.148400
     29 C60        -4.2650   -0.4500   -1.2280 c3        1 TM3      0.231100
     30 N61        -4.9300    0.0630   -0.0470 nh        1 TM3     -0.729600
     31 C62        -6.3350    0.0230   -0.0110 ca        1 TM3      0.153600
     32 C66        -7.0540   -0.9160   -0.7840 ca        1 TM3     -0.188000
     33 C67        -8.4410   -1.0250   -0.6830 ca        1 TM3     -0.044300
     34 C68        -9.1400   -0.1890    0.1910 ca        1 TM3     -0.169000
     35 C69        -8.4460    0.7430    0.9560 ca        1 TM3     -0.091000
     36 C70        -7.0580    0.8700    0.8750 ca        1 TM3     -0.138300
     37 C77        -9.1630   -2.0340   -1.4940 c3        1 TM3     -0.054800
     38 C79        -6.3860    1.8850    1.7340 c3        1 TM3     -0.033100
     39 C80        -6.0680    3.1550    0.9710 c3        1 TM3     -0.084400
     40 C81        -5.3500    4.1470    1.8720 c3        1 TM3      0.130400
     41 O82        -5.1250    5.3180    1.1030 oh        1 TM3     -0.600800
     42 H1         10.3690    0.1430   -0.7840 h1        1 TM3      0.053450
     43 H1A        10.8770    1.6690   -1.6760 h1        1 TM3      0.053450
     44 H2          8.6200    2.5200   -1.7570 h1        1 TM3      0.041700
     45 H2A         8.5130    0.7710   -2.2600 h1        1 TM3      0.041700
     46 H4          7.8840    2.9160    0.8740 h1        1 TM3      0.041700
     47 H4A         7.4210    1.3640    1.7120 h1        1 TM3      0.041700
     48 H5          9.8130    2.2680    2.1670 h1        1 TM3      0.053450
     49 H5A         9.7120    0.5160    1.6180 h1        1 TM3      0.053450
     50 H13         6.2220    2.5540   -0.9380 h1        1 TM3      0.037200
     51 H13A        6.2500    0.9480   -1.7940 h1        1 TM3      0.037200
     52 H14         5.5040   -0.1520    0.4140 hc        1 TM3      0.055700
     53 H14A        5.3210    1.5090    1.1140 hc        1 TM3      0.055700
     54 H15         3.7730    2.1430   -0.8010 h1        1 TM3      0.057200
     55 H15A        3.9620    0.4680   -1.4850 h1        1 TM3      0.057200
     56 HN16        3.0940   -0.0670    0.9870 hn        1 TM3      0.428800
     57 H32        -2.3120   -0.9020    0.5960 ha        1 TM3      0.142000
     58 H34        -3.1160    0.9560   -3.2310 ha        1 TM3      0.136000
     59 H35        -0.7440    1.6800   -3.4630 ha        1 TM3      0.151000
     60 H41         1.2240   -0.6910    2.2940 h1        1 TM3      0.081200
     61 H41A       -0.3970   -1.3810    1.8280 h1        1 TM3      0.081200
     62 H46         0.5640   -5.6010   -0.0870 ha        1 TM3      0.160000
     63 H47         3.0910   -5.7020    0.0260 ha        1 TM3      0.149000
     64 HO56       -1.1430   -2.6340    0.2690 ho        1 TM3      0.433000
     65 H58         5.1330   -4.3790   -0.0700 hc        1 TM3      0.055033
     66 H58A        5.2360   -2.6990    0.6100 hc        1 TM3      0.055033
     67 H58B        5.0730   -4.1190    1.7280 hc        1 TM3      0.055033
     68 H60        -4.8070   -0.1440   -2.1730 h1        1 TM3      0.046700
     69 H66        -6.5240   -1.5880   -1.4760 ha        1 TM3      0.132000
     70 H68       -10.2330   -0.2660    0.2730 ha        1 TM3      0.131000
     71 H69        -9.0040    1.3990    1.6430 ha        1 TM3      0.128000
     72 H77        -9.1510   -3.0230   -0.9680 hc        1 TM3      0.043700
     73 H77A      -10.2280   -1.7350   -1.6520 hc        1 TM3      0.043700
     74 H77B       -8.6800   -2.1650   -2.4940 hc        1 TM3      0.043700
     75 H79        -7.0590    2.1430    2.5980 hc        1 TM3      0.047700
     76 H79A       -5.4480    1.4630    2.1870 hc        1 TM3      0.047700
     77 H80        -5.4260    2.9380    0.0790 hc        1 TM3      0.057700
     78 H80A       -7.0130    3.6200    0.5880 hc        1 TM3      0.057700
     79 H81        -5.9800    4.3950    2.7680 h1        1 TM3      0.019700
     80 H81A       -4.3710    3.7240    2.2250 h1        1 TM3      0.019700
     81 HO82       -4.6370    5.9280    1.6680 ho        1 TM3      0.399000
     82 HO83       -4.5500    0.9350    0.2630 hn        1 TM3      0.401800
     83 HO84       -4.3010   -1.5780   -1.1720 h1        1 TM3      0.046700
@<TRIPOS>BOND
     1    1    2 1   
     2    1    6 1   
     3    1   42 1   
     4    1   43 1   
     5    2    3 1   
     6    2   44 1   
     7    2   45 1   
     8    3    4 1   
     9    3    7 1   
    10    4    5 1   
    11    4   46 1   
    12    4   47 1   
    13    5    6 1   
    14    5   48 1   
    15    5   49 1   
    16    7    8 1   
    17    7   50 1   
    18    7   51 1   
    19    8    9 1   
    20    8   52 1   
    21    8   53 1   
    22    9   10 1   
    23    9   54 1   
    24    9   55 1   
    25   10   11 1   
    26   10   56 1   
    27   11   12 2   
    28   11   15 1   
    29   12   13 1   
    30   13   14 ar  
    31   13   19 ar  
    32   14   15 1   
    33   14   16 ar  
    34   15   20 1   
    35   16   17 ar  
    36   16   57 1   
    37   17   18 ar  
    38   17   29 1   
    39   18   19 ar  
    40   18   58 1   
    41   19   59 1   
    42   20   21 1   
    43   20   60 1   
    44   20   61 1   
    45   21   22 ar  
    46   21   26 ar  
    47   22   23 ar  
    48   22   27 1   
    49   23   24 ar  
    50   23   62 1   
    51   24   25 ar  
    52   24   63 1   
    53   25   26 ar  
    54   25   28 1   
    55   27   64 1   
    56   28   65 1   
    57   28   66 1   
    58   28   67 1   
    59   29   30 1   
    60   29   68 1   
    61   29   83 1   
    62   30   31 1   
    63   30   82 1   
    64   31   32 ar  
    65   31   36 ar  
    66   32   33 ar  
    67   32   69 1   
    68   33   34 ar  
    69   33   37 1   
    70   34   35 ar  
    71   34   70 1   
    72   35   36 ar  
    73   35   71 1   
    74   36   38 1   
    75   37   72 1   
    76   37   73 1   
    77   37   74 1   
    78   38   39 1   
    79   38   75 1   
    80   38   76 1   
    81   39   40 1   
    82   39   77 1   
    83   39   78 1   
    84   40   41 1   
    85   40   79 1   
    86   40   80 1   
    87   41   81 1   
@<TRIPOS>SUBSTRUCTURE
     1 TM3         1 TEMP              0 ****  ****    0 ROOT
