@<TRIPOS>MOLECULE
TM3
   83    87     1     0     0
SMALL
bcc


@<TRIPOS>ATOM
      1 C1          0.1320    0.2810   -0.4020 c3        1 TM3      0.126400
      2 C2          1.6450    0.3170   -0.1610 c3        1 TM3      0.130800
      3 N3          1.9940    0.0920    1.2380 n3        1 TM3     -0.725600
      4 C4          1.3220   -1.0810    1.7840 c3        1 TM3      0.130800
      5 C5         -0.1820   -1.0910    1.4920 c3        1 TM3      0.126400
      6 O6         -0.4540   -0.9110    0.1070 os        1 TM3     -0.415600
      7 C13         3.4390    0.0580    1.4250 c3        1 TM3      0.170800
      8 C14         3.8670    0.0650    2.8920 c3        1 TM3     -0.092400
      9 C15         5.3800    0.2730    2.9530 c3        1 TM3      0.186800
     10 N16         5.8820    0.2170    4.3150 nu        1 TM3     -0.771200
     11 C17         7.2540    0.4920    4.4790 cc        1 TM3      0.622700
     12 N23         8.1850    0.6010    3.4840 nd        1 TM3     -0.621100
     13 C24         9.4170    0.7730    4.1410 ca        1 TM3      0.103400
     14 C25         9.2180    0.7780    5.5780 ca        1 TM3     -0.082200
     15 N26         7.8470    0.5490    5.7890 na        1 TM3     -0.177300
     16 C32        10.2810    0.9630    6.4630 ca        1 TM3     -0.108000
     17 C33        11.5540    1.1270    5.9180 ca        1 TM3     -0.112300
     18 C34        11.7590    1.1060    4.5260 ca        1 TM3     -0.133000
     19 C35        10.7110    0.9350    3.6310 ca        1 TM3     -0.092000
     20 C41         7.1700    0.6440    7.0420 c3        1 TM3      0.006000
     21 C42         6.7170    2.0480    7.4110 ca        1 TM3      0.354600
     22 C45         7.3550    2.7250    8.4860 ca        1 TM3      0.020800
     23 C46         6.9310    4.0160    8.8290 ca        1 TM3     -0.170000
     24 C47         5.8990    4.5910    8.0950 ca        1 TM3     -0.199300
     25 C48         5.3120    3.8620    7.0350 ca        1 TM3      0.387600
     26 N49         5.7200    2.6130    6.7050 nb        1 TM3     -0.653000
     27 O56         8.3630    2.0640    9.1440 oh        1 TM3     -0.491100
     28 C58         4.2110    4.4940    6.2450 c3        1 TM3     -0.146400
     29 C60        12.7230    1.3690    6.8280 c3        1 TM3      0.235100
     30 N61        12.8810    0.3390    7.8350 nu        1 TM3     -0.731600
     31 C62        14.1120    0.2460    8.5040 ca        1 TM3      0.157600
     32 C66        14.9650    1.3690    8.6110 ca        1 TM3     -0.191000
     33 C67        16.1450    1.3130    9.3530 ca        1 TM3     -0.044300
     34 C68        16.5010    0.1270   10.0000 ca        1 TM3     -0.172000
     35 C69        15.6730   -0.9860    9.9020 ca        1 TM3     -0.090000
     36 C70        14.4870   -0.9560    9.1670 ca        1 TM3     -0.140300
     37 C77        17.0080    2.5140    9.4600 c3        1 TM3     -0.053800
     38 C79        13.6500   -2.1870    9.1160 c3        1 TM3     -0.032100
     39 C80        13.8630   -2.9670    7.8340 c3        1 TM3     -0.084400
     40 C81        12.9600   -4.1890    7.8030 c3        1 TM3      0.130400
     41 O82        13.2630   -4.9000    6.6130 oh        1 TM3     -0.599800
     42 H1         -0.3650    1.1720    0.0640 h1        1 TM3      0.053200
     43 H1A        -0.0820    0.2500   -1.5020 h1        1 TM3      0.053200
     44 H2          2.1310   -0.4450   -0.8380 h1        1 TM3      0.041450
     45 H2A         2.0280    1.3340   -0.4510 h1        1 TM3      0.041450
     46 H4          1.4640   -1.0670    2.9010 h1        1 TM3      0.041450
     47 H4A         1.7700   -2.0380    1.3870 h1        1 TM3      0.041450
     48 H5         -0.6150   -2.0970    1.7330 h1        1 TM3      0.053200
     49 H5A        -0.7060   -0.2930    2.0830 h1        1 TM3      0.053200
     50 H13         3.8590    0.9770    0.9250 h1        1 TM3      0.036700
     51 H13A        3.9030   -0.8420    0.9230 h1        1 TM3      0.036700
     52 H14         3.3390    0.8850    3.4460 hc        1 TM3      0.055200
     53 H14A        3.5920   -0.9070    3.3780 hc        1 TM3      0.055200
     54 H15         5.6330    1.2550    2.4580 h1        1 TM3      0.056700
     55 H15A        5.8940   -0.5430    2.3690 h1        1 TM3      0.056700
     56 HN16        5.3040    0.7110    4.9680 hn        1 TM3      0.416800
     57 H32        10.1180    0.9920    7.5510 ha        1 TM3      0.152000
     58 H34        12.7800    1.2320    4.1340 ha        1 TM3      0.132000
     59 H35        10.8870    0.9240    2.5460 ha        1 TM3      0.147000
     60 H41         6.2710   -0.0390    7.0240 h1        1 TM3      0.086200
     61 H41A        7.8770    0.2780    7.8450 h1        1 TM3      0.086200
     62 H46         7.4080    4.5610    9.6560 ha        1 TM3      0.144000
     63 H47         5.5420    5.6030    8.3330 ha        1 TM3      0.148000
     64 HO56        8.7350    2.6670    9.8060 ho        1 TM3      0.429000
     65 H58         3.9140    5.4670    6.7080 hc        1 TM3      0.054700
     66 H58A        3.3140    3.8280    6.2090 hc        1 TM3      0.054700
     67 H58B        4.5500    4.6860    5.1970 hc        1 TM3      0.054700
     68 H60        13.6620    1.4830    6.2080 h1        1 TM3      0.044700
     69 H66        14.7030    2.3150    8.1130 ha        1 TM3      0.132000
     70 H68        17.4310    0.0740   10.5820 ha        1 TM3      0.130000
     71 H69        15.9610   -1.9180   10.4140 ha        1 TM3      0.128000
     72 H77        16.9730    3.1180    8.5200 hc        1 TM3      0.043367
     73 H77A       16.6570    3.1590   10.3040 hc        1 TM3      0.043367
     74 H77B       18.0700    2.2270    9.6570 hc        1 TM3      0.043367
     75 H79        13.9110   -2.8490    9.9880 hc        1 TM3      0.046700
     76 H79A       12.5620   -1.9330    9.2350 hc        1 TM3      0.046700
     77 H80        13.6510   -2.3310    6.9370 hc        1 TM3      0.058200
     78 H80A       14.9320   -3.2960    7.7570 hc        1 TM3      0.058200
     79 H81        11.8790   -3.8820    7.8030 h1        1 TM3      0.019700
     80 H81A       13.1490   -4.8450    8.6950 h1        1 TM3      0.019700
     81 HO82       12.6520   -5.6440    6.5730 ho        1 TM3      0.399000
     82 HO83       12.5130   -0.5470    7.5490 hn        1 TM3      0.403800
     83 HO84       12.5590    2.3470    7.3700 h1        1 TM3      0.044700
@<TRIPOS>BOND
     1    1    2 1   
     2    1    6 1   
     3    1   42 1   
     4    1   43 1   
     5    2    3 1   
     6    2   44 1   
     7    2   45 1   
     8    3    4 1   
     9    3    7 1   
    10    4    5 1   
    11    4   46 1   
    12    4   47 1   
    13    5    6 1   
    14    5   48 1   
    15    5   49 1   
    16    7    8 1   
    17    7   50 1   
    18    7   51 1   
    19    8    9 1   
    20    8   52 1   
    21    8   53 1   
    22    9   10 1   
    23    9   54 1   
    24    9   55 1   
    25   10   11 1   
    26   10   56 1   
    27   11   12 2   
    28   11   15 1   
    29   12   13 1   
    30   13   14 ar  
    31   13   19 ar  
    32   14   15 1   
    33   14   16 ar  
    34   15   20 1   
    35   16   17 ar  
    36   16   57 1   
    37   17   18 ar  
    38   17   29 1   
    39   18   19 ar  
    40   18   58 1   
    41   19   59 1   
    42   20   21 1   
    43   20   60 1   
    44   20   61 1   
    45   21   22 ar  
    46   21   26 ar  
    47   22   23 ar  
    48   22   27 1   
    49   23   24 ar  
    50   23   62 1   
    51   24   25 ar  
    52   24   63 1   
    53   25   26 ar  
    54   25   28 1   
    55   27   64 1   
    56   28   65 1   
    57   28   66 1   
    58   28   67 1   
    59   29   30 1   
    60   29   68 1   
    61   29   83 1   
    62   30   31 1   
    63   30   82 1   
    64   31   32 ar  
    65   31   36 ar  
    66   32   33 ar  
    67   32   69 1   
    68   33   34 ar  
    69   33   37 1   
    70   34   35 ar  
    71   34   70 1   
    72   35   36 ar  
    73   35   71 1   
    74   36   38 1   
    75   37   72 1   
    76   37   73 1   
    77   37   74 1   
    78   38   39 1   
    79   38   75 1   
    80   38   76 1   
    81   39   40 1   
    82   39   77 1   
    83   39   78 1   
    84   40   41 1   
    85   40   79 1   
    86   40   80 1   
    87   41   81 1   
@<TRIPOS>SUBSTRUCTURE
     1 TM3         1 TEMP              0 ****  ****    0 ROOT
