@<TRIPOS>MOLECULE
TM3
   85    89     1     0     0
SMALL
bcc


@<TRIPOS>ATOM
      1 C1          0.2550    0.9650   -0.1820 c3        1 TM3      0.125900
      2 C2          1.7490    0.7690    0.1060 c3        1 TM3      0.131300
      3 N3          1.9960    0.2690    1.4550 n3        1 TM3     -0.737600
      4 C4          1.1520   -0.8730    1.7880 c3        1 TM3      0.131300
      5 C5         -0.3260   -0.6290    1.4540 c3        1 TM3      0.125900
      6 O6         -0.4870   -0.2130    0.1050 os        1 TM3     -0.396600
      7 C13         3.4050    0.0180    1.7030 c3        1 TM3      0.184800
      8 C14         3.7570    0.2050    3.1880 c3        1 TM3     -0.119400
      9 C15         5.2700    0.1100    3.3330 c3        1 TM3      0.122800
     10 N16         5.6860    0.3080    4.7610 n4        1 TM3     -0.716000
     11 C17         7.1360    0.2590    4.9550 cc        1 TM3      0.462700
     12 N23         8.0330   -0.1370    4.0120 nd        1 TM3     -0.492100
     13 C24         9.2850   -0.0000    4.6270 ca        1 TM3      0.083400
     14 C25         9.1190    0.4890    5.9850 ca        1 TM3     -0.047200
     15 N26         7.7400    0.6310    6.1930 na        1 TM3     -0.132300
     16 C32        10.2280    0.7120    6.8160 ca        1 TM3     -0.087000
     17 C33        11.4860    0.4610    6.2810 ca        1 TM3     -0.120300
     18 C34        11.6540   -0.0110    4.9580 ca        1 TM3     -0.135000
     19 C35        10.5760   -0.2490    4.1250 ca        1 TM3     -0.034000
     20 C41         7.0850    1.1340    7.3700 c3        1 TM3     -0.010000
     21 C42         6.4420    2.4950    7.2230 ca        1 TM3      0.326600
     22 C45         6.7730    3.5240    8.1330 ca        1 TM3      0.049800
     23 C46         6.1130    4.7670    8.0360 ca        1 TM3     -0.139000
     24 C47         5.1690    4.9390    7.0390 ca        1 TM3     -0.170300
     25 C48         4.8920    3.8660    6.1440 ca        1 TM3      0.422600
     26 N49         5.5190    2.6800    6.2460 nb        1 TM3     -0.744000
     27 O56         7.7360    3.2570    9.0700 oh        1 TM3     -0.501100
     28 C58         3.8690    4.0950    5.0800 c3        1 TM3     -0.163400
     29 C60        12.7030    0.7770    7.0930 c3        1 TM3      0.163100
     30 N61        13.5040   -0.4400    7.4290 n4        1 TM3     -0.625400
     31 C62        14.5550   -0.2060    8.4280 ca        1 TM3     -0.051400
     32 C66        15.1140    1.0740    8.5890 ca        1 TM3     -0.119000
     33 C67        16.1170    1.2860    9.5370 ca        1 TM3     -0.038300
     34 C68        16.5580    0.2120   10.3240 ca        1 TM3     -0.077000
     35 C69        16.0120   -1.0540   10.1550 ca        1 TM3     -0.099000
     36 C70        15.0100   -1.2950    9.2050 ca        1 TM3     -0.054300
     37 C77        16.7210    2.6270    9.7080 c3        1 TM3     -0.074800
     38 C79        14.4810   -2.6780    9.0420 c3        1 TM3     -0.061100
     39 C80        14.9520   -3.3240    7.7480 c3        1 TM3     -0.095400
     40 C81        13.8260   -4.0230    7.0090 c3        1 TM3      0.122400
     41 O82        12.9400   -3.0140    6.5240 oh        1 TM3     -0.682800
     42 H1         -0.1530    1.8260    0.4110 h1        1 TM3      0.065200
     43 H1A         0.0950    1.1380   -1.2790 h1        1 TM3      0.065200
     44 H2          2.1740    0.0730   -0.6740 h1        1 TM3      0.042700
     45 H2A         2.2640    1.7650    0.0060 h1        1 TM3      0.042700
     46 H4          1.4880   -1.8060    1.2480 h1        1 TM3      0.042700
     47 H4A         1.2420   -1.0580    2.8940 h1        1 TM3      0.042700
     48 H5         -0.7670    0.1370    2.1440 h1        1 TM3      0.065200
     49 H5A        -0.9000   -1.5910    1.5220 h1        1 TM3      0.065200
     50 H13         3.7170   -1.0230    1.3960 h1        1 TM3      0.045200
     51 H13A        4.0170    0.7490    1.1010 h1        1 TM3      0.045200
     52 H14         3.2490   -0.5870    3.7980 hc        1 TM3      0.072200
     53 H14A        3.3850    1.2040    3.5400 hc        1 TM3      0.072200
     54 H15         5.6340   -0.9000    2.9890 hx        1 TM3      0.115700
     55 H15A        5.7770    0.9050    2.7140 hx        1 TM3      0.115700
     56 HN16        5.3450    1.2560    5.1050 hn        1 TM3      0.486800
     57 H32        10.1000    1.0890    7.8420 ha        1 TM3      0.162000
     58 H34        12.6730   -0.1790    4.5730 ha        1 TM3      0.151000
     59 H35        10.7130   -0.6130    3.0940 ha        1 TM3      0.184000
     60 H41         7.8560    1.1840    8.1970 h1        1 TM3      0.099200
     61 H41A        6.2910    0.3890    7.6760 h1        1 TM3      0.099200
     62 H46         6.3480    5.5790    8.7430 ha        1 TM3      0.173000
     63 H47         4.6270    5.8910    6.9250 ha        1 TM3      0.180000
     64 HO56        7.7880    4.0120    9.6810 ho        1 TM3      0.453000
     65 H58         3.7230    3.2040    4.4210 hc        1 TM3      0.070033
     66 H58A        4.1830    4.9600    4.4440 hc        1 TM3      0.070033
     67 H58B        2.8880    4.3440    5.5590 hc        1 TM3      0.070033
     68 H60        12.4200    1.2800    8.0640 hx        1 TM3      0.112700
     69 H66        14.7860    1.9300    7.9780 ha        1 TM3      0.148000
     70 H68        17.3470    0.3770   11.0780 ha        1 TM3      0.174000
     71 H69        16.3750   -1.8920   10.7750 ha        1 TM3      0.170000
     72 H77        16.7320    2.9150   10.7900 hc        1 TM3      0.069367
     73 H77A       16.1620    3.4090    9.1400 hc        1 TM3      0.069367
     74 H77B       17.7810    2.6170    9.3430 hc        1 TM3      0.069367
     75 H79        14.8190   -3.3100    9.9100 hc        1 TM3      0.071200
     76 H79A       13.3570   -2.6730    9.0910 hc        1 TM3      0.071200
     77 H80        15.4220   -2.5640    7.0700 hc        1 TM3      0.069700
     78 H80A       15.7420   -4.0890    7.9760 hc        1 TM3      0.069700
     79 H81        13.2620   -4.7130    7.6920 h1        1 TM3      0.057700
     80 H81A       14.2360   -4.6080    6.1430 h1        1 TM3      0.057700
     81 HO82       12.2740   -3.4610    5.9890 ho        1 TM3      0.432000
     82 HO83       13.9370   -0.8220    6.5750 hn        1 TM3      0.467300
     83 HO84       13.3640    1.4790    6.5030 hx        1 TM3      0.112700
     84 H162        5.2590   -0.4240    5.3420 hn        1 TM3      0.486800
     85 H612       12.8700   -1.1800    7.7780 hn        1 TM3      0.467300
@<TRIPOS>BOND
     1    1    2 1   
     2    1    6 1   
     3    1   42 1   
     4    1   43 1   
     5    2    3 1   
     6    2   44 1   
     7    2   45 1   
     8    3    4 1   
     9    3    7 1   
    10    4    5 1   
    11    4   46 1   
    12    4   47 1   
    13    5    6 1   
    14    5   48 1   
    15    5   49 1   
    16    7    8 1   
    17    7   50 1   
    18    7   51 1   
    19    8    9 1   
    20    8   52 1   
    21    8   53 1   
    22    9   10 1   
    23    9   54 1   
    24    9   55 1   
    25   10   11 1   
    26   10   56 1   
    27   10   84 1   
    28   11   12 2   
    29   11   15 1   
    30   12   13 1   
    31   13   14 ar  
    32   13   19 ar  
    33   14   15 1   
    34   14   16 ar  
    35   15   20 1   
    36   16   17 ar  
    37   16   57 1   
    38   17   18 ar  
    39   17   29 1   
    40   18   19 ar  
    41   18   58 1   
    42   19   59 1   
    43   20   21 1   
    44   20   60 1   
    45   20   61 1   
    46   21   22 ar  
    47   21   26 ar  
    48   22   23 ar  
    49   22   27 1   
    50   23   24 ar  
    51   23   62 1   
    52   24   25 ar  
    53   24   63 1   
    54   25   26 ar  
    55   25   28 1   
    56   27   64 1   
    57   28   65 1   
    58   28   66 1   
    59   28   67 1   
    60   29   30 1   
    61   29   68 1   
    62   29   83 1   
    63   30   31 1   
    64   30   82 1   
    65   30   85 1   
    66   31   32 ar  
    67   31   36 ar  
    68   32   33 ar  
    69   32   69 1   
    70   33   34 ar  
    71   33   37 1   
    72   34   35 ar  
    73   34   70 1   
    74   35   36 ar  
    75   35   71 1   
    76   36   38 1   
    77   37   72 1   
    78   37   73 1   
    79   37   74 1   
    80   38   39 1   
    81   38   75 1   
    82   38   76 1   
    83   39   40 1   
    84   39   77 1   
    85   39   78 1   
    86   40   41 1   
    87   40   79 1   
    88   40   80 1   
    89   41   81 1   
@<TRIPOS>SUBSTRUCTURE
     1 TM3         1 TEMP              0 ****  ****    0 ROOT
