@<TRIPOS>MOLECULE
TM4
   15    15     1     0     0
SMALL
bcc


@<TRIPOS>ATOM
      1 C6          0.0010   -0.0010    0.0910 c3        1 TM4     -0.047900
      2 C1          1.4720   -0.0090   -0.0420 cc        1 TM4      0.062900
      3 O1          2.1070    0.1690    1.1760 os        1 TM4     -0.198200
      4 C5          3.4760    0.1890    1.1750 cc        1 TM4      0.065100
      5 C4          4.2310    0.0420    0.0600 cd        1 TM4     -0.261200
      6 C3          3.6370   -0.1520   -1.2390 c         1 TM4      0.247800
      7 S1          4.4600   -0.3340   -2.5560 s         1 TM4     -0.391400
      8 C2          2.1800   -0.1640   -1.2040 cd        1 TM4     -0.011100
      9 O2          1.4510   -0.3360   -2.3570 oh        1 TM4     -0.494100
     10 H1         -0.4500   -0.5530   -0.7720 hc        1 TM4      0.070033
     11 H2         -0.3120   -0.4810    1.0510 hc        1 TM4      0.070033
     12 H3         -0.3730    1.0540    0.0810 hc        1 TM4      0.070033
     13 H5          3.8420    0.3400    2.2040 h4        1 TM4      0.186000
     14 H6          5.3310    0.0670    0.1210 ha        1 TM4      0.177000
     15 H4          2.0940   -0.4490   -3.0880 ho        1 TM4      0.454000
@<TRIPOS>BOND
     1    1    2 1   
     2    1   10 1   
     3    1   11 1   
     4    1   12 1   
     5    2    3 1   
     6    2    8 2   
     7    3    4 1   
     8    4    5 2   
     9    4   13 1   
    10    5    6 1   
    11    5   14 1   
    12    6    7 2   
    13    6    8 1   
    14    8    9 1   
    15    9   15 1   
@<TRIPOS>SUBSTRUCTURE
     1 TM4         1 TEMP              0 ****  ****    0 ROOT
