@<TRIPOS>MOLECULE
TM4
   15    15     1     0     0
SMALL
bcc


@<TRIPOS>ATOM
      1 C6         -0.0020   -0.0060    0.0800 c3        1 TM4     -0.047900
      2 C1          1.4710   -0.0110   -0.0450 cc        1 TM4      0.062900
      3 O1          2.0980    0.1660    1.1760 os        1 TM4     -0.198200
      4 C5          3.4670    0.1900    1.1820 cc        1 TM4      0.065100
      5 C4          4.2280    0.0460    0.0710 cd        1 TM4     -0.261200
      6 C3          3.6420   -0.1470   -1.2320 c         1 TM4      0.247800
      7 S1          4.4720   -0.3250   -2.5450 s         1 TM4     -0.391400
      8 C2          2.1850   -0.1620   -1.2040 cd        1 TM4     -0.011100
      9 O2          1.4620   -0.3350   -2.3620 oh        1 TM4     -0.494100
     10 H1         -0.4460   -0.5610   -0.7850 hc        1 TM4      0.070033
     11 H2         -0.3190   -0.4850    1.0380 hc        1 TM4      0.070033
     12 H3         -0.3780    1.0480    0.0650 hc        1 TM4      0.070033
     13 H5          3.8280    0.3390    2.2130 h4        1 TM4      0.186000
     14 H6          5.3280    0.0730    0.1380 ha        1 TM4      0.177000
     15 H4          2.1090   -0.4450   -3.0890 ho        1 TM4      0.454000
@<TRIPOS>BOND
     1    1    2 1   
     2    1   10 1   
     3    1   11 1   
     4    1   12 1   
     5    2    3 1   
     6    2    8 2   
     7    3    4 1   
     8    4    5 2   
     9    4   13 1   
    10    5    6 1   
    11    5   14 1   
    12    6    7 2   
    13    6    8 1   
    14    8    9 1   
    15    9   15 1   
@<TRIPOS>SUBSTRUCTURE
     1 TM4         1 TEMP              0 ****  ****    0 ROOT
