@<TRIPOS>MOLECULE
TM7
   15    14     1     0     0
SMALL
bcc


@<TRIPOS>ATOM
      1 S           0.3750   -0.6850   -2.8920 s         1 TM7      0.410000
      2 O1          4.2600    0.4580    0.0960 os        1 TM7      0.098000
      3 C1          3.9510    0.1560    1.3470 c1        1 TM7     -0.329000
      4 C2          3.0220    0.5510    2.2120 c2        1 TM7     -0.061000
      5 C3          1.3000   -0.4300   -1.8410 c1        1 TM7     -0.283000
      6 C4          2.1270   -0.1800   -0.8330 c2        1 TM7     -0.265000
      7 C5          3.4950    0.2110   -0.9590 c2        1 TM7      0.009000
      8 C6          4.2220    0.1880   -2.2490 c3        1 TM7     -0.190000
      9 H1          3.6910   -0.5440    3.6310 ho        1 TM7      0.222000
     10 H2          2.2340    1.3080    2.0520 h4        1 TM7      0.144000
     11 H3          1.7430   -0.2790    0.2060 ha        1 TM7      0.187000
     12 H4          3.7590    0.9350   -2.9420 hc        1 TM7      0.104000
     13 H5          5.2990    0.4500   -2.1060 hc        1 TM7      0.104000
     14 H6          4.1570   -0.8270   -2.7140 hc        1 TM7      0.104000
     15 O2          2.9820    0.1050    3.5110 oh        1 TM7     -0.255000
@<TRIPOS>BOND
     1    1    5 1   
     2    2    3 1   
     3    2    7 1   
     4    3    4 1   
     5    4   10 1   
     6    4   15 1   
     7    5    6 1   
     8    6    7 1   
     9    6   11 1   
    10    7    8 1   
    11    8   12 1   
    12    8   13 1   
    13    8   14 1   
    14    9   15 1   
@<TRIPOS>SUBSTRUCTURE
     1 TM7         1 TEMP              0 ****  ****    0 ROOT
