@<TRIPOS>MOLECULE
TM9
   26    26     1     0     0
SMALL
bcc


@<TRIPOS>ATOM
      1 C2          1.8870   -0.8810    0.3640 c3        1 TM9      0.157500
      2 C4          0.2520    1.0000   -0.0690 c3        1 TM9      0.091100
      3 O4          0.1050    2.2060   -0.7960 oh        1 TM9     -0.605800
      4 C5         -0.7830   -0.0410   -0.5180 c3        1 TM9      0.091100
      5 C6         -2.2330    0.3980   -0.2380 c3        1 TM9      0.341900
      6 N2          2.0720   -0.7910    1.7950 n3        1 TM9     -0.895800
      7 C3          1.6570    0.4590   -0.3790 c3        1 TM9      0.107100
      8 O3          2.6520    1.3680    0.0550 oh        1 TM9     -0.605800
      9 OAU        -3.0800   -0.6100    0.2370 oh        1 TM9     -0.637800
     10 O6         -2.2220    1.3910    0.7700 oh        1 TM9     -0.637800
     11 O5         -0.5770   -1.2630    0.1920 os        1 TM9     -0.463600
     12 C1          0.7110   -1.8350    0.0280 c3        1 TM9      0.336900
     13 O1          0.8140   -2.1760   -1.3330 oh        1 TM9     -0.620800
     14 H1          2.8250   -1.3410   -0.0670 h1        1 TM9      0.095700
     15 H2          0.1410    1.2000    1.0330 h1        1 TM9      0.069700
     16 H3         -0.7040    2.6240   -0.4690 ho        1 TM9      0.425000
     17 H4         -0.6750   -0.2370   -1.6210 h1        1 TM9      0.076700
     18 H5          2.8550   -0.1970    1.9920 hn        1 TM9      0.362300
     19 H6          1.2550   -0.4100    2.2330 hn        1 TM9      0.362300
     20 H8          1.7540    0.2850   -1.4870 h1        1 TM9      0.069700
     21 H9          2.4470    2.2160   -0.3610 ho        1 TM9      0.426000
     22 H10        -2.6150   -1.1210    0.9130 ho        1 TM9      0.432000
     23 H11        -3.1310    1.4990    1.0810 ho        1 TM9      0.432000
     24 H12         0.6940   -2.7410    0.6990 h2        1 TM9      0.094700
     25 H13         0.1050   -2.8030   -1.5270 ho        1 TM9      0.421000
     26 H14        -2.7130    0.7920   -1.1790 h2        1 TM9      0.076700
@<TRIPOS>BOND
     1    1    6 1   
     2    1    7 1   
     3    1   12 1   
     4    1   14 1   
     5    2    3 1   
     6    2    4 1   
     7    2    7 1   
     8    2   15 1   
     9    3   16 1   
    10    4    5 1   
    11    4   11 1   
    12    4   17 1   
    13    5    9 1   
    14    5   10 1   
    15    5   26 1   
    16    6   18 1   
    17    6   19 1   
    18    7    8 1   
    19    7   20 1   
    20    8   21 1   
    21    9   22 1   
    22   10   23 1   
    23   11   12 1   
    24   12   13 1   
    25   12   24 1   
    26   13   25 1   
@<TRIPOS>SUBSTRUCTURE
     1 TM9         1 TEMP              0 ****  ****    0 ROOT
