@<TRIPOS>MOLECULE
TM9
   26    26     1     0     0
SMALL
bcc


@<TRIPOS>ATOM
      1 C2         -1.2740   -0.4410   -1.4770 c3        1 TM9      0.122500
      2 C4          0.8760   -0.4270   -0.1510 c3        1 TM9      0.121100
      3 O4          2.3540   -0.2730   -0.2870 oh        1 TM9     -0.613800
      4 C5          0.3790    0.6240    0.7440 c3        1 TM9      0.073100
      5 C6          0.9710    0.3580    2.2060 c3        1 TM9      0.362900
      6 N2         -1.7030   -1.5700   -1.0480 n3        1 TM9     -0.894800
      7 C3          0.2750   -0.3970   -1.4830 c3        1 TM9      0.062100
      8 O3          0.7800   -1.5440   -2.2530 oh        1 TM9     -0.611800
      9 OAU         2.0550    1.2800    2.4620 oh        1 TM9     -0.606300
     10 O6         -0.0440    0.5500    3.1720 oh        1 TM9     -0.606300
     11 O5         -0.9770    0.6960    0.8360 os        1 TM9     -0.427600
     12 C1         -1.6510    0.7750   -0.4190 c3        1 TM9      0.329900
     13 O1         -1.3370    1.9870   -1.0090 oh        1 TM9     -0.625800
     14 H1         -1.6560   -0.2360   -2.4350 h1        1 TM9      0.083700
     15 H2          0.6870   -1.3060    0.2590 h1        1 TM9      0.055700
     16 H3          2.7510   -1.0840   -0.2190 ho        1 TM9      0.432000
     17 H4          0.7260    1.5150    0.4150 h1        1 TM9      0.074700
     18 H5         -2.6440   -1.4740   -0.7530 hn        1 TM9      0.360800
     19 H6         -1.6550   -2.2090   -1.7430 hn        1 TM9      0.360800
     20 H8          0.5410    0.3850   -1.9080 h1        1 TM9      0.075700
     21 H9          1.1350   -1.2500   -3.0390 ho        1 TM9      0.415000
     22 H10         2.5060    1.0160    3.1960 ho        1 TM9      0.429000
     23 H11         0.2800    0.3450    3.9990 ho        1 TM9      0.429000
     24 H12        -2.5750    0.7520   -0.2610 h2        1 TM9      0.097700
     25 H13        -2.1180    2.5260   -1.0640 ho        1 TM9      0.425000
     26 H14         1.3180   -0.5970    2.2610 h2        1 TM9      0.077700
@<TRIPOS>BOND
     1    1    6 1   
     2    1    7 1   
     3    1   12 1   
     4    1   14 1   
     5    2    3 1   
     6    2    4 1   
     7    2    7 1   
     8    2   15 1   
     9    3   16 1   
    10    4    5 1   
    11    4   11 1   
    12    4   17 1   
    13    5    9 1   
    14    5   10 1   
    15    5   26 1   
    16    6   18 1   
    17    6   19 1   
    18    7    8 1   
    19    7   20 1   
    20    8   21 1   
    21    9   22 1   
    22   10   23 1   
    23   11   12 1   
    24   12   13 1   
    25   12   24 1   
    26   13   25 1   
@<TRIPOS>SUBSTRUCTURE
     1 TM9         1 TEMP              0 ****  ****    0 ROOT
