@<TRIPOS>MOLECULE
TMA
   17    16     1     0     0
SMALL
bcc


@<TRIPOS>ATOM
      1 N1         -0.0000   -0.0000    0.0000 n4        1 TMA     -0.602800
      2 C1          1.4940    0.0010   -0.0010 c3        1 TMA      0.089100
      3 C2         -0.4970    0.0010    1.4090 c3        1 TMA      0.089100
      4 C3         -0.5000    1.2180   -0.7040 c3        1 TMA      0.089100
      5 C4         -0.4980   -1.2210   -0.7020 c3        1 TMA      0.089100
      6 H11         1.8650    0.9190    0.5270 hx        1 TMA      0.103700
      7 H12         1.8640    0.0010   -1.0610 hx        1 TMA      0.103700
      8 H13         1.8670   -0.9150    0.5280 hx        1 TMA      0.103700
      9 H21        -0.1220    0.9190    1.9350 hx        1 TMA      0.103700
     10 H22        -0.1200   -0.9160    1.9370 hx        1 TMA      0.103700
     11 H23        -1.6190   -0.0010    1.4080 hx        1 TMA      0.103700
     12 H31        -0.1260    1.2160   -1.7630 hx        1 TMA      0.103700
     13 H32        -0.1250    2.1340   -0.1750 hx        1 TMA      0.103700
     14 H33        -1.6230    1.2150   -0.7020 hx        1 TMA      0.103700
     15 H41        -0.1210   -2.1350   -0.1710 hx        1 TMA      0.103700
     16 H42        -1.6200   -1.2200   -0.7000 hx        1 TMA      0.103700
     17 H43        -0.1230   -1.2190   -1.7600 hx        1 TMA      0.103700
@<TRIPOS>BOND
     1    1    2 1   
     2    1    3 1   
     3    1    4 1   
     4    1    5 1   
     5    2    6 1   
     6    2    7 1   
     7    2    8 1   
     8    3    9 1   
     9    3   10 1   
    10    3   11 1   
    11    4   12 1   
    12    4   13 1   
    13    4   14 1   
    14    5   15 1   
    15    5   16 1   
    16    5   17 1   
@<TRIPOS>SUBSTRUCTURE
     1 TMA         1 TEMP              0 ****  ****    0 ROOT
