@<TRIPOS>MOLECULE
TMA
   17    16     1     0     0
SMALL
bcc


@<TRIPOS>ATOM
      1 N1          0.0000   -0.0000    0.0000 n4        1 TMA     -0.602800
      2 C1          0.0520    1.2100    0.8740 c3        1 TMA      0.089100
      3 C2         -0.0460   -1.2270    0.8510 c3        1 TMA      0.089100
      4 C3         -1.2210    0.0570   -0.8580 c3        1 TMA      0.089100
      5 C4          1.2160   -0.0410   -0.8660 c3        1 TMA      0.089100
      6 H11         0.9700    1.1650    1.5180 hx        1 TMA      0.103700
      7 H12         0.0870    2.1310    0.2330 hx        1 TMA      0.103700
      8 H13        -0.8630    1.2380    1.5240 hx        1 TMA      0.103700
      9 H21        -0.9610   -1.1940    1.5010 hx        1 TMA      0.103700
     10 H22        -0.0850   -2.1350    0.1920 hx        1 TMA      0.103700
     11 H23         0.8720   -1.2680    1.4950 hx        1 TMA      0.103700
     12 H31        -1.1840    0.9800   -1.4970 hx        1 TMA      0.103700
     13 H32        -1.2580   -0.8530   -1.5140 hx        1 TMA      0.103700
     14 H33        -2.1340    0.0880   -0.2050 hx        1 TMA      0.103700
     15 H41         2.1320   -0.0840   -0.2190 hx        1 TMA      0.103700
     16 H42         1.1750   -0.9510   -1.5220 hx        1 TMA      0.103700
     17 H43         1.2490    0.8820   -1.5040 hx        1 TMA      0.103700
@<TRIPOS>BOND
     1    1    2 1   
     2    1    3 1   
     3    1    4 1   
     4    1    5 1   
     5    2    6 1   
     6    2    7 1   
     7    2    8 1   
     8    3    9 1   
     9    3   10 1   
    10    3   11 1   
    11    4   12 1   
    12    4   13 1   
    13    4   14 1   
    14    5   15 1   
    15    5   16 1   
    16    5   17 1   
@<TRIPOS>SUBSTRUCTURE
     1 TMA         1 TEMP              0 ****  ****    0 ROOT
