@<TRIPOS>MOLECULE
TMB
   35    34     1     0     0
SMALL
bcc


@<TRIPOS>ATOM
      1 N           1.7700   -0.3230   -1.4500 n3        1 TMB     -0.719600
      2 CT          2.5010   -1.1850   -2.3610 c3        1 TMB      0.147100
      3 CN          1.9690    1.0800   -1.7510 c3        1 TMB      0.147100
      4 CA          0.3570   -0.7160   -1.3940 c3        1 TMB      0.012500
      5 C          -0.3990   -0.5960   -2.7590 c         1 TMB      0.890600
      6 O          -0.6330   -1.6660   -3.3810 o         1 TMB     -0.836300
      7 OXT        -0.7280    0.5560   -3.1720 o         1 TMB     -0.836300
      8 CB         -0.4640   -0.0090   -0.2960 c3        1 TMB      0.180100
      9 OG1        -0.6040    1.3890   -0.4990 oh        1 TMB     -0.657800
     10 CG2         0.1180   -0.1870    1.1160 c3        1 TMB     -0.058700
     11 CD1         0.3160   -1.6500    1.4480 c3        1 TMB     -0.086100
     12 CD2        -0.8100    0.4700    2.1330 c3        1 TMB     -0.057200
     13 CE         -0.2080    0.5540    3.4840 c2        1 TMB     -0.130200
     14 CZ         -0.9080    0.4490    4.6180 c2        1 TMB     -0.221200
     15 CH         -0.3170    0.5620    5.9650 c3        1 TMB     -0.049900
     16 HCT1        3.5720   -0.8550   -2.4040 h1        1 TMB      0.027533
     17 HCT2        2.4650   -2.2330   -1.9650 h1        1 TMB      0.027533
     18 HCT3        2.0780   -1.1900   -3.4030 h1        1 TMB      0.027533
     19 HCN1        3.0590    1.2770   -1.9230 h1        1 TMB      0.027533
     20 HCN2        1.3870    1.4250   -2.6510 h1        1 TMB      0.027533
     21 HCN3        1.6320    1.6750   -0.8610 h1        1 TMB      0.027533
     22 HA          0.3540   -1.8170   -1.1320 h1        1 TMB      0.053700
     23 HB         -1.4940   -0.4720   -0.3270 h1        1 TMB      0.024700
     24 HG1        -0.7270    1.5290   -1.4540 ho        1 TMB      0.455000
     25 HG2         1.1130    0.3380    1.1480 hc        1 TMB      0.062700
     26 HD11       -0.6070   -2.2350    1.2210 hc        1 TMB      0.029367
     27 HD12        1.1620   -2.0740    0.8550 hc        1 TMB      0.029367
     28 HD13        0.5520   -1.7680    2.5350 hc        1 TMB      0.029367
     29 HD21       -1.7820   -0.0900    2.1650 hc        1 TMB      0.057700
     30 HD22       -1.0390    1.5150    1.7780 hc        1 TMB      0.057700
     31 HE          0.8810    0.7320    3.5040 ha        1 TMB      0.116000
     32 HZ         -1.9950    0.2650    4.5970 ha        1 TMB      0.114000
     33 HH1        -0.4940   -0.3780    6.5450 hc        1 TMB      0.028033
     34 HH2         0.7850    0.7450    5.9220 hc        1 TMB      0.028033
     35 HH3        -0.7910    1.4080    6.5250 hc        1 TMB      0.028033
@<TRIPOS>BOND
     1    1    2 1   
     2    1    3 1   
     3    1    4 1   
     4    2   16 1   
     5    2   17 1   
     6    2   18 1   
     7    3   19 1   
     8    3   20 1   
     9    3   21 1   
    10    4    5 1   
    11    4    8 1   
    12    4   22 1   
    13    5    6 1   
    14    5    7 1   
    15    8    9 1   
    16    8   10 1   
    17    8   23 1   
    18    9   24 1   
    19   10   11 1   
    20   10   12 1   
    21   10   25 1   
    22   11   26 1   
    23   11   27 1   
    24   11   28 1   
    25   12   13 1   
    26   12   29 1   
    27   12   30 1   
    28   13   14 2   
    29   13   31 1   
    30   14   15 1   
    31   14   32 1   
    32   15   33 1   
    33   15   34 1   
    34   15   35 1   
@<TRIPOS>SUBSTRUCTURE
     1 TMB         1 TEMP              0 ****  ****    0 ROOT
