@<TRIPOS>MOLECULE
TMC
   34    36     1     0     0
SMALL
bcc


@<TRIPOS>ATOM
      1 O16        -0.2560   -0.6310    0.3370 oh        1 TMC     -0.610800
      2 O18         0.0690   -0.0560    3.2650 oh        1 TMC     -0.595800
      3 O9          5.8730    2.1390    3.6540 o         1 TMC     -0.641500
      4 O7          5.7440    5.9220    1.0740 o         1 TMC     -0.609500
      5 N8          3.9710    2.4660    2.3450 n         1 TMC     -0.369000
      6 N5          5.8090    4.0430    2.3610 ns        1 TMC     -0.584500
      7 C1          1.7400   -0.1180    1.4790 cx        1 TMC     -0.174000
      8 C10         0.9400    0.7200    2.4660 c3        1 TMC      0.184100
      9 C14         1.9590    1.3910    3.4030 c3        1 TMC     -0.104400
     10 C17         3.3740    1.2150    2.7900 c3        1 TMC      0.128700
     11 C13         3.2130    0.1960    1.6620 cx        1 TMC     -0.134700
     12 C15         2.6710   -1.1440    2.0750 cx        1 TMC     -0.086400
     13 C12         1.1190   -0.3300    0.1350 c3        1 TMC      0.172400
     14 C11         5.2520    2.8440    2.8300 c         1 TMC      0.808500
     15 C6          5.1660    4.8830    1.4340 c         1 TMC      0.716700
     16 C4          3.8410    4.4410    0.9650 cc        1 TMC     -0.260400
     17 C2          3.3150    3.2740    1.4300 cd        1 TMC      0.040600
     18 C3          3.1420    5.3120   -0.0000 c3        1 TMC     -0.028900
     19 H16        -0.6120   -0.8830   -0.5220 ho        1 TMC      0.410000
     20 H5          6.7060    4.2940    2.7170 hn        1 TMC      0.353500
     21 H10         0.3400    1.4880    1.9010 h1        1 TMC      0.043700
     22 H142        1.9330    0.8860    4.4020 hc        1 TMC      0.075700
     23 H141        1.6890    2.4640    3.5570 hc        1 TMC      0.075700
     24 H17         4.0640    0.7820    3.5770 h1        1 TMC      0.114700
     25 H13         3.9130    0.2710    0.8150 hc        1 TMC      0.102700
     26 H152        2.9410   -2.0280    1.4700 hc        1 TMC      0.085200
     27 H151        2.5680   -1.3830    3.1500 hc        1 TMC      0.085200
     28 H122        1.2050    0.6060   -0.4840 h1        1 TMC      0.030200
     29 H121        1.6240   -1.1750   -0.4080 h1        1 TMC      0.030200
     30 H2          2.3240    2.9010    1.1040 h4        1 TMC      0.167000
     31 H33         2.1940    4.8420   -0.3580 hc        1 TMC      0.050700
     32 H32         2.9010    6.2950    0.4780 hc        1 TMC      0.050700
     33 H31         3.8030    5.5140   -0.8810 hc        1 TMC      0.050700
     34 H18        -0.4930   -0.5520    2.6530 ho        1 TMC      0.425000
@<TRIPOS>BOND
     1    1   13 1   
     2    1   19 1   
     3    2    8 1   
     4    2   34 1   
     5    3   14 2   
     6    4   15 2   
     7    5   10 1   
     8    5   14 1   
     9    5   17 1   
    10    6   14 1   
    11    6   15 1   
    12    6   20 1   
    13    7    8 1   
    14    7   11 1   
    15    7   12 1   
    16    7   13 1   
    17    8    9 1   
    18    8   21 1   
    19    9   10 1   
    20    9   22 1   
    21    9   23 1   
    22   10   11 1   
    23   10   24 1   
    24   11   12 1   
    25   11   25 1   
    26   12   26 1   
    27   12   27 1   
    28   13   28 1   
    29   13   29 1   
    30   15   16 1   
    31   16   17 2   
    32   16   18 1   
    33   17   30 1   
    34   18   31 1   
    35   18   32 1   
    36   18   33 1   
@<TRIPOS>SUBSTRUCTURE
     1 TMC         1 TEMP              0 ****  ****    0 ROOT
