@<TRIPOS>MOLECULE
TMC
   34    33     1     0     0
SMALL
bcc


@<TRIPOS>ATOM
      1 O16        -3.5910   -2.7240   -1.0450 oh        1 TMC     -0.338000
      2 O18        -2.9070   -0.8070    1.8580 oh        1 TMC     -0.323000
      3 O9          2.1150   -1.2230   -1.3670 o         1 TMC     -0.366000
      4 O7          3.4970    3.0090   -1.6860 o         1 TMC     -0.334000
      5 N8          1.2300    0.2770    0.0440 n2        1 TMC     -0.262000
      6 N5          2.8280    0.8900   -1.5990 n2        1 TMC     -0.364000
      7 C1         -1.7010   -1.7190    0.0650 cx        1 TMC     -0.174000
      8 C10        -1.9890   -0.5090    0.9070 c3        1 TMC      0.073000
      9 C14        -0.6100   -0.1130    1.5810 c3        1 TMC     -0.183000
     10 C17         0.4910   -0.7440    0.7390 c2        1 TMC      0.052000
     11 C13        -0.1770   -1.6190   -0.2180 cx        1 TMC     -0.174000
     12 C15        -0.7380   -2.8570    0.4830 cx        1 TMC     -0.165000
     13 C12        -2.4720   -1.8820   -1.2530 c3        1 TMC      0.022000
     14 C11         2.0470   -0.0630   -1.0010 c2        1 TMC      0.399000
     15 C6          2.7930    2.1640   -1.1610 c1        1 TMC      0.355000
     16 C4          1.9760    2.5060   -0.1150 c1        1 TMC     -0.237000
     17 C2          1.1940    1.5520    0.4840 c1        1 TMC      0.038000
     18 C3          1.9270    3.9550    0.3760 c3        1 TMC     -0.152000
     19 H16        -3.9550   -2.9360   -1.8320 ho        1 TMC      0.209000
     20 H18        -3.5210   -0.1610    1.8910 ho        1 TMC      0.224000
     21 H5          3.3680    0.6630   -2.3060 hn        1 TMC      0.267000
     22 H10        -2.3130    0.2270    0.3420 h1        1 TMC      0.083000
     23 H142       -0.5090    0.8620    1.5890 hc        1 TMC      0.115000
     24 H141       -0.5730   -0.4620    2.5010 hc        1 TMC      0.115000
     25 H17         1.0960   -1.2680    1.3120 ha        1 TMC      0.154000
     26 H13         0.1270   -1.7270   -1.1450 hc        1 TMC      0.142000
     27 H152       -0.5500   -2.9230    1.4440 hc        1 TMC      0.124500
     28 H151       -0.7800   -3.6730   -0.0640 hc        1 TMC      0.124500
     29 H122       -1.8830   -2.2820   -1.9300 h1        1 TMC      0.069500
     30 H121       -2.7780   -1.0010   -1.5650 h1        1 TMC      0.069500
     31 H2          0.6100    1.7960    1.2310 ha        1 TMC      0.167000
     32 H33         2.6880    4.4520    0.0040 hc        1 TMC      0.090000
     33 H32         1.0870    4.3720    0.0810 hc        1 TMC      0.090000
     34 H31         1.9730    3.9700    1.3560 hc        1 TMC      0.090000
@<TRIPOS>BOND
     1    1   13 1   
     2    1   19 1   
     3    2    8 1   
     4    2   20 1   
     5    3   14 1   
     6    4   15 1   
     7    5   14 1   
     8    5   17 1   
     9    6   14 1   
    10    6   21 1   
    11    7    8 1   
    12    7   11 1   
    13    7   12 1   
    14    7   13 1   
    15    8    9 1   
    16    8   22 1   
    17    9   10 1   
    18    9   23 1   
    19    9   24 1   
    20   10   11 1   
    21   10   25 1   
    22   11   12 1   
    23   11   26 1   
    24   12   27 1   
    25   12   28 1   
    26   13   29 1   
    27   13   30 1   
    28   15   16 1   
    29   16   18 1   
    30   17   31 1   
    31   18   32 1   
    32   18   33 1   
    33   18   34 1   
@<TRIPOS>SUBSTRUCTURE
     1 TMC         1 TEMP              0 ****  ****    0 ROOT
