@<TRIPOS>MOLECULE
TMC
   34    36     1     0     0
SMALL
bcc


@<TRIPOS>ATOM
      1 O16        -0.2250   -0.6580    0.3150 oh        1 TMC     -0.610800
      2 O18         0.0510   -0.0530    3.2420 oh        1 TMC     -0.595800
      3 O9          5.8400    2.1680    3.7000 o         1 TMC     -0.641500
      4 O7          5.7400    5.9230    1.0780 o         1 TMC     -0.609500
      5 N8          3.9580    2.4750    2.3580 n         1 TMC     -0.369000
      6 N5          5.7900    4.0590    2.3870 n         1 TMC     -0.584500
      7 C1          1.7500   -0.1260    1.4820 cx        1 TMC     -0.174000
      8 C10         0.9320    0.7190    2.4490 c3        1 TMC      0.184100
      9 C14         1.9330    1.4030    3.3940 c3        1 TMC     -0.104400
     10 C17         3.3580    1.2260    2.8060 c3        1 TMC      0.128700
     11 C13         3.2190    0.1950    1.6850 cx        1 TMC     -0.134700
     12 C15         2.6750   -1.1430    2.1030 cx        1 TMC     -0.086400
     13 C12         1.1520   -0.3540    0.1310 c3        1 TMC      0.172400
     14 C11         5.2290    2.8630    2.8590 c         1 TMC      0.808500
     15 C6          5.1590    4.8870    1.4410 c         1 TMC      0.716700
     16 C4          3.8420    4.4360    0.9560 cc        1 TMC     -0.260400
     17 C2          3.3130    3.2710    1.4250 cd        1 TMC      0.040600
     18 C3          3.1550    5.2950   -0.0270 c3        1 TMC     -0.029900
     19 H16        -0.5670   -0.9200   -0.5480 ho        1 TMC      0.410000
     20 H18        -0.4990   -0.5580    2.6260 ho        1 TMC      0.425000
     21 H5          6.6810    4.3160    2.7540 hn        1 TMC      0.353500
     22 H10         0.3380    1.4780    1.8670 h1        1 TMC      0.043700
     23 H142        1.6570    2.4750    3.5340 hc        1 TMC      0.075700
     24 H141        1.8930    0.9070    4.3980 hc        1 TMC      0.075700
     25 H17         4.0380    0.8030    3.6070 h1        1 TMC      0.114700
     26 H13         3.9320    0.2640    0.8490 hc        1 TMC      0.102700
     27 H152        2.5570   -1.3710    3.1790 hc        1 TMC      0.085200
     28 H151        2.9590   -2.0320    1.5120 hc        1 TMC      0.085200
     29 H122        1.6690   -1.2010   -0.3960 h1        1 TMC      0.030200
     30 H121        1.2440    0.5770   -0.4960 h1        1 TMC      0.030200
     31 H2          2.3290    2.8920    1.0870 h4        1 TMC      0.167000
     32 H33         3.8400    5.5200   -0.8830 hc        1 TMC      0.050700
     33 H32         2.8710    6.2680    0.4490 hc        1 TMC      0.050700
     34 H31         2.2320    4.8030   -0.4200 hc        1 TMC      0.050700
@<TRIPOS>BOND
     1    1   13 1   
     2    1   19 1   
     3    2    8 1   
     4    2   20 1   
     5    3   14 2   
     6    4   15 2   
     7    5   10 1   
     8    5   14 1   
     9    5   17 1   
    10    6   14 1   
    11    6   15 1   
    12    6   21 1   
    13    7    8 1   
    14    7   11 1   
    15    7   12 1   
    16    7   13 1   
    17    8    9 1   
    18    8   22 1   
    19    9   10 1   
    20    9   23 1   
    21    9   24 1   
    22   10   11 1   
    23   10   25 1   
    24   11   12 1   
    25   11   26 1   
    26   12   27 1   
    27   12   28 1   
    28   13   29 1   
    29   13   30 1   
    30   15   16 1   
    31   16   17 2   
    32   16   18 1   
    33   17   31 1   
    34   18   32 1   
    35   18   33 1   
    36   18   34 1   
@<TRIPOS>SUBSTRUCTURE
     1 TMC         1 TEMP              0 ****  ****    0 ROOT
