@<TRIPOS>MOLECULE
TMC
   34    36     1     0     0
SMALL
bcc


@<TRIPOS>ATOM
      1 O16         1.9570   -0.1830   -3.9490 oh        1 TMC     -0.601800
      2 O18        -0.4830    1.5330   -3.5950 oh        1 TMC     -0.595800
      3 O9         -2.6860   -0.1530    1.9490 o         1 TMC     -0.642500
      4 O7          1.0100   -0.1020    4.6550 o         1 TMC     -0.607500
      5 N8         -0.6060   -0.0480    0.9030 n         1 TMC     -0.371000
      6 N5         -0.8300   -0.1300    3.3120 n         1 TMC     -0.584500
      7 C1          0.0250   -0.5360   -2.5260 cx        1 TMC     -0.166000
      8 C10        -0.0120    0.9770   -2.3770 c3        1 TMC      0.163100
      9 C14        -0.9540    1.2840   -1.2020 c3        1 TMC     -0.138400
     10 C17        -1.2050   -0.0350   -0.4230 c3        1 TMC      0.134700
     11 C13        -0.6770   -1.1480   -1.3270 cx        1 TMC     -0.137700
     12 C15        -1.3050   -1.2280   -2.6900 cx        1 TMC     -0.086400
     13 C12         1.2700   -1.1110   -3.1320 c3        1 TMC      0.173400
     14 C11        -1.4410   -0.1130    2.0500 c         1 TMC      0.808500
     15 C6          0.5640   -0.0840    3.4960 c         1 TMC      0.715700
     16 C4          1.3810   -0.0170    2.2710 cc        1 TMC     -0.256400
     17 C2          0.7720   -0.0030    1.0530 cd        1 TMC      0.037600
     18 C3          2.8460    0.0290    2.4390 c3        1 TMC     -0.030900
     19 H16         1.3060    0.2280   -4.5340 ho        1 TMC      0.419000
     20 H18        -0.4720    2.4910   -3.4830 ho        1 TMC      0.407000
     21 H5         -1.4330   -0.1770    4.1050 hn        1 TMC      0.353500
     22 H10         1.0270    1.3600   -2.1710 h1        1 TMC      0.057700
     23 H142       -1.9350    1.6560   -1.5950 hc        1 TMC      0.068700
     24 H141       -0.5200    2.0830   -0.5530 hc        1 TMC      0.068700
     25 H17        -2.3210   -0.1720   -0.2830 h1        1 TMC      0.114700
     26 H13        -0.3090   -2.0610   -0.8340 hc        1 TMC      0.105700
     27 H152       -2.1960   -0.6140   -2.9170 hc        1 TMC      0.085200
     28 H151       -1.3290   -2.2090   -3.1990 hc        1 TMC      0.085200
     29 H122        2.0110   -1.3860   -2.3320 h1        1 TMC      0.047700
     30 H121        1.0180   -2.0270   -3.7350 h1        1 TMC      0.047700
     31 H2          1.3440    0.0450    0.1050 h4        1 TMC      0.169000
     32 H33         3.1300    0.9030    3.0800 hc        1 TMC      0.052033
     33 H32         3.2010   -0.9000    2.9540 hc        1 TMC      0.052033
     34 H31         3.3660    0.1180    1.4550 hc        1 TMC      0.052033
@<TRIPOS>BOND
     1    1   13 1   
     2    1   19 1   
     3    2    8 1   
     4    2   20 1   
     5    3   14 2   
     6    4   15 2   
     7    5   10 1   
     8    5   14 1   
     9    5   17 1   
    10    6   14 1   
    11    6   15 1   
    12    6   21 1   
    13    7    8 1   
    14    7   11 1   
    15    7   12 1   
    16    7   13 1   
    17    8    9 1   
    18    8   22 1   
    19    9   10 1   
    20    9   23 1   
    21    9   24 1   
    22   10   11 1   
    23   10   25 1   
    24   11   12 1   
    25   11   26 1   
    26   12   27 1   
    27   12   28 1   
    28   13   29 1   
    29   13   30 1   
    30   15   16 1   
    31   16   17 2   
    32   16   18 1   
    33   17   31 1   
    34   18   32 1   
    35   18   33 1   
    36   18   34 1   
@<TRIPOS>SUBSTRUCTURE
     1 TMC         1 TEMP              0 ****  ****    0 ROOT
