@<TRIPOS>MOLECULE
TMD
   34    33     1     0     0
SMALL
bcc


@<TRIPOS>ATOM
      1 N          -1.5410   -0.7660   -1.7080 n3        1 TMD     -0.802200
      2 CN         -2.2990   -0.6910   -2.9330 c3        1 TMD      0.151100
      3 CA         -0.4840    0.2400   -1.6390 c3        1 TMD     -0.004500
      4 C           0.4990    0.2060   -2.8560 c         1 TMD      0.884600
      5 O           0.6650    1.2680   -3.5110 o         1 TMD     -0.838300
      6 OXT         1.0750   -0.8950   -3.1050 o         1 TMD     -0.838300
      7 CB          0.3650    0.1010   -0.3570 c3        1 TMD      0.173100
      8 CZ          0.7560   -0.1150    4.5960 c3        1 TMD     -0.081400
      9 CH          0.0480   -0.4240    5.8890 c3        1 TMD     -0.089100
     10 OG2         0.9720   -1.1820   -0.2620 oh        1 TMD     -0.653800
     11 CG1        -0.4330    0.3030    0.9410 c3        1 TMD     -0.060700
     12 H          -1.1020   -1.6710   -1.6440 hn        1 TMD      0.353800
     13 HN1        -3.0450   -1.5290   -2.9460 h1        1 TMD      0.020033
     14 HN2        -2.8530    0.2840   -2.9580 h1        1 TMD      0.020033
     15 HN3        -1.6660   -0.7550   -3.8620 h1        1 TMD      0.020033
     16 HA         -0.9770    1.2540   -1.6320 h1        1 TMD      0.056700
     17 HB          1.1810    0.8790   -0.4140 h1        1 TMD      0.029700
     18 HE2        -0.7440   -1.0380    3.3370 hc        1 TMD      0.034200
     19 HE3        -0.9870    0.7260    3.6310 hc        1 TMD      0.034200
     20 HZ2         1.2940    0.8650    4.6850 hc        1 TMD      0.036200
     21 HZ3         1.5330   -0.9000    4.3950 hc        1 TMD      0.036200
     22 HH1         0.7760   -0.4640    6.7350 hc        1 TMD      0.024367
     23 HH2        -0.7140    0.3600    6.1180 hc        1 TMD      0.024367
     24 HH3        -0.4740   -1.4090    5.8270 hc        1 TMD      0.024367
     25 HG2         1.2840   -1.4150   -1.1540 ho        1 TMD      0.449000
     26 HG1        -1.1670   -0.5450    1.0280 hc        1 TMD      0.062700
     27 CD1         0.5140    0.2500    2.1350 c3        1 TMD     -0.078400
     28 CD2        -1.1880    1.6140    0.9100 c3        1 TMD     -0.085100
     29 HD13        1.0550    1.2280    2.2260 hc        1 TMD      0.044700
     30 CE         -0.2090   -0.0560    3.4300 c3        1 TMD     -0.076400
     31 HD12        1.2850   -0.5450    1.9500 hc        1 TMD      0.044700
     32 HD21       -0.5170    2.4470    0.5880 hc        1 TMD      0.028033
     33 HD22       -2.0450    1.5520    0.1970 hc        1 TMD      0.028033
     34 HD23       -1.5920    1.8580    1.9230 hc        1 TMD      0.028033
@<TRIPOS>BOND
     1    1    2 1   
     2    1    3 1   
     3    1   12 1   
     4    2   13 1   
     5    2   14 1   
     6    2   15 1   
     7    3    4 1   
     8    3    7 1   
     9    3   16 1   
    10    4    5 1   
    11    4    6 1   
    12    7   10 1   
    13    7   11 1   
    14    7   17 1   
    15    8    9 1   
    16    8   20 1   
    17    8   21 1   
    18    8   30 1   
    19    9   22 1   
    20    9   23 1   
    21    9   24 1   
    22   10   25 1   
    23   11   26 1   
    24   11   27 1   
    25   11   28 1   
    26   18   30 1   
    27   19   30 1   
    28   27   29 1   
    29   27   30 1   
    30   27   31 1   
    31   28   32 1   
    32   28   33 1   
    33   28   34 1   
@<TRIPOS>SUBSTRUCTURE
     1 TMD         1 TEMP              0 ****  ****    0 ROOT
