@<TRIPOS>MOLECULE
TME
   11    10     1     0     0
SMALL
bcc


@<TRIPOS>ATOM
      1 C1         -1.1460   -0.0000   -0.5190 c3        1 TME     -0.093100
      2 C2          0.3670   -0.0000   -0.5190 c3        1 TME     -0.081400
      3 C3          0.8710   -0.0000    0.9080 c3        1 TME     -0.093100
      4 H11        -1.4720   -0.0000   -1.4390 hc        1 TME      0.032367
      5 H12        -1.4720    0.7970   -0.0590 hc        1 TME      0.032367
      6 H13        -1.4720   -0.7970   -0.0590 hc        1 TME      0.032367
      7 H21         0.6920   -0.7970   -0.9790 hc        1 TME      0.036700
      8 H22         0.6920    0.7970   -0.9790 hc        1 TME      0.036700
      9 H31         0.5460   -0.7970    1.3680 hc        1 TME      0.032367
     10 H32         0.5460    0.7970    1.3680 hc        1 TME      0.032367
     11 H33         1.8470   -0.0000    0.9080 hc        1 TME      0.032367
@<TRIPOS>BOND
     1    1    2 1   
     2    1    4 1   
     3    1    5 1   
     4    1    6 1   
     5    2    3 1   
     6    2    7 1   
     7    2    8 1   
     8    3    9 1   
     9    3   10 1   
    10    3   11 1   
@<TRIPOS>SUBSTRUCTURE
     1 TME         1 TEMP              0 ****  ****    0 ROOT
