@<TRIPOS>MOLECULE
TME
   11    10     1     0     0
SMALL
bcc


@<TRIPOS>ATOM
      1 C1          1.2480   -0.2720   -0.0000 c3        1 TME     -0.093100
      2 C2         -0.0000    0.5730    0.0000 c3        1 TME     -0.081400
      3 C3         -1.2480   -0.2720    0.0000 c3        1 TME     -0.093100
      4 H11         1.2810   -0.9260    0.9050 hc        1 TME      0.032367
      5 H12         1.2810   -0.9260   -0.9050 hc        1 TME      0.032367
      6 H13         2.1570    0.3760   -0.0000 hc        1 TME      0.032367
      7 H21        -0.0000    1.2410    0.9020 hc        1 TME      0.036700
      8 H22        -0.0000    1.2410   -0.9020 hc        1 TME      0.036700
      9 H31        -1.2810   -0.9260    0.9050 hc        1 TME      0.032367
     10 H32        -2.1570    0.3760    0.0000 hc        1 TME      0.032367
     11 H33        -1.2810   -0.9260   -0.9050 hc        1 TME      0.032367
@<TRIPOS>BOND
     1    1    2 1   
     2    1    4 1   
     3    1    5 1   
     4    1    6 1   
     5    2    3 1   
     6    2    7 1   
     7    2    8 1   
     8    3    9 1   
     9    3   10 1   
    10    3   11 1   
@<TRIPOS>SUBSTRUCTURE
     1 TME         1 TEMP              0 ****  ****    0 ROOT
