@<TRIPOS>MOLECULE
TMF
   52    55     1     0     0
SMALL
bcc


@<TRIPOS>ATOM
      1 N1         -0.0700   -0.9410    7.4450 na        1 TMF     -0.692000
      2 C2         -0.8930    0.1110    7.8800 cc        1 TMF      0.816100
      3 NA2        -1.3250    0.0540    9.2410 nh        1 TMF     -0.880800
      4 N3         -1.2860    1.1210    7.1030 nd        1 TMF     -0.741100
      5 C4         -0.9800    1.1180    5.7310 c         1 TMF      0.713700
      6 O4         -1.2890    2.0940    5.0300 o         1 TMF     -0.539100
      7 C4A        -0.2640   -0.0800    5.1740 cc        1 TMF     -0.030200
      8 N5         -0.1810   -0.2560    3.7880 nh        1 TMF     -0.574400
      9 C6          0.5810   -1.4270    3.3060 c3        1 TMF      0.052200
     10 C7          1.1750   -2.2920    4.3830 c2        1 TMF      0.437200
     11 N8          0.9930   -2.1540    5.6540 nf        1 TMF     -0.571300
     12 C8A         0.1990   -1.0490    6.0680 cd        1 TMF      0.210600
     13 C9          1.6910   -0.8770    2.3560 c3        1 TMF      0.140800
     14 N10         1.3730    0.5280    2.0710 nh        1 TMF     -0.593000
     15 C11         0.6850    1.1740   -2.0690 ca        1 TMF     -0.098600
     16 C12         1.6480    1.9110   -1.3770 ca        1 TMF     -0.096000
     17 C13         1.8520    1.7090   -0.0140 ca        1 TMF     -0.140000
     18 C14         1.0800    0.7600    0.6810 ca        1 TMF      0.034600
     19 C15         0.0810    0.0490   -0.0160 ca        1 TMF     -0.140000
     20 C16        -0.1090    0.2520   -1.3790 ca        1 TMF     -0.096000
     21 O           0.3820    2.5590   -3.9810 o         1 TMF     -0.650100
     22 N           0.4660    0.2560   -4.3080 n         1 TMF     -0.474900
     23 CA          0.5520    0.2350   -5.7610 c3        1 TMF     -0.045300
     24 CB         -0.5300   -0.6660   -6.3780 c3        1 TMF     -0.054400
     25 CG         -1.9270   -0.1060   -6.2450 c3        1 TMF     -0.182400
     26 CD         -3.0100   -1.1350   -6.5920 c         1 TMF      0.904600
     27 OE1        -3.1160   -2.1840   -5.8860 o         1 TMF     -0.874300
     28 OE2        -3.8010   -0.8820   -7.5520 o         1 TMF     -0.874300
     29 CT          1.9590   -0.2770   -6.2300 c         1 TMF      0.903600
     30 O1          2.3730    0.1200   -7.3530 o         1 TMF     -0.851300
     31 O2          2.6150   -1.0430   -5.4640 o         1 TMF     -0.851300
     32 CP1         0.2640    0.9110    2.9770 c3        1 TMF      0.394000
     33 HN1         0.1050   -1.7300    8.0260 hn        1 TMF      0.456800
     34 HN21       -1.8800    0.8470    9.4980 hn        1 TMF      0.401800
     35 HN22       -0.5770   -0.1030    9.8830 hn        1 TMF      0.401800
     36 H6         -0.1500   -2.0500    2.7090 h1        1 TMF      0.096700
     37 H7          1.8350   -3.1130    4.0420 h4        1 TMF      0.038800
     38 H91         2.6890   -0.8970    2.8700 h1        1 TMF      0.067700
     39 H92         1.7510   -1.5040    1.4270 h1        1 TMF      0.067700
     40 H12         2.2480    2.6550   -1.9250 ha        1 TMF      0.160000
     41 H13         2.6260    2.2880    0.5120 ha        1 TMF      0.126500
     42 H15        -0.5490   -0.6790    0.5160 ha        1 TMF      0.126500
     43 H16        -0.8840   -0.3170   -1.9190 ha        1 TMF      0.160000
     44 HN          0.7980   -0.5910   -3.8920 hn        1 TMF      0.313500
     45 HA          0.4160    1.2870   -6.1410 h1        1 TMF      0.070700
     46 HB1        -0.2690   -0.7790   -7.4640 hc        1 TMF      0.050700
     47 HB2        -0.4950   -1.6870   -5.9150 hc        1 TMF      0.050700
     48 HG1        -2.1110    0.2270   -5.1920 hc        1 TMF      0.018700
     49 HG2        -2.0420    0.7870   -6.9100 hc        1 TMF      0.018700
     50 HCP1        0.6450    1.7440    3.6360 h2        1 TMF      0.085200
     51 HCP2       -0.6460    1.2750    2.4160 h2        1 TMF      0.085200
     52 C           0.5190    1.3890   -3.5520 c         1 TMF      0.648700
@<TRIPOS>BOND
     1    1    2 1   
     2    1   12 1   
     3    1   33 1   
     4    2    3 1   
     5    2    4 2   
     6    3   34 1   
     7    3   35 1   
     8    4    5 1   
     9    5    6 2   
    10    5    7 1   
    11    7    8 1   
    12    7   12 2   
    13    8    9 1   
    14    8   32 1   
    15    9   10 1   
    16    9   13 1   
    17    9   36 1   
    18   10   11 2   
    19   10   37 1   
    20   11   12 1   
    21   13   14 1   
    22   13   38 1   
    23   13   39 1   
    24   14   18 1   
    25   14   32 1   
    26   15   16 ar  
    27   15   20 ar  
    28   15   52 1   
    29   16   17 ar  
    30   16   40 1   
    31   17   18 ar  
    32   17   41 1   
    33   18   19 ar  
    34   19   20 ar  
    35   19   42 1   
    36   20   43 1   
    37   21   52 2   
    38   22   23 1   
    39   22   44 1   
    40   22   52 1   
    41   23   24 1   
    42   23   29 1   
    43   23   45 1   
    44   24   25 1   
    45   24   46 1   
    46   24   47 1   
    47   25   26 1   
    48   25   48 1   
    49   25   49 1   
    50   26   27 1   
    51   26   28 1   
    52   29   30 1   
    53   29   31 1   
    54   32   50 1   
    55   32   51 1   
@<TRIPOS>SUBSTRUCTURE
     1 TMF         1 TEMP              0 ****  ****    0 ROOT
