@<TRIPOS>MOLECULE
TMF
   53    52     1     0     0
SMALL
bcc


@<TRIPOS>ATOM
      1 N1         -1.6030    0.4660   -0.1390 na        1 TMF     -0.723000
      2 C2         -0.4800    0.5550   -1.0000 cc        1 TMF      0.817100
      3 NA2        -0.7750    0.7190   -2.3870 nv        1 TMF     -0.885800
      4 N3          0.7760    0.4210   -0.6000 nd        1 TMF     -0.732100
      5 C4          1.0690    0.1290    0.7540 c         1 TMF      0.748700
      6 O4          2.2520   -0.0430    1.0910 o         1 TMF     -0.553100
      7 C4A        -0.0670    0.0720    1.6980 cc        1 TMF     -0.199600
      8 N5          0.1410   -0.2960    2.9910 ne        1 TMF     -0.285000
      9 C6         -2.9650   -1.0530    3.8430 c3        1 TMF     -0.122300
     10 C7         -2.9630    0.2610    3.1490 c1        1 TMF      0.165700
     11 N8         -2.4380    0.6730    2.0920 n1        1 TMF     -1.020500
     12 C8A        -1.4240    0.3210    1.2360 cd        1 TMF      0.750700
     13 C9         -2.3000   -0.9220    5.2120 c3        1 TMF      0.045300
     14 N10        -1.0360   -0.1550    5.1930 n3        1 TMF      0.105600
     15 C11        -0.3270    0.8940    9.7610 ce        1 TMF     -0.417200
     16 C12        -0.0350    1.7350    8.5690 c3        1 TMF      0.088900
     17 C13        -0.3760    1.0850    7.3310 c1        1 TMF      0.042900
     18 C14        -0.6800    0.5200    6.3170 c1        1 TMF     -0.254300
     19 C15         1.6700   -0.5120    9.4180 c2        1 TMF     -0.326000
     20 C16         0.6080   -0.1230   10.1380 ce        1 TMF     -0.035000
     21 O          -2.3420    2.1040   10.2420 o         1 TMF     -0.691300
     22 N          -1.9210    0.3020   11.6130 ny        1 TMF     -0.544600
     23 CA         -1.3510    0.7690   12.8590 c2        1 TMF     -0.112000
     24 CB         -0.8270   -0.0200   13.8110 c2        1 TMF     -0.081200
     25 CG         -0.7080   -1.4900   13.7690 c3        1 TMF     -0.197200
     26 CD         -2.0710   -2.1770   13.5640 c         1 TMF      0.918600
     27 OE1        -2.4960   -2.2650   12.3600 o         1 TMF     -0.827300
     28 OE2        -2.6980   -2.6160   14.5540 o         1 TMF     -0.827300
     29 CT         -4.6870   -2.2400   11.8840 c1        1 TMF      0.956000
     30 O1         -4.6320   -1.0470   11.7880 o         1 TMF     -0.499000
     31 O2         -4.9210   -3.4060   11.9030 o         1 TMF     -0.499000
     32 CP1        -0.4060    0.0120    4.0530 c1        1 TMF      0.304400
     33 HN1        -2.5260    0.5350   -0.5030 hn        1 TMF      0.457800
     34 HN21       -1.4030    1.4730   -2.5690 hn        1 TMF      0.404300
     35 HN22        0.0480    0.7640   -2.9540 hn        1 TMF      0.404300
     36 H6         -2.4710   -1.8790    3.2590 hc        1 TMF      0.054700
     37 H7         -4.0370   -1.3460    4.0100 hc        1 TMF      0.054700
     38 H91        -2.9920   -0.3830    5.9210 h1        1 TMF      0.089700
     39 H92        -2.0600   -1.9430    5.6210 h1        1 TMF      0.089700
     40 H12        -0.6110    2.7050    8.6280 hc        1 TMF      0.068700
     41 H13         1.0650    1.9870    8.5420 hc        1 TMF      0.068700
     42 H15         1.9120   -0.1000    8.4330 ha        1 TMF      0.097000
     43 H16         2.3580   -1.2840    9.7790 ha        1 TMF      0.097000
     44 HN         -2.9480    0.3340   11.7010 hn        1 TMF      0.471300
     45 HA         -1.6690   -0.6910   11.4450 hn        1 TMF      0.471300
     46 HB1        -1.3970    1.8690   12.9540 hx        1 TMF      0.161000
     47 HB2        -0.4490    0.4690   14.7270 ha        1 TMF      0.128000
     48 HG1        -0.0340   -1.7960   12.9250 hc        1 TMF      0.060700
     49 HG2        -0.2640   -1.8680   14.7250 hc        1 TMF      0.060700
     50 HCP1        4.0610   -1.0060    8.2220 ha        1 TMF      0.000000
     51 HCP2        4.6730   -1.1440    7.9660 ha        1 TMF      0.000000
     52 H2          0.4500   -0.6100   11.1190 ha        1 TMF      0.095000
     53 C          -1.5070    1.1910   10.4400 c2        1 TMF      0.549300
@<TRIPOS>BOND
     1    1    2 1   
     2    1   12 1   
     3    1   33 1   
     4    2    3 1   
     5    2    4 2   
     6    3   34 1   
     7    3   35 1   
     8    4    5 1   
     9    5    6 2   
    10    5    7 1   
    11    7    8 1   
    12    7   12 2   
    13    8   32 2   
    14    9   10 1   
    15    9   13 1   
    16    9   36 1   
    17    9   37 1   
    18   10   11 3   
    19   11   12 1   
    20   13   14 1   
    21   13   38 1   
    22   13   39 1   
    23   14   18 1   
    24   14   32 2   
    25   15   16 1   
    26   15   20 1   
    27   15   53 2   
    28   16   17 1   
    29   16   40 1   
    30   16   41 1   
    31   17   18 3   
    32   19   20 2   
    33   19   42 1   
    34   19   43 1   
    35   20   52 1   
    36   21   53 1   
    37   22   23 1   
    38   22   44 1   
    39   22   45 1   
    40   22   53 1   
    41   23   24 2   
    42   23   46 1   
    43   24   25 1   
    44   24   47 1   
    45   25   26 1   
    46   25   48 1   
    47   25   49 1   
    48   26   27 1   
    49   26   28 1   
    50   29   30 2   
    51   29   31 2   
    52   50   51 1   
@<TRIPOS>SUBSTRUCTURE
     1 TMF         1 TEMP              0 ****  ****    0 ROOT
