@<TRIPOS>MOLECULE
TMG
   21    23     1     0     0
SMALL
bcc


@<TRIPOS>ATOM
      1 C2          1.9170    0.7320   -0.0010 ca        1 TMG      0.065400
      2 N7          0.5750    1.1470   -0.0010 nc        1 TMG     -0.563100
      3 C9         -0.1520    0.0020   -0.0000 cd        1 TMG      0.380800
      4 C10        -1.6090   -0.0650   -0.0000 cd        1 TMG      0.310000
      5 C14        -2.4380    1.0570   -0.0010 cc        1 TMG     -0.200400
      6 S13        -4.0410    0.5960   -0.0010 ss        1 TMG     -0.063300
      7 C12        -3.5940   -1.0560    0.0010 cc        1 TMG      0.368300
      8 N11        -2.2880   -1.2890    0.0010 nd        1 TMG     -0.628000
      9 N8          0.6540   -1.1600    0.0010 na        1 TMG     -0.258300
     10 C6          1.9770   -0.7220    0.0000 ca        1 TMG     -0.071200
     11 C5          3.2030   -1.4010    0.0010 ca        1 TMG     -0.134000
     12 C4          4.3560   -0.6330    0.0000 ca        1 TMG     -0.112000
     13 C3          4.3110    0.7740   -0.0010 ca        1 TMG     -0.154000
     14 C1          3.1130    1.4680   -0.0020 ca        1 TMG     -0.069000
     15 H14        -2.0840    2.0880   -0.0020 h4        1 TMG      0.206000
     16 H12        -4.3200   -1.8750    0.0020 h5        1 TMG      0.059100
     17 HN8         0.3340   -2.0920    0.0020 hn        1 TMG      0.320700
     18 H5          3.2450   -2.4980    0.0020 ha        1 TMG      0.136000
     19 H4          5.3370   -1.1330    0.0010 ha        1 TMG      0.132000
     20 H3          5.2600    1.3330   -0.0020 ha        1 TMG      0.132000
     21 H1          3.0860    2.5670   -0.0020 ha        1 TMG      0.146000
@<TRIPOS>BOND
     1    1    2 1   
     2    1   10 ar  
     3    1   14 ar  
     4    2    3 2   
     5    3    4 1   
     6    3    9 1   
     7    4    5 2   
     8    4    8 1   
     9    5    6 1   
    10    5   15 1   
    11    6    7 1   
    12    7    8 2   
    13    7   16 1   
    14    9   10 1   
    15    9   17 1   
    16   10   11 ar  
    17   11   12 ar  
    18   11   18 1   
    19   12   13 ar  
    20   12   19 1   
    21   13   14 ar  
    22   13   20 1   
    23   14   21 1   
@<TRIPOS>SUBSTRUCTURE
     1 TMG         1 TEMP              0 ****  ****    0 ROOT
