@<TRIPOS>MOLECULE
TMH
   26    27     1     0     0
SMALL
bcc


@<TRIPOS>ATOM
      1 C3         -0.0300   -0.0080    0.0070 c2        1 TMH     -0.179200
      2 C2          1.3190    0.0280   -0.0110 c2        1 TMH     -0.110400
      3 C1          2.0080    0.0120    1.3210 cy        1 TMH     -0.041500
      4 C6          1.2370    1.0520    2.1980 cy        1 TMH     -0.090400
      5 C5          0.2160   -0.0890    2.4740 cy        1 TMH     -0.075700
      6 C4         -0.7660   -0.1060    1.3080 c3        1 TMH     -0.037200
      7 C7          1.3670   -1.1240    2.2080 cy        1 TMH     -0.063000
      8 C8          2.1860   -1.3940    3.4490 c3        1 TMH     -0.080100
      9 C9          1.0040   -2.4300    1.5610 c3        1 TMH     -0.080100
     10 C10         2.1450    0.1030   -1.2300 c3        1 TMH     -0.050900
     11 H3         -0.6390    0.0170   -0.9050 ha        1 TMH      0.125000
     12 H1          3.1090    0.0650    1.2900 hc        1 TMH      0.070700
     13 H61         1.7980    1.3820    3.0960 hc        1 TMH      0.052700
     14 H62         0.8370    1.9300    1.6550 hc        1 TMH      0.052700
     15 H5         -0.2630   -0.1250    3.4680 hc        1 TMH      0.065700
     16 H41        -1.4780    0.7560    1.4020 hc        1 TMH      0.048700
     17 H42        -1.3680   -1.0520    1.3270 hc        1 TMH      0.048700
     18 H81         2.4290   -0.4500    3.9930 hc        1 TMH      0.036367
     19 H82         1.6190   -2.0630    4.1410 hc        1 TMH      0.036367
     20 H83         3.1440   -1.8970    3.1730 hc        1 TMH      0.036367
     21 H91         1.9170   -3.0640    1.4370 hc        1 TMH      0.036367
     22 H92         0.5420   -2.2920    0.5540 hc        1 TMH      0.036367
     23 H93         0.2770   -2.9800    2.2080 hc        1 TMH      0.036367
     24 H101        2.8220   -0.7860   -1.2900 hc        1 TMH      0.041367
     25 H102        2.7820    1.0230   -1.2080 hc        1 TMH      0.041367
     26 H103        1.5130    0.1310   -2.1510 hc        1 TMH      0.041367
@<TRIPOS>BOND
     1    1    2 2   
     2    1    6 1   
     3    1   11 1   
     4    2    3 1   
     5    2   10 1   
     6    3    4 1   
     7    3    7 1   
     8    3   12 1   
     9    4    5 1   
    10    4   13 1   
    11    4   14 1   
    12    5    6 1   
    13    5    7 1   
    14    5   15 1   
    15    6   16 1   
    16    6   17 1   
    17    7    8 1   
    18    7    9 1   
    19    8   18 1   
    20    8   19 1   
    21    8   20 1   
    22    9   21 1   
    23    9   22 1   
    24    9   23 1   
    25   10   24 1   
    26   10   25 1   
    27   10   26 1   
@<TRIPOS>SUBSTRUCTURE
     1 TMH         1 TEMP              0 ****  ****    0 ROOT
