@<TRIPOS>MOLECULE
TMH
   26    27     1     0     0
SMALL
bcc


@<TRIPOS>ATOM
      1 C3         -0.0320    0.0160    0.0150 c2        1 TMH     -0.179200
      2 C2          1.3180    0.0290   -0.0060 c2        1 TMH     -0.110400
      3 C1          2.0090    0.0050    1.3250 cy        1 TMH     -0.041500
      4 C6          1.2580    1.0590    2.2010 cy        1 TMH     -0.090400
      5 C5          0.2170   -0.0640    2.4820 cy        1 TMH     -0.075700
      6 C4         -0.7670   -0.0660    1.3170 c3        1 TMH     -0.037200
      7 C7          1.3510   -1.1190    2.2150 cy        1 TMH     -0.063000
      8 C8          2.1670   -1.3990    3.4550 c3        1 TMH     -0.080100
      9 C9          0.9640   -2.4200    1.5720 c3        1 TMH     -0.080100
     10 C10         2.1420    0.0880   -1.2260 c3        1 TMH     -0.050900
     11 H3         -0.6420    0.0500   -0.8960 ha        1 TMH      0.125000
     12 H1          3.1100    0.0390    1.2920 hc        1 TMH      0.070700
     13 H61         1.8260    1.3820    3.0980 hc        1 TMH      0.052700
     14 H62         0.8710    1.9430    1.6570 hc        1 TMH      0.052700
     15 H5         -0.2600   -0.0890    3.4770 hc        1 TMH      0.065700
     16 H41        -1.4640    0.8080    1.4110 hc        1 TMH      0.048700
     17 H42        -1.3850   -1.0020    1.3390 hc        1 TMH      0.048700
     18 H81         1.5910   -2.0570    4.1500 hc        1 TMH      0.036367
     19 H82         2.4270   -0.4590    3.9970 hc        1 TMH      0.036367
     20 H83         3.1160   -1.9190    3.1780 hc        1 TMH      0.036367
     21 H91         0.5020   -2.2760    0.5660 hc        1 TMH      0.036367
     22 H92         1.8660   -3.0690    1.4480 hc        1 TMH      0.036367
     23 H93         0.2290   -2.9560    2.2210 hc        1 TMH      0.036367
     24 H101        1.5100    0.1260   -2.1470 hc        1 TMH      0.041367
     25 H102        2.8030   -0.8130   -1.2870 hc        1 TMH      0.041367
     26 H103        2.7960    0.9970   -1.2070 hc        1 TMH      0.041367
@<TRIPOS>BOND
     1    1    2 2   
     2    1    6 1   
     3    1   11 1   
     4    2    3 1   
     5    2   10 1   
     6    3    4 1   
     7    3    7 1   
     8    3   12 1   
     9    4    5 1   
    10    4   13 1   
    11    4   14 1   
    12    5    6 1   
    13    5    7 1   
    14    5   15 1   
    15    6   16 1   
    16    6   17 1   
    17    7    8 1   
    18    7    9 1   
    19    8   18 1   
    20    8   19 1   
    21    8   20 1   
    22    9   21 1   
    23    9   22 1   
    24    9   23 1   
    25   10   24 1   
    26   10   25 1   
    27   10   26 1   
@<TRIPOS>SUBSTRUCTURE
     1 TMH         1 TEMP              0 ****  ****    0 ROOT
