@<TRIPOS>MOLECULE
TMH
   26    27     1     0     0
SMALL
bcc


@<TRIPOS>ATOM
      1 C3          0.9220   -0.4140    1.4740 c2        1 TMH     -0.179200
      2 C2         -0.2950    0.1660    1.4040 c2        1 TMH     -0.110400
      3 C1         -0.6820    0.7550    0.0800 cy        1 TMH     -0.041500
      4 C6          0.5680    1.5650   -0.3940 cy        1 TMH     -0.090400
      5 C5          1.1230    0.2100   -0.9190 cy        1 TMH     -0.075700
      6 C4          1.7940   -0.4880    0.2590 c3        1 TMH     -0.037200
      7 C7         -0.3590   -0.2940   -1.0530 cy        1 TMH     -0.063000
      8 C8         -0.9760    0.1030   -2.3740 c3        1 TMH     -0.080100
      9 C9         -0.6350   -1.7480   -0.7950 c3        1 TMH     -0.080100
     10 C10        -1.2430    0.2770    2.5270 c3        1 TMH     -0.050900
     11 H3          1.3170   -0.8610    2.3950 ha        1 TMH      0.125000
     12 H1         -1.6690    1.2450    0.0450 hc        1 TMH      0.070700
     13 H61         1.1590    2.0440    0.4110 hc        1 TMH      0.052700
     14 H62         0.3470    2.3020   -1.1930 hc        1 TMH      0.052700
     15 H5          1.7280    0.2220   -1.8420 hc        1 TMH      0.065700
     16 H41         2.7800    0.0020    0.4740 hc        1 TMH      0.048700
     17 H42         1.9930   -1.5620    0.0050 hc        1 TMH      0.048700
     18 H81        -2.0860   -0.0140   -2.3290 hc        1 TMH      0.036367
     19 H82        -0.7450    1.1640   -2.6330 hc        1 TMH      0.036367
     20 H83        -0.5820   -0.5510   -3.1900 hc        1 TMH      0.036367
     21 H91        -1.7240   -1.9610   -0.9300 hc        1 TMH      0.036367
     22 H92        -0.0590   -2.3730   -1.5210 hc        1 TMH      0.036367
     23 H93        -0.3480   -2.0580    0.2380 hc        1 TMH      0.036367
     24 H101       -0.8280   -0.1790    3.4600 hc        1 TMH      0.041367
     25 H102       -1.4760    1.3520    2.7310 hc        1 TMH      0.041367
     26 H103       -2.2010   -0.2440    2.2750 hc        1 TMH      0.041367
@<TRIPOS>BOND
     1    1    2 2   
     2    1    6 1   
     3    1   11 1   
     4    2    3 1   
     5    2   10 1   
     6    3    4 1   
     7    3    7 1   
     8    3   12 1   
     9    4    5 1   
    10    4   13 1   
    11    4   14 1   
    12    5    6 1   
    13    5    7 1   
    14    5   15 1   
    15    6   16 1   
    16    6   17 1   
    17    7    8 1   
    18    7    9 1   
    19    8   18 1   
    20    8   19 1   
    21    8   20 1   
    22    9   21 1   
    23    9   22 1   
    24    9   23 1   
    25   10   24 1   
    26   10   25 1   
    27   10   26 1   
@<TRIPOS>SUBSTRUCTURE
     1 TMH         1 TEMP              0 ****  ****    0 ROOT
