@<TRIPOS>MOLECULE
TMI
   42    45     1     0     0
SMALL
bcc


@<TRIPOS>ATOM
      1 CBB        -0.1030    1.0200    0.4290 ca        1 TMI     -0.115500
      2 CBC         1.2860    1.1340    0.3880 ca        1 TMI     -0.128000
      3 CBD         2.0820    0.2500    1.1150 ca        1 TMI     -0.122000
      4 CBE         1.4860   -0.7510    1.8820 ca        1 TMI     -0.128000
      5 CBF         0.0970   -0.8710    1.9210 ca        1 TMI     -0.115500
      6 CBA        -0.7050    0.0140    1.1940 ca        1 TMI     -0.106300
      7 CAA        -2.2180   -0.0720    1.1960 c3        1 TMI      0.154600
      8 NAB        -2.7830   -0.4530    2.4720 na        1 TMI     -0.204900
      9 CAF        -3.1460    0.4310    3.4950 cc        1 TMI     -0.253600
     10 CAE        -3.5800   -0.3700    4.5660 cd        1 TMI      0.289200
     11 NAD        -3.4830   -1.7200    4.2270 nd        1 TMI     -0.670000
     12 CAC        -2.9950   -1.7490    2.9690 cc        1 TMI      0.390400
     13 CCA        -2.6960   -0.9670    0.0720 ca        1 TMI     -0.105300
     14 CCB        -3.7830   -0.5570   -0.7070 ca        1 TMI     -0.110000
     15 CCC        -4.2330   -1.3520   -1.7580 ca        1 TMI     -0.121000
     16 CCF        -2.0730   -2.1860   -0.2060 ca        1 TMI     -0.110000
     17 CCE        -2.5240   -2.9840   -1.2550 ca        1 TMI     -0.121000
     18 CCD        -3.6090   -2.5740   -2.0430 cp        1 TMI     -0.021000
     19 CDA        -4.0820   -3.4100   -3.1450 cp        1 TMI     -0.045000
     20 CDB        -4.1580   -4.8030   -2.9980 ca        1 TMI     -0.115500
     21 CDC        -4.6110   -5.5970   -4.0490 ca        1 TMI     -0.130500
     22 CDD        -4.9910   -5.0120   -5.2570 ca        1 TMI     -0.124000
     23 CDE        -4.9170   -3.6280   -5.4110 ca        1 TMI     -0.130500
     24 CDF        -4.4670   -2.8290   -4.3620 ca        1 TMI     -0.115500
     25 HBB        -0.7250    1.7220   -0.1470 ha        1 TMI      0.137000
     26 HBC         1.7520    1.9250   -0.2180 ha        1 TMI      0.135500
     27 HBD         3.1780    0.3430    1.0850 ha        1 TMI      0.134000
     28 HBE         2.1100   -1.4480    2.4600 ha        1 TMI      0.135500
     29 HBF        -0.3610   -1.6630    2.5340 ha        1 TMI      0.137000
     30 HAA        -2.6090    0.9770    0.9900 h1        1 TMI      0.073700
     31 HAF        -3.0720    1.5100    3.3880 h4        1 TMI      0.175000
     32 HAE        -3.9520   -0.0530    5.5390 h4        1 TMI      0.041100
     33 HAC        -2.8040   -2.6450    2.3690 h5        1 TMI      0.062100
     34 HCB        -4.2900    0.3960   -0.4900 ha        1 TMI      0.139000
     35 HCC        -5.0920   -1.0240   -2.3630 ha        1 TMI      0.140000
     36 HCF        -1.2120   -2.5120    0.4000 ha        1 TMI      0.139000
     37 HCE        -2.0210   -3.9380   -1.4720 ha        1 TMI      0.140000
     38 HDB        -3.8650   -5.2670   -2.0440 ha        1 TMI      0.135000
     39 HDC        -4.6710   -6.6880   -3.9230 ha        1 TMI      0.133500
     40 HDD        -5.3470   -5.6410   -6.0860 ha        1 TMI      0.133000
     41 HDE        -5.2130   -3.1640   -6.3630 ha        1 TMI      0.133500
     42 HDF        -4.4060   -1.7380   -4.4890 ha        1 TMI      0.135000
@<TRIPOS>BOND
     1    1    2 ar  
     2    1    6 ar  
     3    1   25 1   
     4    2    3 ar  
     5    2   26 1   
     6    3    4 ar  
     7    3   27 1   
     8    4    5 ar  
     9    4   28 1   
    10    5    6 ar  
    11    5   29 1   
    12    6    7 1   
    13    7    8 1   
    14    7   13 1   
    15    7   30 1   
    16    8    9 1   
    17    8   12 1   
    18    9   10 2   
    19    9   31 1   
    20   10   11 1   
    21   10   32 1   
    22   11   12 2   
    23   12   33 1   
    24   13   14 ar  
    25   13   16 ar  
    26   14   15 ar  
    27   14   34 1   
    28   15   18 ar  
    29   15   35 1   
    30   16   17 ar  
    31   16   36 1   
    32   17   18 ar  
    33   17   37 1   
    34   18   19 1   
    35   19   20 ar  
    36   19   24 ar  
    37   20   21 ar  
    38   20   38 1   
    39   21   22 ar  
    40   21   39 1   
    41   22   23 ar  
    42   22   40 1   
    43   23   24 ar  
    44   23   41 1   
    45   24   42 1   
@<TRIPOS>SUBSTRUCTURE
     1 TMI         1 TEMP              0 ****  ****    0 ROOT
