@<TRIPOS>MOLECULE
TMI
   42    45     1     0     0
SMALL
bcc


@<TRIPOS>ATOM
      1 CBB        -2.6730   -1.9760    1.4100 ca        1 TMI     -0.115500
      2 CBC        -3.3050   -3.1730    1.0800 ca        1 TMI     -0.128000
      3 CBD        -3.8550   -3.3490   -0.1900 ca        1 TMI     -0.122000
      4 CBE        -3.7690   -2.3230   -1.1300 ca        1 TMI     -0.128000
      5 CBF        -3.1320   -1.1250   -0.8050 ca        1 TMI     -0.115500
      6 CBA        -2.5810   -0.9450    0.4670 ca        1 TMI     -0.106300
      7 CAA        -1.8750    0.3330    0.8720 c3        1 TMI      0.154600
      8 NAB        -2.4690    1.5320    0.3220 na        1 TMI     -0.204900
      9 CAF        -3.4910    2.2790    0.9190 cc        1 TMI     -0.253600
     10 CAE        -3.8030    3.3080    0.0130 cd        1 TMI      0.289200
     11 NAD        -3.0030    3.2030   -1.1250 nd        1 TMI     -0.670000
     12 CAC        -2.2150    2.1270   -0.9240 cc        1 TMI      0.390400
     13 CCA        -0.3960    0.2380    0.5660 ca        1 TMI     -0.105300
     14 CCB         0.5250    0.6840    1.5180 ca        1 TMI     -0.110000
     15 CCC         1.8930    0.5940    1.2700 ca        1 TMI     -0.121000
     16 CCF         0.0670   -0.2900   -0.6430 ca        1 TMI     -0.110000
     17 CCE         1.4330   -0.3780   -0.8940 ca        1 TMI     -0.121000
     18 CCD         2.3620    0.0620    0.0600 cp        1 TMI     -0.021000
     19 CDA         3.7960   -0.0320   -0.2020 cp        1 TMI     -0.045000
     20 CDB         4.3070    0.2720   -1.4720 ca        1 TMI     -0.115500
     21 CDC         5.6760    0.1840   -1.7200 ca        1 TMI     -0.130500
     22 CDD         6.5470   -0.2120   -0.7050 ca        1 TMI     -0.124000
     23 CDE         6.0460   -0.5170    0.5600 ca        1 TMI     -0.130500
     24 CDF         4.6790   -0.4270    0.8130 ca        1 TMI     -0.115500
     25 HBB        -2.2430   -1.8440    2.4140 ha        1 TMI      0.137000
     26 HBC        -3.3710   -3.9800    1.8250 ha        1 TMI      0.135500
     27 HBD        -4.3570   -4.2930   -0.4470 ha        1 TMI      0.134000
     28 HBE        -4.2050   -2.4550   -2.1310 ha        1 TMI      0.135500
     29 HBF        -3.0760   -0.3210   -1.5570 ha        1 TMI      0.137000
     30 HAA        -1.9860    0.4280    2.0010 h1        1 TMI      0.073700
     31 HAF        -3.9000    2.0330    1.8970 h4        1 TMI      0.175000
     32 HAE        -4.5410    4.1010    0.1200 h4        1 TMI      0.041100
     33 HAC        -1.4450    1.7520   -1.6070 h5        1 TMI      0.062100
     34 HCB         0.1730    1.1140    2.4680 ha        1 TMI      0.139000
     35 HCC         2.6110    0.9520    2.0230 ha        1 TMI      0.140000
     36 HCF        -0.6540   -0.6490   -1.3950 ha        1 TMI      0.139000
     37 HCE         1.7880   -0.8040   -1.8460 ha        1 TMI      0.140000
     38 HDB         3.6230    0.5910   -2.2740 ha        1 TMI      0.135000
     39 HDC         6.0680    0.4280   -2.7180 ha        1 TMI      0.133500
     40 HDD         7.6270   -0.2820   -0.9020 ha        1 TMI      0.133000
     41 HDE         6.7310   -0.8320    1.3620 ha        1 TMI      0.133500
     42 HDF         4.2880   -0.6740    1.8110 ha        1 TMI      0.135000
@<TRIPOS>BOND
     1    1    2 ar  
     2    1    6 ar  
     3    1   25 1   
     4    2    3 ar  
     5    2   26 1   
     6    3    4 ar  
     7    3   27 1   
     8    4    5 ar  
     9    4   28 1   
    10    5    6 ar  
    11    5   29 1   
    12    6    7 1   
    13    7    8 1   
    14    7   13 1   
    15    7   30 1   
    16    8    9 1   
    17    8   12 1   
    18    9   10 2   
    19    9   31 1   
    20   10   11 1   
    21   10   32 1   
    22   11   12 2   
    23   12   33 1   
    24   13   14 ar  
    25   13   16 ar  
    26   14   15 ar  
    27   14   34 1   
    28   15   18 ar  
    29   15   35 1   
    30   16   17 ar  
    31   16   36 1   
    32   17   18 ar  
    33   17   37 1   
    34   18   19 1   
    35   19   20 ar  
    36   19   24 ar  
    37   20   21 ar  
    38   20   38 1   
    39   21   22 ar  
    40   21   39 1   
    41   22   23 ar  
    42   22   40 1   
    43   23   24 ar  
    44   23   41 1   
    45   24   42 1   
@<TRIPOS>SUBSTRUCTURE
     1 TMI         1 TEMP              0 ****  ****    0 ROOT
