@<TRIPOS>MOLECULE
TMI
   42    33     1     0     0
SMALL
bcc


@<TRIPOS>ATOM
      1 CBB         2.4890    1.8250   -0.3780 c1        1 TMI     -0.117000
      2 CBC         3.8750    1.8530   -0.4190 c1        1 TMI     -0.124125
      3 CBD         4.5990    2.0380    0.7490 c1        1 TMI     -0.124125
      4 CBE         3.9370    2.1940    1.9570 c1        1 TMI     -0.124125
      5 CBF         2.5510    2.1670    1.9980 c1        1 TMI     -0.124125
      6 CBA         1.8270    1.9820    0.8300 c1        1 TMI     -0.100000
      7 CAA         0.3120    2.0150    0.8650 c3        1 TMI      0.120000
      8 NAB        -0.1320    1.9460    2.2110 n3        1 TMI     -0.161000
      9 CAF        -0.6830    2.9440    2.9070 c1        1 TMI     -0.164000
     10 CAE        -1.0700    2.4490    4.1220 c1        1 TMI     -0.176000
     11 NAD        -0.7520    1.1530    4.1600 n2        1 TMI     -0.144000
     12 CAC        -0.1690    0.8300    2.9800 c1        1 TMI     -0.098000
     13 CCA        -0.2350    0.8370    0.0940 c2        1 TMI     -0.098000
     14 CCB         0.3310   -0.4180    0.2530 c2        1 TMI     -0.111000
     15 CCC        -0.1710   -1.4990   -0.4550 c1        1 TMI     -0.121000
     16 CCF        -1.3010    1.0120   -0.7730 c1        1 TMI     -0.109000
     17 CCE        -1.8030   -0.0690   -1.4810 c1        1 TMI     -0.118500
     18 CCD        -1.2380   -1.3240   -1.3220 c1        1 TMI     -0.033000
     19 CDA        -1.7640   -2.4110   -1.9990 c1        1 TMI     -0.033000
     20 CDB        -1.2500   -2.7730   -3.2340 c1        1 TMI     -0.124125
     21 CDC        -1.7470   -3.8870   -3.8920 c1        1 TMI     -0.124125
     22 CDD        -2.7580   -4.6390   -3.3140 c1        1 TMI     -0.124125
     23 CDE        -3.2720   -4.2770   -2.0790 c1        1 TMI     -0.124125
     24 CDF        -2.7750   -3.1630   -1.4220 c1        1 TMI     -0.118500
     25 HBB         1.9790    1.6950   -1.2010 ha        1 TMI      0.133000
     26 HBC         4.3410    1.7420   -1.2700 ha        1 TMI      0.135250
     27 HBD         5.5750    2.0570    0.7200 ha        1 TMI      0.135250
     28 HBE         4.4470    2.3250    2.7800 ha        1 TMI      0.135250
     29 HBF         2.0860    2.2770    2.8490 ha        1 TMI      0.135250
     30 HAA        -0.0050    2.8460    0.4600 h1        1 TMI      0.113000
     31 HAF        -0.7910    3.8650    2.6010 DU        1 TMI      0.184333
     32 HAE        -1.5020    2.9550    4.8360 DU        1 TMI      0.184333
     33 HAC         0.1650   -0.0510    2.7280 DU        1 TMI      0.184333
     34 HCB         1.0820   -0.5410    0.8640 ha        1 TMI      0.142000
     35 HCC         0.2270   -2.3830   -0.3430 ha        1 TMI      0.140000
     36 HCF        -1.6990    1.8960   -0.8850 ha        1 TMI      0.136000
     37 HCE        -2.5540    0.0540   -2.0920 ha        1 TMI      0.138000
     38 HDB        -0.5380   -2.2440   -3.6410 ha        1 TMI      0.135250
     39 HDC        -1.3850   -4.1420   -4.7620 ha        1 TMI      0.135250
     40 HDD        -3.1080   -5.4230   -3.7770 ha        1 TMI      0.135250
     41 HDE        -3.9840   -4.8060   -1.6730 ha        1 TMI      0.135250
     42 HDF        -3.1370   -2.9080   -0.5520 ha        1 TMI      0.138000
@<TRIPOS>BOND
     1    1    6 1   
     2    1   25 1   
     3    2    3 1   
     4    2   26 1   
     5    3   27 1   
     6    4    5 1   
     7    4   28 1   
     8    5   29 1   
     9    6    7 1   
    10    7    8 1   
    11    7   13 1   
    12    7   30 1   
    13    8    9 1   
    14    8   12 1   
    15    9   10 1   
    16   10   11 1   
    17   11   12 1   
    18   13   14 1   
    19   13   16 1   
    20   14   15 1   
    21   14   34 1   
    22   15   35 1   
    23   16   36 1   
    24   17   18 1   
    25   17   37 1   
    26   19   24 1   
    27   20   21 1   
    28   20   38 1   
    29   21   39 1   
    30   22   23 1   
    31   22   40 1   
    32   23   41 1   
    33   24   42 1   
@<TRIPOS>SUBSTRUCTURE
     1 TMI         1 TEMP              0 ****  ****    0 ROOT
