@<TRIPOS>MOLECULE
TMJ
   36    34     1     0     0
SMALL
bcc


@<TRIPOS>ATOM
      1 C1          1.5990    0.3040    2.2240 c2        1 TMJ     -0.318000
      2 C10         0.1370    3.3210    6.1810 c2        1 TMJ      0.136000
      3 C14        -0.1690   -3.2690    6.7480 c1        1 TMJ      0.101000
      4 C13        -0.4390    1.1980    7.3320 c2        1 TMJ     -0.096000
      5 C15        -0.8380   -2.4340    5.8700 c1        1 TMJ     -0.314000
      6 C12         0.0430    2.4430    7.3400 c2        1 TMJ     -0.253000
      7 C11        -1.3840   -1.5760    5.2160 c1        1 TMJ     -0.052000
      8 C6         -0.8290    2.2310   -2.2620 c2        1 TMJ     -0.036000
      9 C4         -0.6830    2.6980    0.2300 c2        1 TMJ     -0.152000
     10 C2          0.4830    0.8190    2.7630 c2        1 TMJ     -0.054000
     11 C3          0.2520    2.8540    1.3920 c3        1 TMJ      0.004000
     12 CL1        -0.0500   -4.8890    6.3930 cl        1 TMJ     -0.011000
     13 N2         -0.7400    3.4640    5.2380 n3        1 TMJ     -0.390000
     14 O2         -2.6880    3.2530    3.6050 o         1 TMJ     -0.479900
     15 O1         -2.1500    1.3020    4.7900 o         1 TMJ     -0.479900
     16 C8         -2.8440    2.7270   -0.7990 c2        1 TMJ     -0.172000
     17 C9         -2.0800    2.8770    0.3760 c2        1 TMJ     -0.082000
     18 C7         -2.1420    2.4330   -1.9330 c1        1 TMJ     -0.106000
     19 C5         -0.2480    2.4060   -1.0340 c1        1 TMJ     -0.110000
     20 N1         -0.0780    2.0860    2.5700 n3        1 TMJ     -0.303000
     21 H11A        2.1980    0.7930    1.4490 ha        1 TMJ      0.116500
     22 H12A        1.9690   -0.6750    2.5480 ha        1 TMJ      0.116500
     23 H13        -0.8600    0.7060    6.4340 ha        1 TMJ      0.158000
     24 H15        -0.4190    0.5730    8.2390 ha        1 TMJ      0.158000
     25 H12         0.4800    2.8840    8.2550 ha        1 TMJ      0.152000
     26 H11         1.0720    3.9340    6.1630 h4        1 TMJ      0.142000
     27 H6         -0.3740    1.9970   -3.2220 ha        1 TMJ      0.181000
     28 H21        -0.0770    0.2440    3.5360 h4        1 TMJ      0.136000
     29 H22        -1.8610   -0.7890    4.6630 ha        1 TMJ      0.275000
     30 H31         1.3020    2.6230    1.0580 h1        1 TMJ      0.097000
     31 H32         0.2200    3.9410    1.7030 h1        1 TMJ      0.097000
     32 HN2        -0.4890    4.0920    4.4890 hn        1 TMJ      0.235000
     33 H9         -2.5400    3.1180    1.3510 ha        1 TMJ      0.188000
     34 H7         -3.9360    2.8390   -0.7930 ha        1 TMJ      0.173000
     35 HN1        -1.0750    2.0690    2.7290 hn        1 TMJ      0.216000
     36 S1         -2.4110    2.7490    4.9700 s4        1 TMJ      0.726800
@<TRIPOS>BOND
     1    1   10 1   
     2    1   21 1   
     3    1   22 1   
     4    2    6 1   
     5    2   13 1   
     6    2   26 1   
     7    3    5 1   
     8    3   12 1   
     9    4    6 1   
    10    4   23 1   
    11    4   24 1   
    12    5    7 1   
    13    6   25 1   
    14    7   29 1   
    15    8   18 1   
    16    8   19 1   
    17    8   27 1   
    18    9   11 1   
    19    9   17 1   
    20    9   19 1   
    21   10   20 1   
    22   10   28 1   
    23   11   20 1   
    24   11   30 1   
    25   11   31 1   
    26   13   32 1   
    27   13   36 1   
    28   14   36 1   
    29   15   36 1   
    30   16   17 1   
    31   16   18 1   
    32   16   34 1   
    33   17   33 1   
    34   20   35 1   
@<TRIPOS>SUBSTRUCTURE
     1 TMJ         1 TEMP              0 ****  ****    0 ROOT
