@<TRIPOS>MOLECULE
TMJ
   37    35     1     0     0
SMALL
bcc


@<TRIPOS>ATOM
      1 C1          1.2510   -0.0350   -2.0200 c1        1 TMJ     -0.057000
      2 C10        -2.7650    2.6630    5.5140 c3        1 TMJ      0.048000
      3 C14         0.1460   -0.1180    7.6320 c2        1 TMJ      0.109000
      4 C13        -2.8670    3.3010    7.9910 c2        1 TMJ      0.248000
      5 C15        -1.2320    0.0040    7.5550 c2        1 TMJ     -0.203000
      6 C12        -2.4230    2.2860    6.9730 c2        1 TMJ     -0.167000
      7 C11        -1.8170    1.1870    7.2610 c1        1 TMJ      0.147000
      8 C6         -0.5330    0.4830    2.3830 c2        1 TMJ     -0.401000
      9 C4          0.3040    2.4010    1.0510 c2        1 TMJ     -0.152000
     10 C2          1.1940   -1.2760   -1.3410 c2        1 TMJ     -0.137000
     11 C3          1.0850    2.7290    0.0110 c2        1 TMJ     -0.136000
     12 CL1         0.9000   -1.5320    7.9850 cl        1 TMJ      0.196000
     13 N2         -2.3410    3.9540    5.1550 n3        1 TMJ     -0.713000
     14 O2         -0.9390    5.6860    4.0780 o         1 TMJ     -0.746000
     15 O1         -2.1280    3.6770    8.8870 o         1 TMJ     -0.197000
     16 C8         -0.8920    3.3600    3.0000 c2        1 TMJ     -0.716000
     17 C9          0.2060    3.2460    2.2300 c2        1 TMJ      0.041000
     18 C7         -0.6190    1.0740    3.5520 c1        1 TMJ      0.016000
     19 C5         -0.4920    1.1370    1.0470 c3        1 TMJ     -0.059000
     20 N1          0.2710   -2.1220   -1.0550 n2        1 TMJ     -0.231000
     21 H11A       -0.0620    0.4270    0.2860 hc        1 TMJ      0.113000
     22 H12A        1.5830    0.0580   -3.0570 ha        1 TMJ      0.116000
     23 H13        -3.9020    3.6660    7.8150 h4        1 TMJ      0.165000
     24 H15        -1.8850   -0.8780    7.7340 ha        1 TMJ      0.206000
     25 H12         0.8160    0.7500    7.4550 h4        1 TMJ      0.199000
     26 H11        -3.8890    2.5540    5.4540 h1        1 TMJ      0.137000
     27 H6         -0.4960   -0.6260    2.3480 ha        1 TMJ      0.197000
     28 H21        -1.5490    1.3660    0.7310 hc        1 TMJ      0.113000
     29 H22         2.1900   -1.4580   -0.8430 h4        1 TMJ      0.179000
     30 H31         1.1710    2.0780   -0.8780 ha        1 TMJ      0.144000
     31 H32         1.6650    3.6620   -0.0180 ha        1 TMJ      0.144000
     32 HN2        -2.2800    1.8910    4.8370 h1        1 TMJ      0.137000
     33 H9          1.1280    3.8080    2.4810 ha        1 TMJ      0.136000
     34 H7         -1.8390    2.9050    2.6580 h4        1 TMJ      0.168000
     35 HN1        -0.6130   -1.9630   -1.4940 hn        1 TMJ      0.136000
     36 S1         -0.8750    4.2610    4.4490 s4        1 TMJ      1.583000
     37 H221       -3.0170    4.6770    5.2550 hn        1 TMJ      0.237000
@<TRIPOS>BOND
     1    1   10 1   
     2    1   22 1   
     3    2    6 1   
     4    2   13 1   
     5    2   26 1   
     6    2   32 1   
     7    3    5 1   
     8    3   12 1   
     9    3   25 1   
    10    4    6 1   
    11    4   15 1   
    12    4   23 1   
    13    5    7 1   
    14    5   24 1   
    15    6    7 1   
    16    8   18 1   
    17    8   19 1   
    18    8   27 1   
    19    9   11 1   
    20    9   17 1   
    21    9   19 1   
    22   10   20 1   
    23   10   29 1   
    24   11   30 1   
    25   11   31 1   
    26   13   36 1   
    27   13   37 1   
    28   14   36 1   
    29   16   17 1   
    30   16   34 1   
    31   16   36 1   
    32   17   33 1   
    33   19   21 1   
    34   19   28 1   
    35   20   35 1   
@<TRIPOS>SUBSTRUCTURE
     1 TMJ         1 TEMP              0 ****  ****    0 ROOT
