@<TRIPOS>MOLECULE
TMJ
   36    38     1     0     0
SMALL
bcc


@<TRIPOS>ATOM
      1 C1          0.3990    5.2390    1.9220 c3        1 TMJ     -0.049100
      2 C10        -0.7740   -1.5320    2.4060 ca        1 TMJ      0.174600
      3 C14        -2.5320   -2.0110    4.5450 ca        1 TMJ     -0.009600
      4 C13        -3.0380   -1.6880    3.2830 ca        1 TMJ     -0.094500
      5 C15        -1.1520   -2.1040    4.7440 ca        1 TMJ     -0.094500
      6 C12        -2.1730   -1.4550    2.2200 ca        1 TMJ     -0.170500
      7 C11        -0.2800   -1.8660    3.6880 ca        1 TMJ     -0.170500
      8 C6          1.4020    3.1390    1.0050 ca        1 TMJ     -0.158000
      9 C4         -0.9840    3.2070    1.4180 ca        1 TMJ     -0.104300
     10 C2         -0.9370    5.9830    1.8990 c3        1 TMJ      0.164800
     11 C3         -2.2320    3.9210    1.8430 c3        1 TMJ      0.207100
     12 CL1        -3.5960   -2.2960    5.8390 cl        1 TMJ     -0.092400
     13 N2          0.1220   -1.3010    1.3530 nh        1 TMJ     -0.771500
     14 O2          1.0110   -0.6890   -0.8410 o         1 TMJ     -0.649800
     15 O1         -1.3730   -0.5880   -0.5400 o         1 TMJ     -0.649800
     16 C8          0.0460    1.1750    0.5570 ca        1 TMJ     -0.398500
     17 C9         -1.0810    1.8850    0.9830 ca        1 TMJ     -0.005000
     18 C7          1.2890    1.8240    0.5720 ca        1 TMJ     -0.014000
     19 C5          0.2690    3.8410    1.4360 ca        1 TMJ      0.005700
     20 N1         -2.0160    5.2090    2.4750 n3        1 TMJ     -0.820200
     21 H11A        0.7970    5.2120    2.9730 hc        1 TMJ      0.067200
     22 H12A        1.1360    5.8040    1.2940 hc        1 TMJ      0.067200
     23 H13        -4.1250   -1.6240    3.1200 ha        1 TMJ      0.150000
     24 H15        -0.7500   -2.3640    5.7360 ha        1 TMJ      0.150000
     25 H12        -2.5990   -1.2220    1.2280 ha        1 TMJ      0.155500
     26 H11         0.8040   -1.9460    3.8640 ha        1 TMJ      0.155500
     27 H6          2.3840    3.6360    1.0100 ha        1 TMJ      0.142000
     28 H21        -0.8360    6.9260    2.5080 h1        1 TMJ      0.034700
     29 H22        -1.1510    6.2890    0.8320 h1        1 TMJ      0.034700
     30 H31        -2.8980    4.0020    0.9300 h1        1 TMJ      0.046200
     31 H32        -2.7770    3.2830    2.6000 h1        1 TMJ      0.046200
     32 HN2         1.0160   -1.7150    1.5120 hn        1 TMJ      0.454800
     33 H9         -2.0700    1.3900    0.9600 ha        1 TMJ      0.152000
     34 H7          2.1840    1.2830    0.2160 ha        1 TMJ      0.154000
     35 HN1        -2.8670    5.7390    2.4620 hn        1 TMJ      0.370800
     36 S1         -0.0860   -0.4030    0.0000 sy        1 TMJ      1.519200
@<TRIPOS>BOND
     1    1   10 1   
     2    1   19 1   
     3    1   21 1   
     4    1   22 1   
     5    2    6 ar  
     6    2    7 ar  
     7    2   13 1   
     8    3    4 ar  
     9    3    5 ar  
    10    3   12 1   
    11    4    6 ar  
    12    4   23 1   
    13    5    7 ar  
    14    5   24 1   
    15    6   25 1   
    16    7   26 1   
    17    8   18 ar  
    18    8   19 ar  
    19    8   27 1   
    20    9   11 1   
    21    9   17 ar  
    22    9   19 ar  
    23   10   20 1   
    24   10   28 1   
    25   10   29 1   
    26   11   20 1   
    27   11   30 1   
    28   11   31 1   
    29   13   32 1   
    30   13   36 1   
    31   14   36 2   
    32   15   36 2   
    33   16   17 ar  
    34   16   18 ar  
    35   16   36 1   
    36   17   33 1   
    37   18   34 1   
    38   20   35 1   
@<TRIPOS>SUBSTRUCTURE
     1 TMJ         1 TEMP              0 ****  ****    0 ROOT
