@<TRIPOS>MOLECULE
TMJ
   36    32     1     0     0
SMALL
bcc


@<TRIPOS>ATOM
      1 C1          1.9020   -2.7930   -3.3870 c3        1 TMJ     -0.135000
      2 C10        -2.3250    1.6090    2.5000 c1        1 TMJ      0.095000
      3 C14        -3.8960    3.2240    4.1060 c1        1 TMJ     -0.091000
      4 C13        -3.6380    3.5870    2.7980 c2        1 TMJ     -0.087000
      5 C15        -3.3660    2.0470    4.6150 c1        1 TMJ     -0.095000
      6 C12        -2.8490    2.7720    1.9950 c1        1 TMJ     -0.176000
      7 C11        -2.5830    1.2430    3.8140 c1        1 TMJ     -0.168000
      8 C6         -0.1430   -1.5690   -2.3470 c1        1 TMJ     -0.159000
      9 C4          2.0850   -1.2120   -1.3670 c1        1 TMJ     -0.098000
     10 C2          3.3370   -2.7800   -3.4260 c3        1 TMJ     -0.073000
     11 C3          3.6380   -1.5900   -1.3960 c3        1 TMJ     -0.038000
     12 CL1        -4.9110    4.2200    5.1030 cl        1 TMJ     -0.016000
     13 N2         -1.5650    0.7180    1.6330 n3        1 TMJ     -0.825000
     14 S1         -0.4900    1.3480    0.5350 s4        1 TMJ      2.085800
     15 O2         -1.0920    2.3870   -0.2500 o         1 TMJ     -0.540400
     16 O1          0.5500    2.0590    1.1870 o         1 TMJ     -0.540400
     17 C8          0.1750    0.0320   -0.5200 c1        1 TMJ     -0.845000
     18 C9          1.5510   -0.2690   -0.4820 c2        1 TMJ     -0.013000
     19 C7         -0.6750   -0.6240   -1.4610 c1        1 TMJ     -0.010000
     20 C5          1.2250   -1.8710   -2.3130 c1        1 TMJ      0.015000
     21 N1          3.9960   -2.6400   -2.1970 n3        1 TMJ     -0.299000
     22 H11A        1.6000   -3.7490   -3.2150 hc        1 TMJ      0.107500
     23 H12A        1.5650   -2.5170   -4.2870 hc        1 TMJ      0.107500
     24 H13        -4.0180    4.4320    2.4290 ha        1 TMJ      0.152000
     25 H15        -3.5530    1.7790    5.5750 ha        1 TMJ      0.148000
     26 H12        -2.6680    3.0240    1.0790 ha        1 TMJ      0.171000
     27 H11        -2.2140    0.4250    4.1660 ha        1 TMJ      0.136000
     28 H6         -0.7300   -2.0210   -2.9940 ha        1 TMJ      0.144000
     29 H21         3.6090   -2.0290   -3.9890 h1        1 TMJ      0.075000
     30 H22         3.6240   -3.6210   -3.8160 h1        1 TMJ      0.075000
     31 H31         3.9150   -1.7960   -0.4890 h1        1 TMJ      0.086000
     32 H32         4.1360   -0.7970   -1.6950 h1        1 TMJ      0.086000
     33 HN2        -1.6110   -0.1730    1.7560 hn        1 TMJ      0.245000
     34 H9          2.1170    0.1030    0.2430 ha        1 TMJ      0.158000
     35 H7         -1.6250   -0.3320   -1.5600 ha        1 TMJ      0.156000
     36 HN1         4.9280   -2.6260   -2.3380 hn        1 TMJ      0.167000
@<TRIPOS>BOND
     1    1   10 1   
     2    1   20 1   
     3    1   22 1   
     4    1   23 1   
     5    2    7 1   
     6    2   13 1   
     7    3    4 1   
     8    3    5 1   
     9    4    6 1   
    10    4   24 1   
    11    5   25 1   
    12    6   26 1   
    13    7   27 1   
    14    8   20 1   
    15    8   28 1   
    16    9   11 1   
    17    9   18 1   
    18   10   21 1   
    19   10   29 1   
    20   10   30 1   
    21   11   21 1   
    22   11   31 1   
    23   11   32 1   
    24   13   14 1   
    25   13   33 1   
    26   14   15 1   
    27   14   16 1   
    28   17   18 1   
    29   17   19 1   
    30   18   34 1   
    31   19   35 1   
    32   21   36 1   
@<TRIPOS>SUBSTRUCTURE
     1 TMJ         1 TEMP              0 ****  ****    0 ROOT
