@<TRIPOS>MOLECULE
TMM
   18    18     1     0     0
SMALL
bcc


@<TRIPOS>ATOM
      1 C1          1.0080    0.0020    0.9840 ca        1 TMM     -0.167600
      2 C2          1.3560    0.0020   -0.3720 ca        1 TMM     -0.094000
      3 C3          0.3750   -0.0000   -1.3710 ca        1 TMM     -0.167600
      4 C4         -0.9740   -0.0030   -0.9950 ca        1 TMM     -0.094000
      5 C5         -1.3490   -0.0030    0.3540 ca        1 TMM     -0.167600
      6 C6         -0.3480   -0.0010    1.3340 ca        1 TMM     -0.094000
      7 C1A         2.0750    0.0050    2.0500 c         1 TMM      0.909200
      8 C3A         0.7640    0.0000   -2.8290 c         1 TMM      0.909200
      9 C5A        -2.8050   -0.0060    0.7460 c         1 TMM      0.909200
     10 O1A         3.1740   -0.6040    1.8490 o         1 TMM     -0.887300
     11 O2A         1.8740    0.6170    3.1480 o         1 TMM     -0.887300
     12 O3A         1.8140    0.6140   -3.2050 o         1 TMM     -0.887300
     13 O4A         0.0420   -0.6130   -3.6790 o         1 TMM     -0.887300
     14 O5A        -3.6580    0.6030    0.0230 o         1 TMM     -0.887300
     15 O6A        -3.1790   -0.6180    1.7980 o         1 TMM     -0.887300
     16 H2          2.4190    0.0050   -0.6580 ha        1 TMM      0.128000
     17 H4         -1.7520   -0.0050   -1.7730 ha        1 TMM      0.128000
     18 H6         -0.6320   -0.0010    2.3970 ha        1 TMM      0.128000
@<TRIPOS>BOND
     1    1    2 ar  
     2    1    6 ar  
     3    1    7 1   
     4    2    3 ar  
     5    2   16 1   
     6    3    4 ar  
     7    3    8 1   
     8    4    5 ar  
     9    4   17 1   
    10    5    6 ar  
    11    5    9 1   
    12    6   18 1   
    13    7   10 1   
    14    7   11 1   
    15    8   12 1   
    16    8   13 1   
    17    9   14 1   
    18    9   15 1   
@<TRIPOS>SUBSTRUCTURE
     1 TMM         1 TEMP              0 ****  ****    0 ROOT
