@<TRIPOS>MOLECULE
TMM
   18    18     1     0     0
SMALL
bcc


@<TRIPOS>ATOM
      1 C1         -0.0150    0.0020   -0.0080 ca        1 TMM     -0.167600
      2 C2          1.3850    0.0010    0.0100 ca        1 TMM     -0.094000
      3 C3          2.0930    0.0010    1.2180 ca        1 TMM     -0.167600
      4 C4          1.3770    0.0010    2.4220 ca        1 TMM     -0.094000
      5 C5         -0.0230    0.0030    2.4310 ca        1 TMM     -0.167600
      6 C6         -0.7080    0.0030    1.2090 ca        1 TMM     -0.094000
      7 C1A        -0.7650    0.0020   -1.3170 c         1 TMM      0.909200
      8 C3A         3.6020   -0.0010    1.2230 c         1 TMM      0.909200
      9 C5A        -0.7810    0.0030    3.7350 c         1 TMM      0.909200
     10 O1A        -0.2840    0.6130   -2.3240 o         1 TMM     -0.887300
     11 O2A        -1.8780   -0.6090   -1.4110 o         1 TMM     -0.887300
     12 O3A         4.2390   -0.6130    0.3060 o         1 TMM     -0.887300
     13 O4A         4.2340    0.6110    2.1430 o         1 TMM     -0.887300
     14 O5A        -0.3070   -0.6080    4.7450 o         1 TMM     -0.887300
     15 O6A        -1.8940    0.6160    3.8220 o         1 TMM     -0.887300
     16 H2          1.9380    0.0000   -0.9410 ha        1 TMM      0.128000
     17 H4          1.9250    0.0010    3.3760 ha        1 TMM      0.128000
     18 H6         -1.8080    0.0040    1.2060 ha        1 TMM      0.128000
@<TRIPOS>BOND
     1    1    2 ar  
     2    1    6 ar  
     3    1    7 1   
     4    2    3 ar  
     5    2   16 1   
     6    3    4 ar  
     7    3    8 1   
     8    4    5 ar  
     9    4   17 1   
    10    5    6 ar  
    11    5    9 1   
    12    6   18 1   
    13    7   10 1   
    14    7   11 1   
    15    8   12 1   
    16    8   13 1   
    17    9   14 1   
    18    9   15 1   
@<TRIPOS>SUBSTRUCTURE
     1 TMM         1 TEMP              0 ****  ****    0 ROOT
