@<TRIPOS>MOLECULE
TMN
   20    19     1     0     0
SMALL
bcc


@<TRIPOS>ATOM
      1 C          -0.0440    0.0000   -0.0090 c3        1 TMN      0.085200
      2 C1          1.5080   -0.0420   -0.0380 c3        1 TMN      0.117400
      3 C2         -0.5300    0.0170    1.4590 c3        1 TMN      0.117400
      4 C3         -0.6160   -1.2620   -0.7090 c3        1 TMN      0.117400
      5 N          -0.5200    1.2380   -0.7360 n4        1 TMN     -0.827600
      6 O1          1.8600   -1.2980    0.5060 oh        1 TMN     -0.615467
      7 O2         -0.2230    1.2950    1.9860 oh        1 TMN     -0.615467
      8 O3         -0.3220   -1.1900   -2.0860 oh        1 TMN     -0.615467
      9 H11         1.8790    0.0240   -1.0970 h1        1 TMN      0.080533
     10 H12         1.9230    0.7980    0.5800 h1        1 TMN      0.080533
     11 H21        -1.6400   -0.1500    1.5100 h1        1 TMN      0.080533
     12 H22         0.0080   -0.8040    2.0050 h1        1 TMN      0.080533
     13 H31        -0.1730   -2.1650   -0.2110 h1        1 TMN      0.080533
     14 H32        -1.7370   -1.2860   -0.6220 h1        1 TMN      0.080533
     15 HN1        -0.2650    1.1590   -1.7270 hn        1 TMN      0.468467
     16 HN2        -1.5370    1.3040   -0.6500 hn        1 TMN      0.468467
     17 HO1         2.8010   -1.2600    0.7310 ho        1 TMN      0.450000
     18 HO2        -0.1780    1.2150    2.9490 ho        1 TMN      0.450000
     19 HO3         0.3910   -1.8150   -2.2790 ho        1 TMN      0.450000
     20 HN3        -0.0900    2.0660   -0.3100 hn        1 TMN      0.468467
@<TRIPOS>BOND
     1    1    2 1   
     2    1    3 1   
     3    1    4 1   
     4    1    5 1   
     5    2    6 1   
     6    2    9 1   
     7    2   10 1   
     8    3    7 1   
     9    3   11 1   
    10    3   12 1   
    11    4    8 1   
    12    4   13 1   
    13    4   14 1   
    14    5   15 1   
    15    5   16 1   
    16    5   20 1   
    17    6   17 1   
    18    7   18 1   
    19    8   19 1   
@<TRIPOS>SUBSTRUCTURE
     1 TMN         1 TEMP              0 ****  ****    0 ROOT
