@<TRIPOS>MOLECULE
TMN
   20    19     1     0     0
SMALL
bcc


@<TRIPOS>ATOM
      1 C          -0.0430    0.0080    0.0020 c3        1 TMN      0.085200
      2 C1          1.5080    0.0070    0.0660 c3        1 TMN      0.117400
      3 C2         -0.6270    0.0070    1.4400 c3        1 TMN      0.117400
      4 C3         -0.5270   -1.2640   -0.7320 c3        1 TMN      0.117400
      5 N          -0.5080    1.2460   -0.7300 nz        1 TMN     -0.827600
      6 O1          1.8500   -1.0810    0.9010 oh        1 TMN     -0.615467
      7 O2         -0.3350    1.2430    2.0500 oh        1 TMN     -0.615467
      8 O3         -0.2070   -1.1040   -2.1020 oh        1 TMN     -0.615467
      9 H11         1.8790    0.9630    0.5280 h1        1 TMN      0.080533
     10 H12         1.9320   -0.1250   -0.9650 h1        1 TMN      0.080533
     11 H21        -0.1930   -0.8700    1.9900 h1        1 TMN      0.080533
     12 H22        -1.7480   -0.0770    1.4080 h1        1 TMN      0.080533
     13 H31         0.0040   -2.1430   -0.2760 h1        1 TMN      0.080533
     14 H32        -1.6390   -1.3870   -0.6200 h1        1 TMN      0.080533
     15 HN1        -0.0700    1.2770   -1.6560 hn        1 TMN      0.468467
     16 HN2        -0.2550    2.0730   -0.1760 hn        1 TMN      0.468467
     17 HO1         2.7910   -1.2610    0.7670 ho        1 TMN      0.450000
     18 HO2         0.3720    1.1060    2.6960 ho        1 TMN      0.450000
     19 HO3        -0.1620   -1.9840   -2.5010 ho        1 TMN      0.450000
     20 HN3        -1.5250    1.2070   -0.8380 hn        1 TMN      0.468467
@<TRIPOS>BOND
     1    1    2 1   
     2    1    3 1   
     3    1    4 1   
     4    1    5 1   
     5    2    6 1   
     6    2    9 1   
     7    2   10 1   
     8    3    7 1   
     9    3   11 1   
    10    3   12 1   
    11    4    8 1   
    12    4   13 1   
    13    4   14 1   
    14    5   15 1   
    15    5   16 1   
    16    5   20 1   
    17    6   17 1   
    18    7   18 1   
    19    8   19 1   
@<TRIPOS>SUBSTRUCTURE
     1 TMN         1 TEMP              0 ****  ****    0 ROOT
