@<TRIPOS>MOLECULE
TMN
   20    19     1     0     0
SMALL
bcc


@<TRIPOS>ATOM
      1 C          -0.0450   -0.0000   -0.0090 c3        1 TMN      0.085200
      2 C1          1.5080   -0.0380   -0.0350 c3        1 TMN      0.117400
      3 C2         -0.5330    0.0120    1.4580 c3        1 TMN      0.117400
      4 C3         -0.6110   -1.2630   -0.7130 c3        1 TMN      0.117400
      5 N          -0.5220    1.2370   -0.7340 n4        1 TMN     -0.827600
      6 O1          1.8630   -1.2950    0.5060 oh        1 TMN     -0.615467
      7 O2         -0.2300    1.2900    1.9880 oh        1 TMN     -0.615467
      8 O3         -0.3150   -1.1870   -2.0880 oh        1 TMN     -0.615467
      9 H11         1.9200    0.8020    0.5850 h1        1 TMN      0.080533
     10 H12         1.8810    0.0310   -1.0930 h1        1 TMN      0.080533
     11 H21         0.0070   -0.8090    2.0040 h1        1 TMN      0.080533
     12 H22        -1.6420   -0.1590    1.5070 h1        1 TMN      0.080533
     13 H31        -0.1670   -2.1660   -0.2160 h1        1 TMN      0.080533
     14 H32        -1.7320   -1.2890   -0.6280 h1        1 TMN      0.080533
     15 HN1        -0.2650    1.1610   -1.7250 hn        1 TMN      0.468467
     16 HN2        -0.0950    2.0660   -0.3060 hn        1 TMN      0.468467
     17 HO1         2.8030   -1.2540    0.7330 ho        1 TMN      0.450000
     18 HO2        -0.1880    1.2080    2.9510 ho        1 TMN      0.450000
     19 HO3         0.4000   -1.8090   -2.2820 ho        1 TMN      0.450000
     20 HN3        -1.5400    1.3010   -0.6490 hn        1 TMN      0.468467
@<TRIPOS>BOND
     1    1    2 1   
     2    1    3 1   
     3    1    4 1   
     4    1    5 1   
     5    2    6 1   
     6    2    9 1   
     7    2   10 1   
     8    3    7 1   
     9    3   11 1   
    10    3   12 1   
    11    4    8 1   
    12    4   13 1   
    13    4   14 1   
    14    5   15 1   
    15    5   16 1   
    16    5   20 1   
    17    6   17 1   
    18    7   18 1   
    19    8   19 1   
@<TRIPOS>SUBSTRUCTURE
     1 TMN         1 TEMP              0 ****  ****    0 ROOT
