@<TRIPOS>MOLECULE
TMN
   19    18     1     0     0
SMALL
bcc


@<TRIPOS>ATOM
      1 C           0.0450   -0.3270   -0.0330 c3        1 TMN      0.054200
      2 C1          0.0910    0.9510    0.8490 c3        1 TMN      0.124400
      3 C2          1.2910   -0.3240   -0.9580 c3        1 TMN      0.124400
      4 C3         -1.1900   -0.2370   -0.9650 c3        1 TMN      0.124400
      5 N          -0.0450   -1.5090    0.8210 n3        1 TMN     -0.891800
      6 O1          0.0140    2.1180    0.0600 oh        1 TMN     -0.604467
      7 O2          2.4660   -0.6620   -0.2500 oh        1 TMN     -0.604467
      8 O3         -2.3320    0.2330   -0.2830 oh        1 TMN     -0.604467
      9 H11        -0.7430    0.9280    1.6000 h1        1 TMN      0.054533
     10 H12         1.0780    1.0230    1.3790 h1        1 TMN      0.054533
     11 H21         1.1950   -1.1200   -1.7440 h1        1 TMN      0.054533
     12 H22         1.3880    0.6830   -1.4420 h1        1 TMN      0.054533
     13 H31        -1.0010    0.5310   -1.7640 h1        1 TMN      0.054533
     14 H32        -1.4000   -1.2290   -1.4460 h1        1 TMN      0.054533
     15 HN1         0.7480   -1.5310    1.4350 hn        1 TMN      0.354800
     16 HN2        -0.0240   -2.3320    0.2500 hn        1 TMN      0.354800
     17 HO1        -0.9020    2.1960   -0.2420 ho        1 TMN      0.413667
     18 HO2         2.7030    0.0990    0.2930 ho        1 TMN      0.413667
     19 HO3        -2.5140   -0.3840    0.4380 ho        1 TMN      0.413667
@<TRIPOS>BOND
     1    1    2 1   
     2    1    3 1   
     3    1    4 1   
     4    1    5 1   
     5    2    6 1   
     6    2    9 1   
     7    2   10 1   
     8    3    7 1   
     9    3   11 1   
    10    3   12 1   
    11    4    8 1   
    12    4   13 1   
    13    4   14 1   
    14    5   15 1   
    15    5   16 1   
    16    6   17 1   
    17    7   18 1   
    18    8   19 1   
@<TRIPOS>SUBSTRUCTURE
     1 TMN         1 TEMP              0 ****  ****    0 ROOT
