@<TRIPOS>MOLECULE
TMO
   14    13     1     0     0
SMALL
bcc


@<TRIPOS>ATOM
      1 CAA        -0.0180    0.0080   -0.0050 c3        1 TMO      0.071100
      2 NAC         1.4920    0.0570   -0.0330 n4        1 TMO     -0.144600
      3 CAD         1.9690    0.0090    1.4010 c3        1 TMO      0.071100
      4 CAB         1.9700   -1.2090   -0.7070 c3        1 TMO      0.071100
      5 OAE         1.9180    1.0990   -0.6340 o         1 TMO     -0.647000
      6 HAA        -0.3890    0.9260    0.5160 hx        1 TMO      0.064033
      7 HAAA       -0.3650   -0.9120    0.5260 hx        1 TMO      0.064033
      8 HAAB       -0.3890    0.0150   -1.0600 hx        1 TMO      0.064033
      9 HAD         1.6010    0.9260    1.9240 hx        1 TMO      0.064033
     10 HADA        1.5840   -0.9110    1.9050 hx        1 TMO      0.064033
     11 HADB        3.0880    0.0160    1.3990 hx        1 TMO      0.064033
     12 HAB         3.0880   -1.2030   -0.7120 hx        1 TMO      0.064033
     13 HABA        1.6020   -1.2040   -1.7640 hx        1 TMO      0.064033
     14 HABB        1.5850   -2.1050   -0.1620 hx        1 TMO      0.064033
@<TRIPOS>BOND
     1    1    2 1   
     2    1    6 1   
     3    1    7 1   
     4    1    8 1   
     5    2    3 1   
     6    2    4 1   
     7    2    5 1   
     8    3    9 1   
     9    3   10 1   
    10    3   11 1   
    11    4   12 1   
    12    4   13 1   
    13    4   14 1   
@<TRIPOS>SUBSTRUCTURE
     1 TMO         1 TEMP              0 ****  ****    0 ROOT
