@<TRIPOS>MOLECULE
TMO
   14    13     1     0     0
SMALL
bcc


@<TRIPOS>ATOM
      1 CAA        -0.0180    0.0080   -0.0050 c3        1 TMO      0.071100
      2 NAC         1.4920    0.0570   -0.0320 n4        1 TMO     -0.144600
      3 CAD         1.9680    0.0060    1.4020 c3        1 TMO      0.071100
      4 CAB         1.9710   -1.2070   -0.7090 c3        1 TMO      0.071100
      5 OAE         1.9180    1.1010   -0.6300 o         1 TMO     -0.647000
      6 HAA        -0.3900    0.9240    0.5180 hx        1 TMO      0.064033
      7 HAAA       -0.3650   -0.9130    0.5240 hx        1 TMO      0.064033
      8 HAAB       -0.3880    0.0180   -1.0610 hx        1 TMO      0.064033
      9 HAD         1.5990    0.9220    1.9270 hx        1 TMO      0.064033
     10 HADA        1.5830   -0.9160    1.9030 hx        1 TMO      0.064033
     11 HADB        3.0870    0.0140    1.4010 hx        1 TMO      0.064033
     12 HAB         3.0890   -1.2000   -0.7130 hx        1 TMO      0.064033
     13 HABA        1.6040   -1.1980   -1.7660 hx        1 TMO      0.064033
     14 HABB        1.5850   -2.1040   -0.1670 hx        1 TMO      0.064033
@<TRIPOS>BOND
     1    1    2 1   
     2    1    6 1   
     3    1    7 1   
     4    1    8 1   
     5    2    3 1   
     6    2    4 1   
     7    2    5 1   
     8    3    9 1   
     9    3   10 1   
    10    3   11 1   
    11    4   12 1   
    12    4   13 1   
    13    4   14 1   
@<TRIPOS>SUBSTRUCTURE
     1 TMO         1 TEMP              0 ****  ****    0 ROOT
