@<TRIPOS>MOLECULE
TMO
   14    13     1     0     0
SMALL
bcc


@<TRIPOS>ATOM
      1 CAA         0.0290    1.4050    0.4900 c3        1 TMO      0.071433
      2 NAC        -0.0000   -0.0000   -0.0660 n4        1 TMO     -0.144600
      3 CAD         1.2030   -0.7280    0.4900 c3        1 TMO      0.071433
      4 CAB        -1.2320   -0.6780    0.4900 c3        1 TMO      0.071433
      5 OAE        -0.0000   -0.0000   -1.3420 o         1 TMO     -0.647000
      6 HAA         0.9500    1.9140    0.1100 hx        1 TMO      0.064033
      7 HAAA       -0.8700    1.9510    0.1100 hx        1 TMO      0.064033
      8 HAAB        0.0290    1.3780    1.6070 hx        1 TMO      0.064033
      9 HAD         1.1790   -0.7140    1.6070 hx        1 TMO      0.064033
     10 HADA        1.1820   -1.7800    0.1100 hx        1 TMO      0.064033
     11 HADB        2.1250   -0.2220    0.1100 hx        1 TMO      0.064033
     12 HAB        -2.1320   -0.1340    0.1100 hx        1 TMO      0.064033
     13 HABA       -1.2550   -1.7290    0.1100 hx        1 TMO      0.064033
     14 HABB       -1.2080   -0.6640    1.6070 hx        1 TMO      0.064033
@<TRIPOS>BOND
     1    1    2 1   
     2    1    6 1   
     3    1    7 1   
     4    1    8 1   
     5    2    3 1   
     6    2    4 1   
     7    2    5 1   
     8    3    9 1   
     9    3   10 1   
    10    3   11 1   
    11    4   12 1   
    12    4   13 1   
    13    4   14 1   
@<TRIPOS>SUBSTRUCTURE
     1 TMO         1 TEMP              0 ****  ****    0 ROOT
