@<TRIPOS>MOLECULE
TMP
   34    35     1     0     0
SMALL
bcc


@<TRIPOS>ATOM
      1 P           0.1860    2.2380   -0.1740 p5        1 TMP      1.340900
      2 O1P         1.1210    3.3410   -0.6350 o         1 TMP     -0.925500
      3 O2P        -0.2130    2.2280    1.2650 o         1 TMP     -0.925500
      4 O3P         0.4850    0.9410   -0.8860 o         1 TMP     -0.925500
      5 O5'        -1.2610    2.6370   -1.0440 os        1 TMP     -0.568200
      6 C5'        -1.1950    3.6170   -1.9930 c3        1 TMP      0.223400
      7 C4'        -0.9410    3.0670   -3.4180 c3        1 TMP      0.062100
      8 O4'        -0.7560    4.1900   -4.3170 os        1 TMP     -0.440600
      9 C3'         0.3110    2.1710   -3.5400 c3        1 TMP      0.107100
     10 O3'        -0.0360    0.8230   -3.7620 oh        1 TMP     -0.654800
     11 C2'         1.0890    2.7270   -4.7340 c3        1 TMP     -0.118400
     12 C1'         0.5420    4.1600   -4.9060 c3        1 TMP      0.303500
     13 N1          1.4200    5.1890   -4.3190 n         1 TMP     -0.369000
     14 C2          1.7480    6.3160   -5.1000 c         1 TMP      0.795500
     15 O2          1.4380    6.4230   -6.3160 o         1 TMP     -0.715500
     16 N3          2.4940    7.3500   -4.5100 n         1 TMP     -0.598500
     17 C4          2.9000    7.3330   -3.1570 c         1 TMP      0.716700
     18 O4          3.5490    8.3220   -2.7520 o         1 TMP     -0.689500
     19 C5          2.5120    6.1550   -2.3900 cc        1 TMP     -0.293400
     20 C5M         2.8840    6.0610   -0.9640 c3        1 TMP     -0.044900
     21 C6          1.7890    5.1510   -2.9820 cd        1 TMP      0.059600
     22 H5'1       -2.1930    4.1490   -2.0380 h1        1 TMP     -0.001800
     23 H5'2       -0.4030    4.3780   -1.7470 h1        1 TMP     -0.001800
     24 H4'        -1.8470    2.5270   -3.7980 h1        1 TMP      0.047700
     25 H3'         0.9140    2.2470   -2.5750 h1        1 TMP      0.150700
     26 HO3'       -0.0350    0.4180   -2.8670 ho        1 TMP      0.480000
     27 H2'1        2.1870    2.6970   -4.5460 hc        1 TMP      0.051700
     28 H2'2        0.8690    2.1420   -5.6600 hc        1 TMP      0.051700
     29 H1'         0.3910    4.4360   -5.9910 h2        1 TMP      0.084700
     30 HN3         2.7090    8.1340   -5.0810 hn        1 TMP      0.319500
     31 H51         2.3820    5.1610   -0.4960 hc        1 TMP      0.059033
     32 H52         2.5670    6.9850   -0.4220 hc        1 TMP      0.059033
     33 H53         3.9930    5.9610   -0.8580 hc        1 TMP      0.059033
     34 H6          1.4770    4.2470   -2.3630 h4        1 TMP      0.301000
@<TRIPOS>BOND
     1    1    2 1   
     2    1    3 1   
     3    1    4 1   
     4    1    5 1   
     5    5    6 1   
     6    6    7 1   
     7    6   22 1   
     8    6   23 1   
     9    7    8 1   
    10    7    9 1   
    11    7   24 1   
    12    8   12 1   
    13    9   10 1   
    14    9   11 1   
    15    9   25 1   
    16   10   26 1   
    17   11   12 1   
    18   11   27 1   
    19   11   28 1   
    20   12   13 1   
    21   12   29 1   
    22   13   14 1   
    23   13   21 1   
    24   14   15 2   
    25   14   16 1   
    26   16   17 1   
    27   16   30 1   
    28   17   18 2   
    29   17   19 1   
    30   19   20 1   
    31   19   21 2   
    32   20   31 1   
    33   20   32 1   
    34   20   33 1   
    35   21   34 1   
@<TRIPOS>SUBSTRUCTURE
     1 TMP         1 TEMP              0 ****  ****    0 ROOT
