@<TRIPOS>MOLECULE
TMP
   34    35     1     0     0
SMALL
bcc


@<TRIPOS>ATOM
      1 P          -2.0520    1.2420   -0.9980 p5        1 TMP      1.340900
      2 O1P        -0.5980    1.4720   -0.6260 o         1 TMP     -0.925500
      3 O2P        -2.6820    2.2040   -1.9490 o         1 TMP     -0.925500
      4 O3P        -2.8370    0.7180    0.1810 o         1 TMP     -0.925500
      5 O5'        -1.9440   -0.2540   -1.8700 os        1 TMP     -0.568200
      6 C5'        -0.7530   -0.9230   -1.8630 c3        1 TMP      0.223400
      7 C4'        -0.6680   -2.0000   -0.7540 c3        1 TMP      0.062100
      8 O4'         0.6740   -2.5500   -0.7500 os        1 TMP     -0.440600
      9 C3'        -0.9510   -1.4720    0.6690 c3        1 TMP      0.107100
     10 O3'        -2.1780   -1.9560    1.1670 oh        1 TMP     -0.654800
     11 C2'         0.2110   -1.9780    1.5250 c3        1 TMP     -0.118400
     12 C1'         1.3160   -2.3120    0.5010 c3        1 TMP      0.303500
     13 N1          2.3380   -1.2550    0.3860 n         1 TMP     -0.369000
     14 C2          3.6970   -1.6270    0.4400 c         1 TMP      0.795500
     15 O2          4.0790   -2.7950    0.7140 o         1 TMP     -0.715500
     16 N3          4.6730   -0.6400    0.2240 n         1 TMP     -0.598500
     17 C4          4.3600    0.7020   -0.0860 c         1 TMP      0.716700
     18 O4          5.3220    1.4780   -0.2670 o         1 TMP     -0.689500
     19 C5          2.9380    1.0250   -0.1530 cc        1 TMP     -0.293400
     20 C5M         2.5200    2.4020   -0.4830 c3        1 TMP     -0.044900
     21 C6          1.9970    0.0520    0.0670 cd        1 TMP      0.059600
     22 H5'1        0.1170   -0.2160   -1.7550 h1        1 TMP     -0.001800
     23 H5'2       -0.6380   -1.4750   -2.8440 h1        1 TMP     -0.001800
     24 H4'        -1.3420   -2.8630   -0.9930 h1        1 TMP      0.047700
     25 H3'        -0.9850   -0.3320    0.6390 h1        1 TMP      0.150700
     26 HO3'       -2.8260   -1.2500    0.9550 ho        1 TMP      0.480000
     27 H2'1       -0.0730   -2.9110    2.0690 hc        1 TMP      0.051700
     28 H2'2        0.5230   -1.2110    2.2710 hc        1 TMP      0.051700
     29 H1'         1.8610   -3.2700    0.7500 h2        1 TMP      0.084700
     30 HN3         5.6230   -0.9290    0.2640 hn        1 TMP      0.319500
     31 H51         1.4000    2.4360   -0.6340 hc        1 TMP      0.059033
     32 H52         2.8030    3.1020    0.3420 hc        1 TMP      0.059033
     33 H53         3.0310    2.7460   -1.4170 hc        1 TMP      0.059033
     34 H6          0.8910    0.3160   -0.0090 h4        1 TMP      0.301000
@<TRIPOS>BOND
     1    1    2 1   
     2    1    3 1   
     3    1    4 1   
     4    1    5 1   
     5    5    6 1   
     6    6    7 1   
     7    6   22 1   
     8    6   23 1   
     9    7    8 1   
    10    7    9 1   
    11    7   24 1   
    12    8   12 1   
    13    9   10 1   
    14    9   11 1   
    15    9   25 1   
    16   10   26 1   
    17   11   12 1   
    18   11   27 1   
    19   11   28 1   
    20   12   13 1   
    21   12   29 1   
    22   13   14 1   
    23   13   21 1   
    24   14   15 2   
    25   14   16 1   
    26   16   17 1   
    27   16   30 1   
    28   17   18 2   
    29   17   19 1   
    30   19   20 1   
    31   19   21 2   
    32   20   31 1   
    33   20   32 1   
    34   20   33 1   
    35   21   34 1   
@<TRIPOS>SUBSTRUCTURE
     1 TMP         1 TEMP              0 ****  ****    0 ROOT
