@<TRIPOS>MOLECULE
TMP
   34    35     1     0     0
SMALL
bcc


@<TRIPOS>ATOM
      1 P           0.0430    2.3010   -0.1740 p5        1 TMP      1.340900
      2 O1P         1.0230    3.3730   -0.6200 o         1 TMP     -0.925500
      3 O2P        -0.4030    2.3230    1.2500 o         1 TMP     -0.925500
      4 O3P         0.3310    0.9860   -0.8570 o         1 TMP     -0.925500
      5 O5'        -1.3630    2.7250   -1.0970 os        1 TMP     -0.568200
      6 C5'        -1.2400    3.6890   -2.0580 c3        1 TMP      0.223400
      7 C4'        -0.9540    3.1110   -3.4650 c3        1 TMP      0.062100
      8 O4'        -0.7090    4.2150   -4.3740 os        1 TMP     -0.440600
      9 C3'         0.2770    2.1810   -3.5330 c3        1 TMP      0.107100
     10 O3'        -0.0990    0.8390   -3.7470 oh        1 TMP     -0.654800
     11 C2'         1.1080    2.6980   -4.7080 c3        1 TMP     -0.118400
     12 C1'         0.6060    4.1410   -4.9180 c3        1 TMP      0.303500
     13 N1          1.4910    5.1560   -4.3170 n         1 TMP     -0.369000
     14 C2          1.8740    6.2630   -5.1030 c         1 TMP      0.795500
     15 O2          1.6070    6.3590   -6.3300 o         1 TMP     -0.715500
     16 N3          2.6290    7.2850   -4.5030 n         1 TMP     -0.598500
     17 C4          2.9890    7.2780   -3.1370 c         1 TMP      0.716700
     18 O4          3.6510    8.2550   -2.7250 o         1 TMP     -0.689500
     19 C5          2.5450    6.1220   -2.3670 cc        1 TMP     -0.293400
     20 C5M         2.8670    6.0390   -0.9280 c3        1 TMP     -0.044900
     21 C6          1.8150    5.1290   -2.9680 cd        1 TMP      0.059600
     22 H5'1       -2.2210    4.2450   -2.1430 h1        1 TMP     -0.001800
     23 H5'2       -0.4360    4.4320   -1.7960 h1        1 TMP     -0.001800
     24 H4'        -1.8610    2.5890   -3.8670 h1        1 TMP      0.047700
     25 H3'         0.8500    2.2550   -2.5490 h1        1 TMP      0.150700
     26 HO3'       -0.1380    0.4470   -2.8470 ho        1 TMP      0.480000
     27 H2'1        0.9030    2.1040   -5.6320 hc        1 TMP      0.051700
     28 H2'2        2.1980    2.6420   -4.4830 hc        1 TMP      0.051700
     29 H1'         0.4980    4.4060   -6.0110 h2        1 TMP      0.084700
     30 HN3         2.8820    8.0540   -5.0780 hn        1 TMP      0.319500
     31 H51         2.3260    5.1600   -0.4650 hc        1 TMP      0.059033
     32 H52         3.9690    5.9120   -0.7840 hc        1 TMP      0.059033
     33 H53         2.5580    6.9800   -0.4100 hc        1 TMP      0.059033
     34 H6          1.4590    4.2420   -2.3480 h4        1 TMP      0.301000
@<TRIPOS>BOND
     1    1    2 1   
     2    1    3 1   
     3    1    4 1   
     4    1    5 1   
     5    5    6 1   
     6    6    7 1   
     7    6   22 1   
     8    6   23 1   
     9    7    8 1   
    10    7    9 1   
    11    7   24 1   
    12    8   12 1   
    13    9   10 1   
    14    9   11 1   
    15    9   25 1   
    16   10   26 1   
    17   11   12 1   
    18   11   27 1   
    19   11   28 1   
    20   12   13 1   
    21   12   29 1   
    22   13   14 1   
    23   13   21 1   
    24   14   15 2   
    25   14   16 1   
    26   16   17 1   
    27   16   30 1   
    28   17   18 2   
    29   17   19 1   
    30   19   20 1   
    31   19   21 2   
    32   20   31 1   
    33   20   32 1   
    34   20   33 1   
    35   21   34 1   
@<TRIPOS>SUBSTRUCTURE
     1 TMP         1 TEMP              0 ****  ****    0 ROOT
