@<TRIPOS>MOLECULE
TMQ
   51    53     1     0     0
SMALL
bcc


@<TRIPOS>ATOM
      1 N1          0.0320   -0.2500   -0.1990 na        1 TMQ     -0.387900
      2 C2          1.4260   -0.3690   -0.2270 ca        1 TMQ      0.754000
      3 N3          2.2010   -0.0790    0.8700 nb        1 TMQ     -0.837000
      4 C4          1.5860    0.2520    2.0500 ca        1 TMQ      0.814200
      5 C3A        -0.6210   -0.0540    1.0240 ca        1 TMQ      0.084700
      6 C4A         0.1300    0.0820    2.2300 ca        1 TMQ     -0.247300
      7 C5         -0.5530    0.0600    3.4700 ca        1 TMQ      0.032700
      8 C6         -1.9520    0.1460    3.4800 ca        1 TMQ     -0.110300
      9 C7         -2.6740    0.1380    2.2760 ca        1 TMQ     -0.032000
     10 C8         -2.0310    0.0000    1.0580 ca        1 TMQ     -0.175000
     11 C9         -2.7380    0.2130    4.7630 c3        1 TMQ      0.216100
     12 N10        -2.3800    1.3570    5.5770 nu        1 TMQ     -0.721600
     13 C11        -3.1590    1.5920    6.7360 ca        1 TMQ      0.167600
     14 C12        -3.2000    2.9010    7.2660 ca        1 TMQ     -0.275500
     15 C13        -3.8800    3.1500    8.4610 ca        1 TMQ      0.170600
     16 C14        -4.5630    2.1150    9.1360 ca        1 TMQ      0.025100
     17 C15        -4.5060    0.8120    8.6020 ca        1 TMQ      0.170600
     18 C16        -3.8190    0.5470    7.4100 ca        1 TMQ     -0.275500
     19 C17         0.1640   -0.1290    4.7550 c3        1 TMQ     -0.090800
     20 O18        -3.9430    4.3820    9.0700 os        1 TMQ     -0.302400
     21 O19        -5.3620    2.4220   10.2180 os        1 TMQ     -0.304900
     22 O20        -5.1510   -0.1510    9.3460 os        1 TMQ     -0.302400
     23 C21        -3.4040    5.4820    8.3440 c3        1 TMQ      0.110700
     24 C22        -4.8280    1.9880   11.4720 c3        1 TMQ      0.113700
     25 C23        -5.2430   -1.4510    8.7730 c3        1 TMQ      0.110700
     26 N24         2.0500   -0.7490   -1.3870 nv        1 TMQ     -0.497900
     27 N25         2.3650    0.7980    3.0100 nv        1 TMQ     -0.894500
     28 HN         -0.5240   -0.3570   -1.0220 hn        1 TMQ      0.324700
     29 H7         -3.7760    0.2150    2.2980 ha        1 TMQ      0.169000
     30 H8         -2.6220   -0.0670    0.1300 ha        1 TMQ      0.164000
     31 H91        -3.8430    0.2010    4.5210 h1        1 TMQ      0.060700
     32 H92        -2.5280   -0.7230    5.3620 h1        1 TMQ      0.060700
     33 HN1        -2.2800    2.1900    5.0270 hn        1 TMQ      0.386800
     34 H12        -2.6880    3.7240    6.7470 ha        1 TMQ      0.137500
     35 H16        -3.8000   -0.4770    7.0160 ha        1 TMQ      0.137500
     36 H171        1.0830   -0.7540    4.6300 hc        1 TMQ      0.074700
     37 H172       -0.4840   -0.6720    5.4940 hc        1 TMQ      0.074700
     38 H173        0.4200    0.8560    5.2230 hc        1 TMQ      0.074700
     39 H211       -3.6370    6.3590    9.0010 h1        1 TMQ      0.047533
     40 H212       -3.9050    5.5880    7.3510 h1        1 TMQ      0.047533
     41 H213       -2.3000    5.3660    8.2180 h1        1 TMQ      0.047533
     42 H221       -3.8540    2.4950   11.6750 h1        1 TMQ      0.044700
     43 H222       -4.7040    0.8780   11.4760 h1        1 TMQ      0.044700
     44 H223       -5.6060    2.3080   12.2090 h1        1 TMQ      0.044700
     45 H231       -4.2290   -1.9100    8.6760 h1        1 TMQ      0.047533
     46 H232       -5.7560   -1.4140    7.7820 h1        1 TMQ      0.047533
     47 H233       -5.8610   -2.0150    9.5170 h1        1 TMQ      0.047533
     48 HN21        1.5400   -0.9150   -2.2210 hn        1 TMQ      0.324700
     49 HN22        3.0450   -0.8120   -1.4080 hn        1 TMQ      0.324700
     50 HN51        1.9780    1.0720    3.8830 hn        1 TMQ      0.475300
     51 HN52        3.3480    0.9110    2.8720 hn        1 TMQ      0.475300
@<TRIPOS>BOND
     1    1    2 1   
     2    1    5 2   
     3    1   28 1   
     4    2    3 ar  
     5    2   26 1   
     6    3    4 ar  
     7    4    6 ar  
     8    4   27 1   
     9    5    6 ar  
    10    5   10 ar  
    11    6    7 ar  
    12    7    8 ar  
    13    7   19 1   
    14    8    9 ar  
    15    8   11 1   
    16    9   10 ar  
    17    9   29 1   
    18   10   30 1   
    19   11   12 1   
    20   11   31 1   
    21   11   32 1   
    22   12   13 1   
    23   12   33 1   
    24   13   14 ar  
    25   13   18 ar  
    26   14   15 ar  
    27   14   34 1   
    28   15   16 ar  
    29   15   20 1   
    30   16   17 ar  
    31   16   21 1   
    32   17   18 ar  
    33   17   22 1   
    34   18   35 1   
    35   19   36 1   
    36   19   37 1   
    37   19   38 1   
    38   20   23 1   
    39   21   24 1   
    40   22   25 1   
    41   23   39 1   
    42   23   40 1   
    43   23   41 1   
    44   24   42 1   
    45   24   43 1   
    46   24   44 1   
    47   25   45 1   
    48   25   46 1   
    49   25   47 1   
    50   26   48 1   
    51   26   49 1   
    52   27   50 1   
    53   27   51 1   
@<TRIPOS>SUBSTRUCTURE
     1 TMQ         1 TEMP              0 ****  ****    0 ROOT
