@<TRIPOS>MOLECULE
TMQ
   51    53     1     0     0
SMALL
bcc


@<TRIPOS>ATOM
      1 N1          0.0330   -0.2550   -0.1980 na        1 TMQ     -0.387900
      2 C2          1.4270   -0.3730   -0.2260 ca        1 TMQ      0.754000
      3 N3          2.2020   -0.0820    0.8720 nb        1 TMQ     -0.837000
      4 C4          1.5870    0.2500    2.0510 ca        1 TMQ      0.814200
      5 C3A        -0.6200   -0.0580    1.0260 ca        1 TMQ      0.084700
      6 C4A         0.1310    0.0790    2.2310 ca        1 TMQ     -0.247300
      7 C5         -0.5520    0.0590    3.4710 ca        1 TMQ      0.032700
      8 C6         -1.9520    0.1440    3.4810 ca        1 TMQ     -0.110300
      9 C7         -2.6730    0.1340    2.2770 ca        1 TMQ     -0.032000
     10 C8         -2.0300   -0.0040    1.0590 ca        1 TMQ     -0.175000
     11 C9         -2.7370    0.2110    4.7640 c3        1 TMQ      0.216100
     12 N10        -2.3800    1.3570    5.5770 nh        1 TMQ     -0.721600
     13 C11        -3.1590    1.5930    6.7360 ca        1 TMQ      0.167600
     14 C12        -3.1990    2.9020    7.2640 ca        1 TMQ     -0.275500
     15 C13        -3.8800    3.1520    8.4590 ca        1 TMQ      0.170600
     16 C14        -4.5640    2.1180    9.1340 ca        1 TMQ      0.025100
     17 C15        -4.5070    0.8140    8.6010 ca        1 TMQ      0.170600
     18 C16        -3.8200    0.5490    7.4100 ca        1 TMQ     -0.275500
     19 C17         0.1650   -0.1290    4.7570 c3        1 TMQ     -0.090800
     20 O18        -3.9430    4.3850    9.0670 os        1 TMQ     -0.302400
     21 O19        -5.3630    2.4260   10.2160 os        1 TMQ     -0.304900
     22 O20        -5.1530   -0.1480    9.3460 os        1 TMQ     -0.302400
     23 C21        -3.4030    5.4840    8.3410 c3        1 TMQ      0.110700
     24 C22        -4.8300    1.9930   11.4700 c3        1 TMQ      0.113700
     25 C23        -5.2460   -1.4480    8.7730 c3        1 TMQ      0.110700
     26 N24         2.0510   -0.7540   -1.3850 nh        1 TMQ     -0.497900
     27 N25         2.3660    0.7980    3.0100 nh        1 TMQ     -0.894500
     28 HN         -0.5230   -0.3630   -1.0200 hn        1 TMQ      0.324700
     29 H7         -3.7750    0.2110    2.2990 ha        1 TMQ      0.169000
     30 H8         -2.6210   -0.0730    0.1320 ha        1 TMQ      0.164000
     31 H91        -3.8430    0.1990    4.5220 h1        1 TMQ      0.060700
     32 H92        -2.5270   -0.7240    5.3640 h1        1 TMQ      0.060700
     33 HN1        -2.2800    2.1890    5.0260 hn        1 TMQ      0.386800
     34 H12        -2.6870    3.7240    6.7460 ha        1 TMQ      0.137500
     35 H16        -3.8010   -0.4760    7.0160 ha        1 TMQ      0.137500
     36 H171        1.0840   -0.7530    4.6320 hc        1 TMQ      0.074700
     37 H172       -0.4830   -0.6710    5.4950 hc        1 TMQ      0.074700
     38 H173        0.4200    0.8570    5.2230 hc        1 TMQ      0.074700
     39 H211       -3.6350    6.3610    8.9980 h1        1 TMQ      0.047533
     40 H212       -3.9030    5.5900    7.3480 h1        1 TMQ      0.047533
     41 H213       -2.2990    5.3670    8.2160 h1        1 TMQ      0.047533
     42 H221       -3.8570    2.4990   11.6730 h1        1 TMQ      0.044700
     43 H222       -4.7070    0.8830   11.4760 h1        1 TMQ      0.044700
     44 H223       -5.6080    2.3140   12.2070 h1        1 TMQ      0.044700
     45 H231       -4.2320   -1.9070    8.6760 h1        1 TMQ      0.047533
     46 H232       -5.7590   -1.4100    7.7810 h1        1 TMQ      0.047533
     47 H233       -5.8650   -2.0110    9.5170 h1        1 TMQ      0.047533
     48 HN21        1.5410   -0.9210   -2.2190 hn        1 TMQ      0.324700
     49 HN22        3.0460   -0.8170   -1.4060 hn        1 TMQ      0.324700
     50 HN51        1.9780    1.0730    3.8830 hn        1 TMQ      0.475300
     51 HN52        3.3480    0.9110    2.8720 hn        1 TMQ      0.475300
@<TRIPOS>BOND
     1    1    2 1   
     2    1    5 2   
     3    1   28 1   
     4    2    3 ar  
     5    2   26 1   
     6    3    4 ar  
     7    4    6 ar  
     8    4   27 1   
     9    5    6 ar  
    10    5   10 ar  
    11    6    7 ar  
    12    7    8 ar  
    13    7   19 1   
    14    8    9 ar  
    15    8   11 1   
    16    9   10 ar  
    17    9   29 1   
    18   10   30 1   
    19   11   12 1   
    20   11   31 1   
    21   11   32 1   
    22   12   13 1   
    23   12   33 1   
    24   13   14 ar  
    25   13   18 ar  
    26   14   15 ar  
    27   14   34 1   
    28   15   16 ar  
    29   15   20 1   
    30   16   17 ar  
    31   16   21 1   
    32   17   18 ar  
    33   17   22 1   
    34   18   35 1   
    35   19   36 1   
    36   19   37 1   
    37   19   38 1   
    38   20   23 1   
    39   21   24 1   
    40   22   25 1   
    41   23   39 1   
    42   23   40 1   
    43   23   41 1   
    44   24   42 1   
    45   24   43 1   
    46   24   44 1   
    47   25   45 1   
    48   25   46 1   
    49   25   47 1   
    50   26   48 1   
    51   26   49 1   
    52   27   50 1   
    53   27   51 1   
@<TRIPOS>SUBSTRUCTURE
     1 TMQ         1 TEMP              0 ****  ****    0 ROOT
