@<TRIPOS>MOLECULE
TMQ
   51    53     1     0     0
SMALL
bcc


@<TRIPOS>ATOM
      1 N1          5.8280   -0.3200   -1.0940 na        1 TMQ     -0.387900
      2 C2          6.6090    0.1520   -0.0330 ca        1 TMQ      0.754000
      3 N3          6.0480    0.7510    1.0710 nb        1 TMQ     -0.837000
      4 C4          4.6820    0.8090    1.1740 ca        1 TMQ      0.814200
      5 C3A         4.4380   -0.4000   -0.9470 ca        1 TMQ      0.083700
      6 C4A         3.8110    0.0500    0.2530 ca        1 TMQ     -0.247300
      7 C5          2.4410   -0.2410    0.4640 ca        1 TMQ      0.032700
      8 C6          1.6800   -0.7460   -0.6000 ca        1 TMQ     -0.109300
      9 C7          2.2910   -1.0660   -1.8220 ca        1 TMQ     -0.032000
     10 C8          3.6580   -0.9370   -1.9940 ca        1 TMQ     -0.175000
     11 C9          0.2010   -1.0000   -0.4720 c3        1 TMQ      0.216100
     12 N10        -0.5430    0.1990   -0.1410 nh        1 TMQ     -0.721600
     13 C11        -1.9560    0.0970   -0.1300 ca        1 TMQ      0.166600
     14 C12        -2.7160    1.2750   -0.3050 ca        1 TMQ     -0.276000
     15 C13        -4.1100    1.2250   -0.2150 ca        1 TMQ      0.170100
     16 C14        -4.7790    0.0070    0.0320 ca        1 TMQ      0.025100
     17 C15        -4.0070   -1.1580    0.2240 ca        1 TMQ      0.170100
     18 C16        -2.6100   -1.1220    0.1280 ca        1 TMQ     -0.276000
     19 C17         1.8060   -0.1000    1.7970 c3        1 TMQ     -0.090800
     20 O18        -4.9290    2.3250   -0.3380 os        1 TMQ     -0.302900
     21 O19        -6.1540   -0.0920   -0.0320 os        1 TMQ     -0.304900
     22 O20        -4.7300   -2.2930    0.5090 os        1 TMQ     -0.302900
     23 C21        -4.3060    3.5450   -0.7290 c3        1 TMQ      0.110200
     24 C22        -6.8270    0.4570    1.1050 c3        1 TMQ      0.113700
     25 C23        -4.0090   -3.5200    0.5440 c3        1 TMQ      0.110200
     26 N24         7.9740    0.0540   -0.1010 nh        1 TMQ     -0.497900
     27 N25         4.1780    1.6410    2.1110 nh        1 TMQ     -0.894500
     28 HN          6.2360   -0.6570   -1.9400 hn        1 TMQ      0.324700
     29 H7          1.6780   -1.4550   -2.6550 ha        1 TMQ      0.169000
     30 H8          4.1250   -1.2550   -2.9410 ha        1 TMQ      0.164000
     31 H91         0.0370   -1.7550    0.3520 h1        1 TMQ      0.061200
     32 H92        -0.1760   -1.4750   -1.4280 h1        1 TMQ      0.061200
     33 HN1        -0.2360    0.9900   -0.6750 hn        1 TMQ      0.386800
     34 H12        -2.2150    2.2320   -0.5070 ha        1 TMQ      0.137500
     35 H16        -2.0390   -2.0500    0.2670 ha        1 TMQ      0.137500
     36 H171        1.3300    0.9080    1.9120 hc        1 TMQ      0.074700
     37 H172        0.9860   -0.8550    1.9270 hc        1 TMQ      0.074700
     38 H173        2.5340   -0.2860    2.6250 hc        1 TMQ      0.074700
     39 H211       -3.6010    3.8960    0.0630 h1        1 TMQ      0.047700
     40 H212       -3.7780    3.4270   -1.7050 h1        1 TMQ      0.047700
     41 H213       -5.1700    4.2510   -0.8290 h1        1 TMQ      0.047700
     42 H221       -6.5380   -0.0960    2.0300 h1        1 TMQ      0.044367
     43 H222       -6.5930    1.5440    1.2050 h1        1 TMQ      0.044367
     44 H223       -7.9080    0.2990    0.8660 h1        1 TMQ      0.044367
     45 H231       -4.8120   -4.2830    0.7120 h1        1 TMQ      0.047700
     46 H232       -3.4870   -3.7040   -0.4260 h1        1 TMQ      0.047700
     47 H233       -3.2810   -3.5230    1.3910 h1        1 TMQ      0.047700
     48 HN21        8.4300   -0.3200   -0.8990 hn        1 TMQ      0.324700
     49 HN22        8.5280    0.4100    0.6490 hn        1 TMQ      0.324700
     50 HN51        3.1960    1.7380    2.2290 hn        1 TMQ      0.475300
     51 HN52        4.7800    2.1510    2.7240 hn        1 TMQ      0.475300
@<TRIPOS>BOND
     1    1    2 1   
     2    1    5 2   
     3    1   28 1   
     4    2    3 ar  
     5    2   26 1   
     6    3    4 ar  
     7    4    6 ar  
     8    4   27 1   
     9    5    6 ar  
    10    5   10 ar  
    11    6    7 ar  
    12    7    8 ar  
    13    7   19 1   
    14    8    9 ar  
    15    8   11 1   
    16    9   10 ar  
    17    9   29 1   
    18   10   30 1   
    19   11   12 1   
    20   11   31 1   
    21   11   32 1   
    22   12   13 1   
    23   12   33 1   
    24   13   14 ar  
    25   13   18 ar  
    26   14   15 ar  
    27   14   34 1   
    28   15   16 ar  
    29   15   20 1   
    30   16   17 ar  
    31   16   21 1   
    32   17   18 ar  
    33   17   22 1   
    34   18   35 1   
    35   19   36 1   
    36   19   37 1   
    37   19   38 1   
    38   20   23 1   
    39   21   24 1   
    40   22   25 1   
    41   23   39 1   
    42   23   40 1   
    43   23   41 1   
    44   24   42 1   
    45   24   43 1   
    46   24   44 1   
    47   25   45 1   
    48   25   46 1   
    49   25   47 1   
    50   26   48 1   
    51   26   49 1   
    52   27   50 1   
    53   27   51 1   
@<TRIPOS>SUBSTRUCTURE
     1 TMQ         1 TEMP              0 ****  ****    0 ROOT
