@<TRIPOS>MOLECULE
TMQ
   51    53     1     0     0
SMALL
bcc


@<TRIPOS>ATOM
      1 N1          0.0320   -0.2690   -0.1950 na        1 TMQ     -0.387900
      2 C2          1.4250   -0.4010   -0.2200 ca        1 TMQ      0.754000
      3 N3          2.2010   -0.1190    0.8790 nb        1 TMQ     -0.837000
      4 C4          1.5860    0.2180    2.0580 ca        1 TMQ      0.814200
      5 C3A        -0.6220   -0.0680    1.0270 ca        1 TMQ      0.084700
      6 C4A         0.1280    0.0610    2.2340 ca        1 TMQ     -0.247300
      7 C5         -0.5570    0.0460    3.4740 ca        1 TMQ      0.032700
      8 C6         -1.9560    0.1450    3.4810 ca        1 TMQ     -0.110300
      9 C7         -2.6750    0.1440    2.2760 ca        1 TMQ     -0.032000
     10 C8         -2.0310    0.0000    1.0580 ca        1 TMQ     -0.175000
     11 C9         -2.7430    0.2190    4.7620 c3        1 TMQ      0.216100
     12 N10        -2.3770    1.3600    5.5760 nh        1 TMQ     -0.721600
     13 C11        -3.1550    1.6020    6.7340 ca        1 TMQ      0.167600
     14 C12        -3.1850    2.9110    7.2640 ca        1 TMQ     -0.275500
     15 C13        -3.8650    3.1670    8.4580 ca        1 TMQ      0.170600
     16 C14        -4.5600    2.1380    9.1310 ca        1 TMQ      0.025100
     17 C15        -4.5130    0.8340    8.5970 ca        1 TMQ      0.170600
     18 C16        -3.8260    0.5630    7.4070 ca        1 TMQ     -0.275500
     19 C17         0.1560   -0.1500    4.7600 c3        1 TMQ     -0.090800
     20 O18        -3.9190    4.3990    9.0660 os        1 TMQ     -0.302400
     21 O19        -5.3570    2.4520   10.2120 os        1 TMQ     -0.304900
     22 O20        -5.1680   -0.1230    9.3400 os        1 TMQ     -0.302400
     23 C21        -3.3680    5.4940    8.3420 c3        1 TMQ      0.110700
     24 C22        -4.8300    2.0130   11.4670 c3        1 TMQ      0.113700
     25 C23        -5.2710   -1.4220    8.7670 c3        1 TMQ      0.110700
     26 N24         2.0470   -0.7870   -1.3790 nh        1 TMQ     -0.497900
     27 N25         2.3690    0.7570    3.0180 nh        1 TMQ     -0.894500
     28 HN         -0.5230   -0.3710   -1.0190 hn        1 TMQ      0.324700
     29 H7         -3.7760    0.2310    2.2950 ha        1 TMQ      0.169000
     30 H8         -2.6210   -0.0620    0.1290 ha        1 TMQ      0.164000
     31 H91        -2.5430   -0.7190    5.3620 h1        1 TMQ      0.060700
     32 H92        -3.8480    0.2170    4.5170 h1        1 TMQ      0.060700
     33 HN1        -2.2680    2.1920    5.0270 hn        1 TMQ      0.386800
     34 H12        -2.6650    3.7290    6.7460 ha        1 TMQ      0.137500
     35 H16        -3.8160   -0.4610    7.0130 ha        1 TMQ      0.137500
     36 H171        1.0690   -0.7830    4.6360 hc        1 TMQ      0.074700
     37 H172        0.4200    0.8330    5.2280 hc        1 TMQ      0.074700
     38 H173       -0.4990   -0.6860    5.4970 hc        1 TMQ      0.074700
     39 H211       -3.8650    5.6050    7.3480 h1        1 TMQ      0.047533
     40 H212       -2.2640    5.3670    8.2190 h1        1 TMQ      0.047533
     41 H213       -3.5930    6.3730    8.9990 h1        1 TMQ      0.047533
     42 H221       -3.8530    2.5110   11.6720 h1        1 TMQ      0.044700
     43 H222       -5.6070    2.3400   12.2020 h1        1 TMQ      0.044700
     44 H223       -4.7160    0.9020   11.4710 h1        1 TMQ      0.044700
     45 H231       -5.8960   -1.9800    9.5100 h1        1 TMQ      0.047533
     46 H232       -4.2610   -1.8900    8.6720 h1        1 TMQ      0.047533
     47 H233       -5.7820   -1.3800    7.7750 h1        1 TMQ      0.047533
     48 HN21        3.0420   -0.8600   -1.3980 hn        1 TMQ      0.324700
     49 HN22        1.5370   -0.9480   -2.2140 hn        1 TMQ      0.324700
     50 HN51        3.3520    0.8610    2.8830 hn        1 TMQ      0.475300
     51 HN52        1.9820    1.0350    3.8910 hn        1 TMQ      0.475300
@<TRIPOS>BOND
     1    1    2 1   
     2    1    5 2   
     3    1   28 1   
     4    2    3 ar  
     5    2   26 1   
     6    3    4 ar  
     7    4    6 ar  
     8    4   27 1   
     9    5    6 ar  
    10    5   10 ar  
    11    6    7 ar  
    12    7    8 ar  
    13    7   19 1   
    14    8    9 ar  
    15    8   11 1   
    16    9   10 ar  
    17    9   29 1   
    18   10   30 1   
    19   11   12 1   
    20   11   31 1   
    21   11   32 1   
    22   12   13 1   
    23   12   33 1   
    24   13   14 ar  
    25   13   18 ar  
    26   14   15 ar  
    27   14   34 1   
    28   15   16 ar  
    29   15   20 1   
    30   16   17 ar  
    31   16   21 1   
    32   17   18 ar  
    33   17   22 1   
    34   18   35 1   
    35   19   36 1   
    36   19   37 1   
    37   19   38 1   
    38   20   23 1   
    39   21   24 1   
    40   22   25 1   
    41   23   39 1   
    42   23   40 1   
    43   23   41 1   
    44   24   42 1   
    45   24   43 1   
    46   24   44 1   
    47   25   45 1   
    48   25   46 1   
    49   25   47 1   
    50   26   48 1   
    51   26   49 1   
    52   27   50 1   
    53   27   51 1   
@<TRIPOS>SUBSTRUCTURE
     1 TMQ         1 TEMP              0 ****  ****    0 ROOT
