@<TRIPOS>MOLECULE
TMR
   25    25     1     0     0
SMALL
bcc


@<TRIPOS>ATOM
      1 C1          0.3020   -0.3720   -2.1020 c3        1 TMR      0.346900
      2 C2          1.2760    0.5970   -1.4270 c3        1 TMR     -0.174400
      3 C3          1.2040    0.4320    0.0880 c3        1 TMR      0.149100
      4 C4         -0.2450    0.6010    0.5390 c3        1 TMR     -0.028600
      5 C5         -1.1480   -0.3880   -0.2050 c3        1 TMR      0.168100
      6 C6         -2.6150   -0.1710    0.1150 c3        1 TMR     -0.096100
      7 O1          0.1660   -0.1260   -3.4750 oh        1 TMR     -0.591800
      8 O3          1.6590   -0.8580    0.4840 oh        1 TMR     -0.598800
      9 O5         -1.0230   -0.1940   -1.6210 os        1 TMR     -0.458600
     10 S4         -0.5840    0.4490    2.2810 ss        1 TMR     -0.274200
     11 H1          0.6390   -1.4400   -1.9880 h2        1 TMR      0.078700
     12 H21         2.3110    0.3900   -1.7970 hc        1 TMR      0.065700
     13 H22         1.0130    1.6500   -1.7020 hc        1 TMR      0.065700
     14 H3          1.8510    1.2100    0.5880 h1        1 TMR      0.044700
     15 H4         -0.5520    1.6430    0.2520 h1        1 TMR      0.084700
     16 H5         -0.8290   -1.4390    0.0460 h1        1 TMR      0.070700
     17 H61        -3.2330   -0.9350   -0.4140 hc        1 TMR      0.054367
     18 H62        -2.7700   -0.2670    1.2180 hc        1 TMR      0.054367
     19 H63        -2.9420    0.8430   -0.2180 hc        1 TMR      0.054367
     20 H71         0.7400    0.3120    4.1690 h1        1 TMR      0.067033
     21 H72         1.6590   -0.2950    2.7240 h1        1 TMR      0.067033
     22 H73         1.4650    1.4850    2.9900 h1        1 TMR      0.067033
     23 HO1        -0.4400    0.6200   -3.5870 ho        1 TMR      0.422000
     24 HO3         2.5140   -0.9950    0.0580 ho        1 TMR      0.407000
     25 C7          0.9660    0.4960    3.0930 c3        1 TMR     -0.046000
@<TRIPOS>BOND
     1    1    2 1   
     2    1    7 1   
     3    1    9 1   
     4    1   11 1   
     5    2    3 1   
     6    2   12 1   
     7    2   13 1   
     8    3    4 1   
     9    3    8 1   
    10    3   14 1   
    11    4    5 1   
    12    4   10 1   
    13    4   15 1   
    14    5    6 1   
    15    5    9 1   
    16    5   16 1   
    17    6   17 1   
    18    6   18 1   
    19    6   19 1   
    20    7   23 1   
    21    8   24 1   
    22   10   25 1   
    23   20   25 1   
    24   21   25 1   
    25   22   25 1   
@<TRIPOS>SUBSTRUCTURE
     1 TMR         1 TEMP              0 ****  ****    0 ROOT
