@<TRIPOS>MOLECULE
TMS
   53    54     1     0     0
SMALL
bcc


@<TRIPOS>ATOM
      1 C1          0.1390    0.3800    0.1950 ce        1 TMS     -0.190200
      2 O20         5.5560    0.5260   -2.6460 os        1 TMS     -0.303900
      3 C20         6.3110    0.5950   -1.4400 c3        1 TMS      0.109700
      4 O21         4.2430   -0.1150   -4.8730 os        1 TMS     -0.306900
      5 C21         4.0290    0.8930   -5.8660 c3        1 TMS      0.114700
      6 O22         1.5070   -0.3250   -4.8960 os        1 TMS     -0.303900
      7 C22         0.1330   -0.7010   -4.8700 c3        1 TMS      0.109700
      8 C2          1.4570    0.1580    0.0220 cf        1 TMS     -0.000200
      9 C3         -0.5330    0.4030    1.4740 ca        1 TMS      0.069200
     10 C4          2.1300    0.1310   -1.2630 ca        1 TMS     -0.050800
     11 C5          0.0460   -0.1300    2.6450 ca        1 TMS     -0.142000
     12 C6         -1.8210    0.9650    1.5620 ca        1 TMS     -0.142000
     13 C7          3.5190    0.3260   -1.2900 ca        1 TMS     -0.196000
     14 C8          1.4280   -0.0920   -2.4540 ca        1 TMS     -0.196000
     15 C9         -0.6280   -0.0970    3.8550 ca        1 TMS     -0.050500
     16 C10        -2.5020    1.0040    2.7690 ca        1 TMS     -0.050500
     17 C11         4.2040    0.3070   -2.5090 ca        1 TMS      0.131100
     18 C12         2.1140   -0.1300   -3.6730 ca        1 TMS      0.131100
     19 C13        -1.9120    0.4710    3.9350 ca        1 TMS     -0.237600
     20 C14         3.5130    0.0580   -3.7180 ca        1 TMS      0.083100
     21 C15        -2.7010    0.5550    5.1540 c         1 TMS      0.576700
     22 N1         -2.0780   -0.0570    6.4040 ny        1 TMS     -0.677800
     23 C16        -2.9510    0.0380    7.6100 c3        1 TMS      0.106800
     24 O1         -3.8090    1.0520    5.3140 o         1 TMS     -0.438100
     25 C17        -2.3000   -0.5780    8.8370 c3        1 TMS     -0.121400
     26 C18        -3.2450   -0.4460   10.0270 c3        1 TMS      0.142400
     27 O2         -2.5640   -1.0370   11.1180 oh        1 TMS     -0.592800
     28 HE2        -0.5110    0.5850   -0.6760 ha        1 TMS      0.150000
     29 HGA         6.1840   -0.3360   -0.8360 h1        1 TMS      0.049200
     30 HGB         7.3660    0.6890   -1.8060 h1        1 TMS      0.049200
     31 HGC         6.0190    1.4950   -0.8460 h1        1 TMS      0.049200
     32 H1A         4.6970    0.5710   -6.7040 h1        1 TMS      0.049367
     33 H1B         4.3340    1.8920   -5.4750 h1        1 TMS      0.049367
     34 H1C         2.9590    0.9030   -6.1880 h1        1 TMS      0.049367
     35 HFA        -0.0990   -0.8910   -5.9500 h1        1 TMS      0.049200
     36 HFB        -0.4930    0.1350   -4.4740 h1        1 TMS      0.049200
     37 HFC        -0.0150   -1.6280   -4.2660 h1        1 TMS      0.049200
     38 HE3         2.1210    0.0010    0.8940 ha        1 TMS      0.126000
     39 HC4         1.0480   -0.5890    2.5990 ha        1 TMS      0.164500
     40 HC5        -2.2940    1.3850    0.6580 ha        1 TMS      0.164500
     41 HB6         4.0630    0.5030   -0.3520 ha        1 TMS      0.141000
     42 HB7         0.3420   -0.2570   -2.4280 ha        1 TMS      0.141000
     43 HD8        -0.1260   -0.5280    4.7340 ha        1 TMS      0.144000
     44 HD9        -3.5090    1.4520    2.8250 ha        1 TMS      0.144000
     45 H1         -1.8700   -1.0430    6.2120 hn        1 TMS      0.455300
     46 HJB        -3.1780    1.1300    7.7860 hx        1 TMS      0.114700
     47 HJA        -3.9240   -0.4830    7.3720 hx        1 TMS      0.114700
     48 HKA        -2.0750   -1.6660    8.6770 hc        1 TMS      0.079700
     49 HKB        -1.3340   -0.0640    9.0870 hc        1 TMS      0.079700
     50 HLB        -4.2100   -0.9850    9.8280 h1        1 TMS      0.038700
     51 HLA        -3.4630    0.6350   10.2410 h1        1 TMS      0.038700
     52 HO2        -3.1460   -0.9660   11.8860 ho        1 TMS      0.428000
     53 H12        -1.1900    0.4230    6.5900 hn        1 TMS      0.455300
@<TRIPOS>BOND
     1    1    8 2   
     2    1    9 1   
     3    1   28 1   
     4    2    3 1   
     5    2   17 1   
     6    3   29 1   
     7    3   30 1   
     8    3   31 1   
     9    4    5 1   
    10    4   20 1   
    11    5   32 1   
    12    5   33 1   
    13    5   34 1   
    14    6    7 1   
    15    6   18 1   
    16    7   35 1   
    17    7   36 1   
    18    7   37 1   
    19    8   10 1   
    20    8   38 1   
    21    9   11 ar  
    22    9   12 ar  
    23   10   13 ar  
    24   10   14 ar  
    25   11   15 ar  
    26   11   39 1   
    27   12   16 ar  
    28   12   40 1   
    29   13   17 ar  
    30   13   41 1   
    31   14   18 ar  
    32   14   42 1   
    33   15   19 ar  
    34   15   43 1   
    35   16   19 ar  
    36   16   44 1   
    37   17   20 ar  
    38   18   20 ar  
    39   19   21 1   
    40   21   22 1   
    41   21   24 2   
    42   22   23 1   
    43   22   45 1   
    44   22   53 1   
    45   23   25 1   
    46   23   46 1   
    47   23   47 1   
    48   25   26 1   
    49   25   48 1   
    50   25   49 1   
    51   26   27 1   
    52   26   50 1   
    53   26   51 1   
    54   27   52 1   
@<TRIPOS>SUBSTRUCTURE
     1 TMS         1 TEMP              0 ****  ****    0 ROOT
