@<TRIPOS>MOLECULE
TMS
   53    54     1     0     0
SMALL
bcc


@<TRIPOS>ATOM
      1 C1          0.1460    0.4000    0.1990 ce        1 TMS     -0.190200
      2 O20         5.5600    0.4880   -2.6510 os        1 TMS     -0.303900
      3 C20         6.3180    0.5490   -1.4460 c3        1 TMS      0.109700
      4 O21         4.2370   -0.1370   -4.8760 os        1 TMS     -0.306900
      5 C21         4.0310    0.8740   -5.8680 c3        1 TMS      0.114700
      6 O22         1.4980   -0.3180   -4.8940 os        1 TMS     -0.303900
      7 C22         0.1210   -0.6790   -4.8660 c3        1 TMS      0.109700
      8 C2          1.4620    0.1630    0.0250 cf        1 TMS     -0.000200
      9 C3         -0.5220    0.4290    1.4800 ca        1 TMS      0.069200
     10 C4          2.1330    0.1300   -1.2620 ca        1 TMS     -0.050800
     11 C5          0.0520   -0.1150    2.6490 ca        1 TMS     -0.142000
     12 C6         -1.8030    1.0080    1.5710 ca        1 TMS     -0.142000
     13 C7          3.5240    0.3090   -1.2920 ca        1 TMS     -0.196000
     14 C8          1.4260   -0.0850   -2.4510 ca        1 TMS     -0.196000
     15 C9         -0.6210   -0.0760    3.8600 ca        1 TMS     -0.050500
     16 C10        -2.4810    1.0520    2.7800 ca        1 TMS     -0.050500
     17 C11         4.2060    0.2840   -2.5120 ca        1 TMS      0.131100
     18 C12         2.1100   -0.1300   -3.6720 ca        1 TMS      0.131100
     19 C13        -1.8970    0.5080    3.9430 ca        1 TMS     -0.237600
     20 C14         3.5100    0.0430   -3.7200 ca        1 TMS      0.083100
     21 C15        -2.6830    0.6000    5.1630 c         1 TMS      0.576700
     22 N1         -2.0750   -0.0420    6.4060 n4        1 TMS     -0.677800
     23 C16        -2.9530    0.0450    7.6090 c3        1 TMS      0.106800
     24 O1         -3.7770    1.1240    5.3300 o         1 TMS     -0.438100
     25 C17        -2.3170   -0.6020    8.8290 c3        1 TMS     -0.121400
     26 C18        -3.2670   -0.4750   10.0160 c3        1 TMS      0.142400
     27 O2         -2.6010   -1.0970   11.0990 oh        1 TMS     -0.592800
     28 HE2        -0.5020    0.6140   -0.6700 ha        1 TMS      0.150000
     29 HGA         6.1820   -0.3810   -0.8420 h1        1 TMS      0.049200
     30 HGB         7.3730    0.6320   -1.8140 h1        1 TMS      0.049200
     31 HGC         6.0360    1.4510   -0.8510 h1        1 TMS      0.049200
     32 H1A         4.6940    0.5450   -6.7070 h1        1 TMS      0.049367
     33 H1B         4.3470    1.8700   -5.4760 h1        1 TMS      0.049367
     34 H1C         2.9610    0.8950   -6.1880 h1        1 TMS      0.049367
     35 HFA        -0.1160   -0.8650   -5.9450 h1        1 TMS      0.049200
     36 HFB        -0.4960    0.1630   -4.4680 h1        1 TMS      0.049200
     37 HFC        -0.0370   -1.6050   -4.2620 h1        1 TMS      0.049200
     38 HE3         2.1260   -0.0030    0.8940 ha        1 TMS      0.126000
     39 HC4         1.0470   -0.5860    2.5990 ha        1 TMS      0.164500
     40 HC5        -2.2720    1.4370    0.6690 ha        1 TMS      0.164500
     41 HB6         4.0710    0.4800   -0.3540 ha        1 TMS      0.141000
     42 HB7         0.3380   -0.2390   -2.4240 ha        1 TMS      0.141000
     43 HD8        -0.1220   -0.5140    4.7380 ha        1 TMS      0.144000
     44 HD9        -3.4820    1.5150    2.8390 ha        1 TMS      0.144000
     45 H1         -1.8810   -1.0280    6.1990 hn        1 TMS      0.455300
     46 HJB        -3.1630    1.1370    7.8030 hx        1 TMS      0.115200
     47 HJA        -3.9320   -0.4560    7.3580 hx        1 TMS      0.115200
     48 HKA        -2.1090   -1.6900    8.6510 hc        1 TMS      0.079700
     49 HKB        -1.3450   -0.1070    9.0920 hc        1 TMS      0.079700
     50 HLB        -4.2390   -0.9950    9.8030 h1        1 TMS      0.038700
     51 HLA        -3.4680    0.6050   10.2480 h1        1 TMS      0.038700
     52 HO2        -3.1850   -1.0290   11.8660 ho        1 TMS      0.428000
     53 H12        -1.1810    0.4210    6.6040 hn        1 TMS      0.455300
@<TRIPOS>BOND
     1    1    8 2   
     2    1    9 1   
     3    1   28 1   
     4    2    3 1   
     5    2   17 1   
     6    3   29 1   
     7    3   30 1   
     8    3   31 1   
     9    4    5 1   
    10    4   20 1   
    11    5   32 1   
    12    5   33 1   
    13    5   34 1   
    14    6    7 1   
    15    6   18 1   
    16    7   35 1   
    17    7   36 1   
    18    7   37 1   
    19    8   10 1   
    20    8   38 1   
    21    9   11 ar  
    22    9   12 ar  
    23   10   13 ar  
    24   10   14 ar  
    25   11   15 ar  
    26   11   39 1   
    27   12   16 ar  
    28   12   40 1   
    29   13   17 ar  
    30   13   41 1   
    31   14   18 ar  
    32   14   42 1   
    33   15   19 ar  
    34   15   43 1   
    35   16   19 ar  
    36   16   44 1   
    37   17   20 ar  
    38   18   20 ar  
    39   19   21 1   
    40   21   22 1   
    41   21   24 2   
    42   22   23 1   
    43   22   45 1   
    44   22   53 1   
    45   23   25 1   
    46   23   46 1   
    47   23   47 1   
    48   25   26 1   
    49   25   48 1   
    50   25   49 1   
    51   26   27 1   
    52   26   50 1   
    53   26   51 1   
    54   27   52 1   
@<TRIPOS>SUBSTRUCTURE
     1 TMS         1 TEMP              0 ****  ****    0 ROOT
