@<TRIPOS>MOLECULE
TMS
   53    54     1     0     0
SMALL
bcc


@<TRIPOS>ATOM
      1 C1          0.1340    0.3770    0.1920 ce        1 TMS     -0.190200
      2 O20         5.5590    0.5090   -2.6370 os        1 TMS     -0.303900
      3 C20         6.3120    0.5590   -1.4290 c3        1 TMS      0.109700
      4 O21         4.2440   -0.0970   -4.8730 os        1 TMS     -0.306900
      5 C21         4.0400    0.9230   -5.8560 c3        1 TMS      0.114700
      6 O22         1.5060   -0.2840   -4.9030 os        1 TMS     -0.303900
      7 C22         0.1300   -0.6500   -4.8840 c3        1 TMS      0.109700
      8 C2          1.4520    0.1470    0.0200 cf        1 TMS     -0.000200
      9 C3         -0.5390    0.3930    1.4710 ca        1 TMS      0.069200
     10 C4          2.1270    0.1290   -1.2640 ca        1 TMS     -0.050800
     11 C5          0.0350   -0.1540    2.6380 ca        1 TMS     -0.142000
     12 C6         -1.8250    0.9620    1.5610 ca        1 TMS     -0.142000
     13 C7          3.5180    0.3120   -1.2870 ca        1 TMS     -0.196000
     14 C8          1.4250   -0.0760   -2.4590 ca        1 TMS     -0.196000
     15 C9         -0.6410   -0.1290    3.8470 ca        1 TMS     -0.050500
     16 C10        -2.5060    0.9930    2.7680 ca        1 TMS     -0.050500
     17 C11         4.2050    0.3000   -2.5050 ca        1 TMS      0.131100
     18 C12         2.1130   -0.1070   -3.6770 ca        1 TMS      0.131100
     19 C13        -1.9220    0.4470    3.9300 ca        1 TMS     -0.237600
     20 C14         3.5140    0.0700   -3.7180 ca        1 TMS      0.083100
     21 C15        -2.7130    0.5240    5.1480 c         1 TMS      0.576700
     22 N1         -2.0840   -0.0790    6.4000 n4        1 TMS     -0.677800
     23 C16        -2.9490    0.0300    7.6100 c3        1 TMS      0.106800
     24 O1         -3.8250    1.0120    5.3070 o         1 TMS     -0.438100
     25 C17        -2.2920   -0.5770    8.8390 c3        1 TMS     -0.121400
     26 C18        -3.2290   -0.4310   10.0330 c3        1 TMS      0.142400
     27 O2         -2.5420   -1.0130   11.1260 oh        1 TMS     -0.592800
     28 HE2        -0.5120    0.5960   -0.6770 ha        1 TMS      0.150000
     29 HGA         7.3680    0.6480   -1.7920 h1        1 TMS      0.049200
     30 HGB         6.1760   -0.3770   -0.8350 h1        1 TMS      0.049200
     31 HGC         6.0260    1.4550   -0.8250 h1        1 TMS      0.049200
     32 H1A         4.3530    1.9160   -5.4530 h1        1 TMS      0.049367
     33 H1B         4.7070    0.6050   -6.6960 h1        1 TMS      0.049367
     34 H1C         2.9710    0.9450   -6.1790 h1        1 TMS      0.049367
     35 HFA        -0.0270   -1.5820   -4.2890 h1        1 TMS      0.049200
     36 HFB        -0.4910    0.1870   -4.4800 h1        1 TMS      0.049200
     37 HFC        -0.1010   -0.8260   -5.9660 h1        1 TMS      0.049200
     38 HE3         2.1130   -0.0230    0.8910 ha        1 TMS      0.126000
     39 HC4         1.0330   -0.6200    2.5880 ha        1 TMS      0.164000
     40 HC5        -2.2930    1.3930    0.6600 ha        1 TMS      0.164000
     41 HB6         4.0610    0.4750   -0.3460 ha        1 TMS      0.141000
     42 HB7         0.3380   -0.2330   -2.4370 ha        1 TMS      0.141000
     43 HD8        -0.1440   -0.5720    4.7230 ha        1 TMS      0.144000
     44 HD9        -3.5120    1.4470    2.8270 ha        1 TMS      0.144000
     45 H1         -1.8810   -1.0670    6.2150 hn        1 TMS      0.455300
     46 HJB        -3.9250   -0.4900    7.3830 hx        1 TMS      0.114700
     47 HJA        -3.1710    1.1240    7.7780 hx        1 TMS      0.114700
     48 HKA        -2.0720   -1.6670    8.6870 hc        1 TMS      0.079700
     49 HKB        -1.3230   -0.0650    9.0780 hc        1 TMS      0.079700
     50 HLB        -3.4430    0.6530   10.2380 h1        1 TMS      0.038700
     51 HLA        -4.1960   -0.9700    9.8460 h1        1 TMS      0.038700
     52 HO2        -3.1200   -0.9340   11.8960 ho        1 TMS      0.428000
     53 H12        -1.1930    0.3990    6.5760 hn        1 TMS      0.455300
@<TRIPOS>BOND
     1    1    8 2   
     2    1    9 1   
     3    1   28 1   
     4    2    3 1   
     5    2   17 1   
     6    3   29 1   
     7    3   30 1   
     8    3   31 1   
     9    4    5 1   
    10    4   20 1   
    11    5   32 1   
    12    5   33 1   
    13    5   34 1   
    14    6    7 1   
    15    6   18 1   
    16    7   35 1   
    17    7   36 1   
    18    7   37 1   
    19    8   10 1   
    20    8   38 1   
    21    9   11 ar  
    22    9   12 ar  
    23   10   13 ar  
    24   10   14 ar  
    25   11   15 ar  
    26   11   39 1   
    27   12   16 ar  
    28   12   40 1   
    29   13   17 ar  
    30   13   41 1   
    31   14   18 ar  
    32   14   42 1   
    33   15   19 ar  
    34   15   43 1   
    35   16   19 ar  
    36   16   44 1   
    37   17   20 ar  
    38   18   20 ar  
    39   19   21 1   
    40   21   22 1   
    41   21   24 2   
    42   22   23 1   
    43   22   45 1   
    44   22   53 1   
    45   23   25 1   
    46   23   46 1   
    47   23   47 1   
    48   25   26 1   
    49   25   48 1   
    50   25   49 1   
    51   26   27 1   
    52   26   50 1   
    53   26   51 1   
    54   27   52 1   
@<TRIPOS>SUBSTRUCTURE
     1 TMS         1 TEMP              0 ****  ****    0 ROOT
