@<TRIPOS>MOLECULE
TMS
   52    53     1     0     0
SMALL
bcc


@<TRIPOS>ATOM
      1 C1         -0.7560   -0.3440    0.6440 ce        1 TMS     -0.109200
      2 O20         2.7730   -0.0670    5.6150 os        1 TMS     -0.311900
      3 C20         3.9820    0.0420    4.8710 c3        1 TMS      0.111700
      4 O21         0.5160    0.2310    7.0300 os        1 TMS     -0.309900
      5 C21         0.1030   -0.9270    7.7590 c3        1 TMS      0.115700
      6 O22        -1.9300    0.1480    5.8120 os        1 TMS     -0.311900
      7 C22        -3.1820    0.3710    5.1730 c3        1 TMS      0.111700
      8 C2          0.2770    0.0850    1.3880 cf        1 TMS     -0.096200
      9 C3         -0.7870   -0.3360   -0.8090 ca        1 TMS     -0.033800
     10 C4          0.3010    0.0770    2.8430 ca        1 TMS     -0.002800
     11 C5          0.3820   -0.2780   -1.5810 ca        1 TMS     -0.128000
     12 C6         -2.0290   -0.4060   -1.4640 ca        1 TMS     -0.128000
     13 C7          1.5430    0.0280    3.4920 ca        1 TMS     -0.214500
     14 C8         -0.8800    0.1250    3.5930 ca        1 TMS     -0.214500
     15 C9          0.3140   -0.2690   -2.9730 ca        1 TMS     -0.091500
     16 C10        -2.0990   -0.4000   -2.8530 ca        1 TMS     -0.091500
     17 C11         1.6030    0.0180    4.8890 ca        1 TMS      0.136100
     18 C12        -0.8200    0.1290    4.9910 ca        1 TMS      0.136100
     19 C13        -0.9260   -0.3210   -3.6140 ca        1 TMS     -0.137600
     20 C14         0.4220    0.0890    5.6590 ca        1 TMS      0.048100
     21 C15        -1.0500   -0.3310   -5.1010 c         1 TMS      0.669700
     22 N1         -0.2190    0.5160   -5.8090 n         1 TMS     -0.565900
     23 C16        -0.1650    0.5240   -7.2440 c3        1 TMS      0.086000
     24 O1         -1.9050   -1.0340   -5.6780 o         1 TMS     -0.603100
     25 C17         1.1690    0.0500   -7.8230 c3        1 TMS     -0.111400
     26 C18         1.1070    0.1040   -9.3400 c3        1 TMS      0.134400
     27 O2          2.3970   -0.2480   -9.8160 oh        1 TMS     -0.601800
     28 HE2        -1.6710   -0.7350    1.1240 ha        1 TMS      0.131000
     29 HGA         4.7720    0.0330    5.6640 h1        1 TMS      0.045700
     30 HGB         4.1010   -0.8330    4.1870 h1        1 TMS      0.045700
     31 HGC         4.0120    0.9990    4.2950 h1        1 TMS      0.045700
     32 H1A         0.2330   -0.6220    8.8270 h1        1 TMS      0.042033
     33 H1B        -0.9650   -1.1650    7.5370 h1        1 TMS      0.042033
     34 H1C         0.7600   -1.7950    7.5110 h1        1 TMS      0.042033
     35 HFA        -3.9000    0.4390    6.0290 h1        1 TMS      0.045700
     36 HFB        -3.1690    1.3240    4.5920 h1        1 TMS      0.045700
     37 HFC        -3.4420   -0.4910    4.5100 h1        1 TMS      0.045700
     38 HE3         1.1950    0.4730    0.9130 ha        1 TMS      0.129000
     39 HC4         1.3650   -0.2500   -1.0890 ha        1 TMS      0.137500
     40 HC5        -2.9550   -0.4670   -0.8720 ha        1 TMS      0.137500
     41 HB6         2.4640   -0.0120    2.8930 ha        1 TMS      0.141500
     42 HB7        -1.8490    0.1740    3.0790 ha        1 TMS      0.141500
     43 HD8         1.2480   -0.2410   -3.5550 ha        1 TMS      0.145500
     44 HD9        -3.0710   -0.4690   -3.3660 ha        1 TMS      0.145500
     45 H1          0.4990    1.0000   -5.3260 hn        1 TMS      0.309500
     46 HJB        -0.3540    1.5810   -7.5930 h1        1 TMS      0.062200
     47 HJA        -0.9950   -0.1280   -7.6440 h1        1 TMS      0.062200
     48 HKA         1.3910   -0.9990   -7.5000 hc        1 TMS      0.059200
     49 HKB         2.0110    0.6970   -7.4650 hc        1 TMS      0.059200
     50 HLB         0.8430    1.1390   -9.6910 h1        1 TMS      0.024700
     51 HLA         0.3400   -0.6180   -9.7290 h1        1 TMS      0.024700
     52 HO2         2.3370   -0.2720  -10.7780 ho        1 TMS      0.402000
@<TRIPOS>BOND
     1    1    8 2   
     2    1    9 1   
     3    1   28 1   
     4    2    3 1   
     5    2   17 1   
     6    3   29 1   
     7    3   30 1   
     8    3   31 1   
     9    4    5 1   
    10    4   20 1   
    11    5   32 1   
    12    5   33 1   
    13    5   34 1   
    14    6    7 1   
    15    6   18 1   
    16    7   35 1   
    17    7   36 1   
    18    7   37 1   
    19    8   10 1   
    20    8   38 1   
    21    9   11 ar  
    22    9   12 ar  
    23   10   13 ar  
    24   10   14 ar  
    25   11   15 ar  
    26   11   39 1   
    27   12   16 ar  
    28   12   40 1   
    29   13   17 ar  
    30   13   41 1   
    31   14   18 ar  
    32   14   42 1   
    33   15   19 ar  
    34   15   43 1   
    35   16   19 ar  
    36   16   44 1   
    37   17   20 ar  
    38   18   20 ar  
    39   19   21 1   
    40   21   22 1   
    41   21   24 2   
    42   22   23 1   
    43   22   45 1   
    44   23   25 1   
    45   23   46 1   
    46   23   47 1   
    47   25   26 1   
    48   25   48 1   
    49   25   49 1   
    50   26   27 1   
    51   26   50 1   
    52   26   51 1   
    53   27   52 1   
@<TRIPOS>SUBSTRUCTURE
     1 TMS         1 TEMP              0 ****  ****    0 ROOT
