@<TRIPOS>MOLECULE
TMS
   52    48     1     0     0
SMALL
bcc


@<TRIPOS>ATOM
      1 C1          0.4150    1.9420   -2.5830 c1        1 TMS     -0.115000
      2 O20         4.5880   -1.5430   -1.6730 os        1 TMS     -0.204000
      3 C20         5.5890   -1.1630   -2.6220 c3        1 TMS     -0.080000
      4 O21         5.3090   -0.8880    0.7820 os        1 TMS     -0.216000
      5 C21         4.7260   -2.0360    1.3540 c3        1 TMS     -0.077000
      6 O22         4.5360    1.9020    1.5780 os        1 TMS     -0.215000
      7 C22         4.5530    1.6730    2.9640 c3        1 TMS     -0.065000
      8 C2          1.6930    1.6680   -2.3870 c1        1 TMS     -0.115000
      9 C3         -0.5650    1.7890   -1.4590 c1        1 TMS     -0.026000
     10 C4          2.1770    1.1910   -1.0020 c1        1 TMS     -0.004000
     11 C5         -1.0560    2.5920   -0.4360 c1        1 TMS     -0.123000
     12 C6         -1.4320    0.9640   -2.1720 c2        1 TMS     -0.133000
     13 C7          2.8520    0.1550   -1.6530 c2        1 TMS     -0.212000
     14 C8          2.5990    1.6210    0.2420 c1        1 TMS     -0.172000
     15 C9         -2.4120    2.5730   -0.1250 c1        1 TMS     -0.084000
     16 C10        -2.7790    0.9460   -1.8620 c1        1 TMS     -0.106000
     17 C11         3.9530   -0.4480   -1.0480 c2        1 TMS      0.088000
     18 C12         3.7190    1.0100    0.8600 c1        1 TMS      0.100000
     19 C13        -3.2700    1.7580   -0.8300 c1        1 TMS     -0.124000
     20 C14         4.3860   -0.0130    0.2190 c2        1 TMS     -0.036000
     21 C15        -3.7540    0.8730    0.2940 c2        1 TMS      0.341000
     22 N1         -4.7120   -0.1770    0.0220 n         1 TMS     -0.370000
     23 C16        -4.7810   -1.3690    0.9000 c3        1 TMS     -0.033000
     24 O1         -3.3890    1.0760    1.4170 o         1 TMS     -0.363000
     25 C17        -6.2210   -1.5380    1.4220 c3        1 TMS     -0.191000
     26 C18        -6.4410   -2.9960    1.8400 c3        1 TMS     -0.016000
     27 O2         -7.4940   -3.0650    2.7720 oh        1 TMS     -0.328000
     28 HE2         0.1040    2.2480   -3.4710 ha        1 TMS      0.131000
     29 HGA         6.2240   -1.9140   -2.7510 h1        1 TMS      0.088333
     30 HGB         5.1540   -0.9410   -3.4940 h1        1 TMS      0.088333
     31 HGC         6.0790   -0.3710   -2.2850 h1        1 TMS      0.088333
     32 H1A         4.9900   -2.8300    0.8410 h1        1 TMS      0.083667
     33 H1B         3.7560   -1.9480    1.3370 h1        1 TMS      0.083667
     34 H1C         5.0280   -2.1300    2.2780 h1        1 TMS      0.083667
     35 HFA         5.4590    1.4750    3.2480 h1        1 TMS      0.087333
     36 HFB         3.9760    0.9210    3.1760 h1        1 TMS      0.087333
     37 HFC         4.2340    2.4660    3.4260 h1        1 TMS      0.087333
     38 HE3         2.3350    1.7680   -3.1240 ha        1 TMS      0.131000
     39 HC4        -0.4450    3.1750    0.0680 ha        1 TMS      0.151000
     40 HC5        -1.0820    0.3890   -2.9040 ha        1 TMS      0.137000
     41 HB6         2.5360   -0.1630   -2.5300 ha        1 TMS      0.151000
     42 HB7         2.1820    2.4060    0.6540 ha        1 TMS      0.153000
     43 HD8        -2.7620    3.1460    0.6050 ha        1 TMS      0.156000
     44 HD9        -3.3870    0.3690   -2.3600 ha        1 TMS      0.138000
     45 H1         -5.2970   -0.1010   -0.7200 hn        1 TMS      0.221000
     46 HJB        -4.1510   -1.2530    1.6800 h1        1 TMS      0.102000
     47 HJA        -4.5220   -2.1750    0.3830 h1        1 TMS      0.102000
     48 HKA        -6.3580   -0.9570    2.1870 hc        1 TMS      0.099000
     49 HKB        -6.8590   -1.3000    0.7100 hc        1 TMS      0.099000
     50 HLB        -5.6210   -3.3460    2.2470 h1        1 TMS      0.063000
     51 HLA        -6.6660   -3.5270    1.0580 h1        1 TMS      0.063000
     52 HO2        -7.6940   -3.9060    2.9270 ho        1 TMS      0.201000
@<TRIPOS>BOND
     1    1    8 1   
     2    1   28 1   
     3    2    3 1   
     4    2   17 1   
     5    3   29 1   
     6    3   30 1   
     7    3   31 1   
     8    4    5 1   
     9    4   20 1   
    10    5   32 1   
    11    5   33 1   
    12    5   34 1   
    13    6    7 1   
    14    6   18 1   
    15    7   35 1   
    16    7   36 1   
    17    7   37 1   
    18    8   38 1   
    19    9   11 1   
    20    9   12 1   
    21   10   13 1   
    22   10   14 1   
    23   11   39 1   
    24   12   16 1   
    25   12   40 1   
    26   13   17 1   
    27   13   41 1   
    28   14   42 1   
    29   15   19 1   
    30   15   43 1   
    31   16   44 1   
    32   17   20 1   
    33   18   20 1   
    34   19   21 1   
    35   21   22 1   
    36   21   24 1   
    37   22   23 1   
    38   22   45 1   
    39   23   25 1   
    40   23   46 1   
    41   23   47 1   
    42   25   26 1   
    43   25   48 1   
    44   25   49 1   
    45   26   27 1   
    46   26   50 1   
    47   26   51 1   
    48   27   52 1   
@<TRIPOS>SUBSTRUCTURE
     1 TMS         1 TEMP              0 ****  ****    0 ROOT
