@<TRIPOS>MOLECULE
TMT
   18    18     1     0     0
SMALL
bcc


@<TRIPOS>ATOM
      1 S1          1.0380    1.3370    0.0930 ss        1 TMT      0.353200
      2 C2          0.9910   -0.3270    0.0240 cc        1 TMT     -0.055700
      3 N3         -0.2910   -0.8170   -0.0020 na        1 TMT      0.009900
      4 C4         -1.2350    0.2220    0.0340 cc        1 TMT     -0.004600
      5 C5         -0.6100    1.4640    0.0880 cd        1 TMT     -0.237100
      6 C6          2.2030   -1.1720   -0.0040 c3        1 TMT     -0.070800
      7 C7         -0.6450   -2.2120   -0.0800 c3        1 TMT     -0.015400
      8 C8         -2.6930   -0.0190    0.0190 c3        1 TMT     -0.063800
      9 H5         -1.1610    2.4110    0.1230 h4        1 TMT      0.233000
     10 H61         3.1210   -0.5300   -0.0150 hc        1 TMT      0.096700
     11 H62         2.2470   -1.8360    0.8990 hc        1 TMT      0.096700
     12 H63         2.2160   -1.8230   -0.9180 hc        1 TMT      0.096700
     13 H71        -0.8640   -2.4820   -1.1500 h1        1 TMT      0.097033
     14 H72         0.2050   -2.8420    0.3000 h1        1 TMT      0.097033
     15 H73        -1.5600   -2.3980    0.5470 h1        1 TMT      0.097033
     16 H81        -2.9850   -0.6660   -0.8490 hc        1 TMT      0.090700
     17 H82        -3.0180   -0.5230    0.9660 hc        1 TMT      0.090700
     18 H83        -3.2330    0.9580   -0.0670 hc        1 TMT      0.090700
@<TRIPOS>BOND
     1    1    2 1   
     2    1    5 1   
     3    2    3 2   
     4    2    6 1   
     5    3    4 1   
     6    3    7 1   
     7    4    5 2   
     8    4    8 1   
     9    5    9 1   
    10    6   10 1   
    11    6   11 1   
    12    6   12 1   
    13    7   13 1   
    14    7   14 1   
    15    7   15 1   
    16    8   16 1   
    17    8   17 1   
    18    8   18 1   
@<TRIPOS>SUBSTRUCTURE
     1 TMT         1 TEMP              0 ****  ****    0 ROOT
