@<TRIPOS>MOLECULE
TMT
   18    18     1     0     0
SMALL
bcc


@<TRIPOS>ATOM
      1 S1          0.0230    0.0030   -0.0340 ss        1 TMT      0.353200
      2 C2          1.6880    0.0120    0.0410 cc        1 TMT     -0.055700
      3 N3          2.1570    0.0010    1.3320 na        1 TMT      0.009900
      4 C4          1.1010   -0.0110    2.2570 cc        1 TMT     -0.004600
      5 C5         -0.1310   -0.0120    1.6110 cd        1 TMT     -0.237100
      6 C6          2.5540    0.0270   -1.1560 c3        1 TMT     -0.070800
      7 C7          3.5480    0.0240    1.7090 c3        1 TMT     -0.015400
      8 C8          1.3190   -0.0250    3.7190 c3        1 TMT     -0.063800
      9 H5         -1.0870   -0.0210    2.1460 h4        1 TMT      0.233000
     10 H61         3.1860   -0.8990   -1.2030 hc        1 TMT      0.096700
     11 H62         1.9280    0.0740   -2.0840 hc        1 TMT      0.096700
     12 H63         3.2370    0.9170   -1.1450 hc        1 TMT      0.096700
     13 H71         4.1780   -0.3660    0.8640 h1        1 TMT      0.097033
     14 H72         3.6960   -0.6220    2.6180 h1        1 TMT      0.097033
     15 H73         3.8520    1.0810    1.9480 h1        1 TMT      0.097033
     16 H81         0.3360    0.0870    4.2440 hc        1 TMT      0.090700
     17 H82         1.7840   -0.9950    4.0380 hc        1 TMT      0.090700
     18 H83         1.9910    0.8140    4.0340 hc        1 TMT      0.090700
@<TRIPOS>BOND
     1    1    2 1   
     2    1    5 1   
     3    2    3 2   
     4    2    6 1   
     5    3    4 1   
     6    3    7 1   
     7    4    5 2   
     8    4    8 1   
     9    5    9 1   
    10    6   10 1   
    11    6   11 1   
    12    6   12 1   
    13    7   13 1   
    14    7   14 1   
    15    7   15 1   
    16    8   16 1   
    17    8   17 1   
    18    8   18 1   
@<TRIPOS>SUBSTRUCTURE
     1 TMT         1 TEMP              0 ****  ****    0 ROOT
