@<TRIPOS>MOLECULE
TMU
   33    34     1     0     0
SMALL
bcc


@<TRIPOS>ATOM
      1 C1         -0.5240   -0.7080   -0.0400 cc        1 TMU      0.486300
      2 S2         -0.4940    0.9730    0.2930 ss        1 TMU      0.202700
      3 N3          0.6790   -1.3570    0.1110 nd        1 TMU     -0.694000
      4 N4         -1.6750   -1.3670   -0.4570 n         1 TMU     -0.524400
      5 C5          1.1530    0.8720    0.6410 cc        1 TMU     -0.429600
      6 C6          1.6190   -0.4530    0.4940 cd        1 TMU      0.449200
      7 C7         -2.9020   -0.6670   -0.4780 c         1 TMU      0.750100
      8 N8          2.0060    1.9720    1.0410 no        1 TMU      0.370200
      9 N9         -4.0870   -1.3730   -0.7190 n         1 TMU     -0.507900
     10 O10        -2.8820    0.5660   -0.2210 o         1 TMU     -0.630100
     11 O11         3.1700    1.7600    1.2640 o         1 TMU     -0.215000
     12 O12         1.5320    3.0750    1.1390 o         1 TMU     -0.215000
     13 C13        -5.2890   -0.6190   -1.0100 c3        1 TMU      0.127300
     14 C14        -5.4760   -0.2550   -2.4520 ca        1 TMU     -0.183300
     15 C15        -6.3180   -1.0140   -3.2730 ca        1 TMU     -0.078500
     16 C16        -4.8240    0.8650   -2.9750 ca        1 TMU     -0.078500
     17 C17        -6.5130   -0.6640   -4.6020 ca        1 TMU     -0.183500
     18 C18        -5.0040    1.2330   -4.3070 ca        1 TMU     -0.183500
     19 C19        -5.8490    0.4670   -5.1200 ca        1 TMU      0.140100
     20 O20        -6.1050    0.7290   -6.4490 os        1 TMU     -0.324900
     21 C21        -5.4680    1.8770   -7.0000 c3        1 TMU      0.111700
     22 HN4        -1.6390   -2.3570   -0.5680 hn        1 TMU      0.347500
     23 H6          2.6550   -0.7820    0.6670 h4        1 TMU      0.071100
     24 HN9        -4.0080   -2.2390   -1.2080 hn        1 TMU      0.303500
     25 H131       -5.2770    0.3230   -0.3860 h1        1 TMU      0.081200
     26 H132       -6.1490   -1.2640   -0.6650 h1        1 TMU      0.081200
     27 H15        -6.8390   -1.8930   -2.8630 ha        1 TMU      0.143000
     28 H16        -4.1610    1.4600   -2.3240 ha        1 TMU      0.143000
     29 H17        -7.1740   -1.2490   -5.2570 ha        1 TMU      0.148500
     30 H18        -4.4850    2.1170   -4.7020 ha        1 TMU      0.148500
     31 H211       -5.7910    2.8020   -6.4630 h1        1 TMU      0.047700
     32 H212       -5.8280    1.8890   -8.0600 h1        1 TMU      0.047700
     33 H213       -4.3570    1.7680   -6.9610 h1        1 TMU      0.047700
@<TRIPOS>BOND
     1    1    2 1   
     2    1    3 2   
     3    1    4 1   
     4    2    5 1   
     5    3    6 1   
     6    4    7 1   
     7    4   22 1   
     8    5    6 2   
     9    5    8 1   
    10    6   23 1   
    11    7    9 1   
    12    7   10 2   
    13    8   11 1   
    14    8   12 1   
    15    9   13 1   
    16    9   24 1   
    17   13   14 1   
    18   13   25 1   
    19   13   26 1   
    20   14   15 ar  
    21   14   16 ar  
    22   15   17 ar  
    23   15   27 1   
    24   16   18 ar  
    25   16   28 1   
    26   17   19 ar  
    27   17   29 1   
    28   18   19 ar  
    29   18   30 1   
    30   19   20 1   
    31   20   21 1   
    32   21   31 1   
    33   21   32 1   
    34   21   33 1   
@<TRIPOS>SUBSTRUCTURE
     1 TMU         1 TEMP              0 ****  ****    0 ROOT
