@<TRIPOS>MOLECULE
TMU
   34    35     1     0     0
SMALL
bcc


@<TRIPOS>ATOM
      1 C1         -0.0340    0.2090    0.1350 cc        1 TMU      0.332300
      2 S2          1.6400    0.2580    0.3900 ss        1 TMU      0.280700
      3 N3         -0.7960    0.0210    1.2570 nd        1 TMU     -0.635000
      4 N4         -0.5920    0.3560   -1.1640 n         1 TMU     -0.439400
      5 C5          1.4030    0.0490    2.0280 cc        1 TMU     -0.358600
      6 C6          0.0240   -0.0690    2.3350 cd        1 TMU      0.434200
      7 C7         -1.2990   -0.7500   -1.6510 c         1 TMU      0.623100
      8 N8          2.4550   -0.0090    3.0490 no        1 TMU      0.364200
      9 N9         -2.3520   -0.5050   -2.7250 n4        1 TMU     -0.677800
     10 O10        -1.0980   -1.9370   -1.4000 o         1 TMU     -0.436100
     11 O11         2.1310   -0.1660    4.1900 o         1 TMU     -0.167000
     12 O12         3.5950    0.1070    2.6920 o         1 TMU     -0.167000
     13 C13        -3.5930    0.1410   -2.1610 c3        1 TMU      0.192100
     14 C14        -4.6690    0.1710   -3.1800 ca        1 TMU     -0.254300
     15 C15        -5.5050   -0.9480   -3.3440 ca        1 TMU     -0.055500
     16 C16        -4.8900    1.3220   -3.9460 ca        1 TMU     -0.055500
     17 C17        -6.5390   -0.9230   -4.2630 ca        1 TMU     -0.182000
     18 C18        -5.9250    1.3670   -4.8710 ca        1 TMU     -0.182000
     19 C19        -6.7540    0.2440   -5.0340 ca        1 TMU      0.195100
     20 O20        -7.7970    0.1670   -5.9120 os        1 TMU     -0.301900
     21 C21        -8.0850    1.3330   -6.6860 c3        1 TMU      0.104700
     22 HN4        -1.0030    1.2620   -1.3110 hn        1 TMU      0.331500
     23 H6         -0.3890   -0.2210    3.3470 h4        1 TMU      0.098100
     24 HN9        -2.6090   -1.4250   -3.1160 hn        1 TMU      0.466300
     25 H131       -3.9030   -0.4660   -1.2600 hx        1 TMU      0.106200
     26 H132       -3.3170    1.1820   -1.8280 hx        1 TMU      0.106200
     27 H15        -5.3490   -1.8470   -2.7270 ha        1 TMU      0.139500
     28 H16        -4.2520    2.2110   -3.8090 ha        1 TMU      0.139500
     29 H17        -7.2060   -1.7890   -4.4010 ha        1 TMU      0.171000
     30 H18        -6.0940    2.2810   -5.4610 ha        1 TMU      0.171000
     31 H211       -7.2210    1.5840   -7.3470 h1        1 TMU      0.063033
     32 H212       -8.3430    2.1910   -6.0190 h1        1 TMU      0.063033
     33 H213       -8.9730    1.0180   -7.2930 h1        1 TMU      0.063033
     34 H92        -1.9770    0.0680   -3.4870 hn        1 TMU      0.466300
@<TRIPOS>BOND
     1    1    2 1   
     2    1    3 2   
     3    1    4 1   
     4    2    5 1   
     5    3    6 1   
     6    4    7 1   
     7    4   22 1   
     8    5    6 2   
     9    5    8 1   
    10    6   23 1   
    11    7    9 1   
    12    7   10 2   
    13    8   11 1   
    14    8   12 1   
    15    9   13 1   
    16    9   24 1   
    17    9   34 1   
    18   13   14 1   
    19   13   25 1   
    20   13   26 1   
    21   14   15 ar  
    22   14   16 ar  
    23   15   17 ar  
    24   15   27 1   
    25   16   18 ar  
    26   16   28 1   
    27   17   19 ar  
    28   17   29 1   
    29   18   19 ar  
    30   18   30 1   
    31   19   20 1   
    32   20   21 1   
    33   21   31 1   
    34   21   32 1   
    35   21   33 1   
@<TRIPOS>SUBSTRUCTURE
     1 TMU         1 TEMP              0 ****  ****    0 ROOT
