@<TRIPOS>MOLECULE
TMU
   33    34     1     0     0
SMALL
bcc


@<TRIPOS>ATOM
      1 C1         -1.9790   -0.2730    0.6860 cc        1 TMU      0.486300
      2 S2         -2.1660   -0.1480   -1.0140 ss        1 TMU      0.202700
      3 N3         -3.0310    0.2100    1.4280 nd        1 TMU     -0.694000
      4 N4         -0.8370   -0.8010    1.2750 n         1 TMU     -0.524400
      5 C5         -3.6730    0.5750   -0.7920 cc        1 TMU     -0.429600
      6 C6         -3.9820    0.6880    0.5810 cd        1 TMU      0.449200
      7 C7          0.1550   -1.3860    0.4560 c         1 TMU      0.750100
      8 N8         -4.5610    1.0290   -1.8430 no        1 TMU      0.370200
      9 N9          1.2140   -2.0800    1.0550 n         1 TMU     -0.507900
     10 O10         0.0110   -1.3060   -0.7930 o         1 TMU     -0.630100
     11 O11        -5.6160    1.5260   -1.5460 o         1 TMU     -0.215000
     12 O12        -4.2230    0.8990   -2.9920 o         1 TMU     -0.215000
     13 C13         2.3550   -2.4330    0.2350 c3        1 TMU      0.127300
     14 C14         3.4080   -1.3720    0.1240 ca        1 TMU     -0.183300
     15 C15         4.5580   -1.4260    0.9200 ca        1 TMU     -0.078500
     16 C16         3.2520   -0.3350   -0.7990 ca        1 TMU     -0.078500
     17 C17         5.5460   -0.4580    0.8000 ca        1 TMU     -0.183500
     18 C18         4.2310    0.6470   -0.9350 ca        1 TMU     -0.183500
     19 C19         5.3790    0.5840   -0.1330 ca        1 TMU      0.140100
     20 O20         6.4130    1.4950   -0.1740 os        1 TMU     -0.324900
     21 C21         6.2870    2.5500   -1.1220 c3        1 TMU      0.111700
     22 HN4        -0.8220   -0.9070    2.2660 hn        1 TMU      0.347500
     23 H6         -4.9080    1.1210    0.9880 h4        1 TMU      0.071100
     24 HN9         1.4330   -1.8450    1.9990 hn        1 TMU      0.303500
     25 H131        1.9820   -2.6990   -0.7970 h1        1 TMU      0.081200
     26 H132        2.7960   -3.3600    0.7050 h1        1 TMU      0.081200
     27 H15         4.6870   -2.2450    1.6440 ha        1 TMU      0.143000
     28 H16         2.3450   -0.2970   -1.4250 ha        1 TMU      0.143000
     29 H17         6.4560   -0.4900    1.4170 ha        1 TMU      0.148500
     30 H18         4.0950    1.4550   -1.6670 ha        1 TMU      0.148500
     31 H211        7.2280    3.1390   -0.9800 h1        1 TMU      0.047700
     32 H212        6.2300    2.1420   -2.1610 h1        1 TMU      0.047700
     33 H213        5.3910    3.1770   -0.8960 h1        1 TMU      0.047700
@<TRIPOS>BOND
     1    1    2 1   
     2    1    3 2   
     3    1    4 1   
     4    2    5 1   
     5    3    6 1   
     6    4    7 1   
     7    4   22 1   
     8    5    6 2   
     9    5    8 1   
    10    6   23 1   
    11    7    9 1   
    12    7   10 2   
    13    8   11 1   
    14    8   12 1   
    15    9   13 1   
    16    9   24 1   
    17   13   14 1   
    18   13   25 1   
    19   13   26 1   
    20   14   15 ar  
    21   14   16 ar  
    22   15   17 ar  
    23   15   27 1   
    24   16   18 ar  
    25   16   28 1   
    26   17   19 ar  
    27   17   29 1   
    28   18   19 ar  
    29   18   30 1   
    30   19   20 1   
    31   20   21 1   
    32   21   31 1   
    33   21   32 1   
    34   21   33 1   
@<TRIPOS>SUBSTRUCTURE
     1 TMU         1 TEMP              0 ****  ****    0 ROOT
