@<TRIPOS>MOLECULE
TMU
   34    35     1     0     0
SMALL
bcc


@<TRIPOS>ATOM
      1 C1         -0.0240    0.2250    0.1210 cc        1 TMU      0.332300
      2 S2          1.6520    0.2590    0.3680 ss        1 TMU      0.280700
      3 N3         -0.7840    0.0710    1.2500 nd        1 TMU     -0.635000
      4 N4         -0.5860    0.3490   -1.1780 ns        1 TMU     -0.439400
      5 C5          1.4200    0.0900    2.0110 cc        1 TMU     -0.358600
      6 C6          0.0410   -0.0050    2.3270 cd        1 TMU      0.434200
      7 C7         -1.3080   -0.7590   -1.6370 c         1 TMU      0.623100
      8 N8          2.4750    0.0430    3.0300 no        1 TMU      0.364200
      9 N9         -2.3620   -0.5260   -2.7130 ny        1 TMU     -0.677800
     10 O10        -1.1190   -1.9430   -1.3610 o         1 TMU     -0.436100
     11 O11         2.1540   -0.0850    4.1750 o         1 TMU     -0.167000
     12 O12         3.6150    0.1370    2.6640 o         1 TMU     -0.167000
     13 C13        -3.5930    0.1480   -2.1590 c3        1 TMU      0.192100
     14 C14        -4.6730    0.1670   -3.1740 ca        1 TMU     -0.254300
     15 C15        -5.5220   -0.9460   -3.3080 ca        1 TMU     -0.055500
     16 C16        -4.8840    1.3030   -3.9640 ca        1 TMU     -0.055500
     17 C17        -6.5600   -0.9300   -4.2230 ca        1 TMU     -0.182000
     18 C18        -5.9230    1.3380   -4.8870 ca        1 TMU     -0.182000
     19 C19        -6.7650    0.2210   -5.0200 ca        1 TMU      0.195100
     20 O20        -7.8130    0.1360   -5.8920 os        1 TMU     -0.301900
     21 C21        -8.0910    1.2880   -6.6910 c3        1 TMU      0.104700
     22 HN4        -0.9870    1.2560   -1.3440 hn        1 TMU      0.331500
     23 H6         -0.3700   -0.1300    3.3440 h4        1 TMU      0.098100
     24 HN9        -2.6320   -1.4520   -3.0820 hn        1 TMU      0.466300
     25 H131       -3.9060   -0.4350   -1.2430 hx        1 TMU      0.106200
     26 H132       -3.3030    1.1920   -1.8510 hx        1 TMU      0.106200
     27 H15        -5.3750   -1.8330   -2.6710 ha        1 TMU      0.139500
     28 H16        -4.2360    2.1860   -3.8510 ha        1 TMU      0.139500
     29 H17        -7.2380   -1.7910   -4.3380 ha        1 TMU      0.171000
     30 H18        -6.0840    2.2400   -5.4970 ha        1 TMU      0.171000
     31 H211       -8.3360    2.1630   -6.0430 h1        1 TMU      0.063033
     32 H212       -7.2270    1.5140   -7.3620 h1        1 TMU      0.063033
     33 H213       -8.9860    0.9690   -7.2870 h1        1 TMU      0.063033
     34 H92        -1.9840    0.0250   -3.4890 hn        1 TMU      0.466300
@<TRIPOS>BOND
     1    1    2 1   
     2    1    3 2   
     3    1    4 1   
     4    2    5 1   
     5    3    6 1   
     6    4    7 1   
     7    4   22 1   
     8    5    6 2   
     9    5    8 1   
    10    6   23 1   
    11    7    9 1   
    12    7   10 2   
    13    8   11 1   
    14    8   12 1   
    15    9   13 1   
    16    9   24 1   
    17    9   34 1   
    18   13   14 1   
    19   13   25 1   
    20   13   26 1   
    21   14   15 ar  
    22   14   16 ar  
    23   15   17 ar  
    24   15   27 1   
    25   16   18 ar  
    26   16   28 1   
    27   17   19 ar  
    28   17   29 1   
    29   18   19 ar  
    30   18   30 1   
    31   19   20 1   
    32   20   21 1   
    33   21   31 1   
    34   21   32 1   
    35   21   33 1   
@<TRIPOS>SUBSTRUCTURE
     1 TMU         1 TEMP              0 ****  ****    0 ROOT
