@<TRIPOS>MOLECULE
TMX
   35    35     1     0     0
SMALL
bcc


@<TRIPOS>ATOM
      1 C1         -1.2150    0.0090   -0.6860 c3        1 TMX      0.355900
      2 O1         -1.6620    0.1810   -1.9820 oh        1 TMX     -0.615800
      3 C2          0.2960    0.0090   -0.6860 c3        1 TMX      0.075500
      4 N2          0.7770   -1.2000   -1.4060 n4        1 TMX     -0.581800
      5 C3          0.8590    0.0090    0.6840 c3        1 TMX      0.133100
      6 O3          2.2980    0.1920    0.6010 oh        1 TMX     -0.623800
      7 C4          0.2800    1.0990    1.5350 c3        1 TMX      0.095100
      8 O4          0.7340    0.9240    2.8840 oh        1 TMX     -0.605800
      9 C5         -1.2370    1.0960    1.5240 c3        1 TMX      0.074100
     10 O5         -1.7870    1.0910    0.1690 os        1 TMX     -0.430600
     11 C6         -1.7340    2.3230    2.2490 c3        1 TMX      0.130400
     12 O6         -3.1510    2.3250    2.2580 oh        1 TMX     -0.594800
     13 C7          0.4260   -2.3910   -0.6450 c3        1 TMX      0.089100
     14 C8          0.1550   -1.2630   -2.7190 c3        1 TMX      0.089100
     15 C9          2.2230   -1.1300   -1.5570 c3        1 TMX      0.089100
     16 H1         -1.5300   -0.8540   -0.3560 h2        1 TMX      0.073700
     17 HO1        -2.5130    0.4310   -1.9700 ho        1 TMX      0.468000
     18 H2          0.6110    0.8040   -1.1570 hx        1 TMX      0.123700
     19 H3          0.6720   -0.8530    1.1030 h1        1 TMX      0.068700
     20 HO3         2.6570    0.0770    1.4040 ho        1 TMX      0.464000
     21 H4          0.5970    1.9600    1.2030 h1        1 TMX      0.075700
     22 HO4         1.3200    1.5600    3.0840 ho        1 TMX      0.458000
     23 H5         -1.5540    0.3020    1.9950 h1        1 TMX      0.071700
     24 H16        -1.4020    2.3150    3.1670 h1        1 TMX      0.078200
     25 H26        -1.4110    3.1230    1.7930 h1        1 TMX      0.078200
     26 HO6        -3.4430    3.0050    2.7490 ho        1 TMX      0.422000
     27 H17         1.0110   -2.4640    0.1330 hx        1 TMX      0.104144
     28 H27        -0.5020   -2.3260   -0.3490 hx        1 TMX      0.104144
     29 H37         0.5330   -3.1800   -1.2090 hx        1 TMX      0.104144
     30 H18         0.6660   -1.8650   -3.2930 hx        1 TMX      0.104144
     31 H28        -0.7580   -1.5940   -2.6310 hx        1 TMX      0.104144
     32 H38         0.1410   -0.3710   -3.1150 hx        1 TMX      0.104144
     33 H19         2.6520   -1.4570   -0.7430 hx        1 TMX      0.104144
     34 H29         2.4980   -1.6820   -2.3140 hx        1 TMX      0.104144
     35 H39         2.4890   -0.2040   -1.7160 hx        1 TMX      0.104144
@<TRIPOS>BOND
     1    1    2 1   
     2    1    3 1   
     3    1   10 1   
     4    1   16 1   
     5    2   17 1   
     6    3    4 1   
     7    3    5 1   
     8    3   18 1   
     9    4   13 1   
    10    4   14 1   
    11    4   15 1   
    12    5    6 1   
    13    5    7 1   
    14    5   19 1   
    15    6   20 1   
    16    7    8 1   
    17    7    9 1   
    18    7   21 1   
    19    8   22 1   
    20    9   10 1   
    21    9   11 1   
    22    9   23 1   
    23   11   12 1   
    24   11   24 1   
    25   11   25 1   
    26   12   26 1   
    27   13   27 1   
    28   13   28 1   
    29   13   29 1   
    30   14   30 1   
    31   14   31 1   
    32   14   32 1   
    33   15   33 1   
    34   15   34 1   
    35   15   35 1   
@<TRIPOS>SUBSTRUCTURE
     1 TMX         1 TEMP              0 ****  ****    0 ROOT
