@<TRIPOS>MOLECULE
TMX
   35    35     1     0     0
SMALL
bcc


@<TRIPOS>ATOM
      1 C1          0.1880   -1.3960    0.0050 c3        1 TMX      0.355900
      2 O1          0.7400   -2.4160   -0.7810 oh        1 TMX     -0.615800
      3 C2          0.9380   -0.0440   -0.2460 c3        1 TMX      0.075500
      4 N2          2.4100   -0.0630    0.1130 n4        1 TMX     -0.581800
      5 C3          0.1260    1.0320    0.5150 c3        1 TMX      0.133100
      6 O3          0.7530    2.2860    0.3390 oh        1 TMX     -0.623800
      7 C4         -1.3140    1.0560   -0.0380 c3        1 TMX      0.095100
      8 O4         -1.9770    2.0270    0.7480 oh        1 TMX     -0.605800
      9 C5         -1.9580   -0.3270    0.1240 c3        1 TMX      0.074100
     10 O5         -1.1310   -1.3160   -0.4930 os        1 TMX     -0.430600
     11 C6         -3.3100   -0.4120   -0.6050 c3        1 TMX      0.130400
     12 O6         -4.1910    0.5490   -0.0710 oh        1 TMX     -0.594800
     13 C7          2.6150    0.2150    1.5660 c3        1 TMX      0.089100
     14 C8          3.0380   -1.3820   -0.2110 c3        1 TMX      0.089100
     15 C9          3.1250    0.9850   -0.6880 c3        1 TMX      0.089100
     16 H1          0.2160   -1.6820    1.0920 h2        1 TMX      0.073700
     17 HO1         0.0470   -2.8160   -1.3330 ho        1 TMX      0.468000
     18 H2          0.8850    0.1700   -1.3560 hx        1 TMX      0.123700
     19 H3          0.0850    0.7900    1.6170 h1        1 TMX      0.068700
     20 HO3         0.1070    2.9710    0.5780 ho        1 TMX      0.464000
     21 H4         -1.3110    1.3610   -1.1210 h1        1 TMX      0.075700
     22 HO4        -2.8710    2.1380    0.3850 ho        1 TMX      0.458000
     23 H5         -2.0840   -0.5650    1.2160 h1        1 TMX      0.071700
     24 H16        -3.1890   -0.1390   -1.6870 h1        1 TMX      0.078200
     25 H26        -3.7190   -1.4520   -0.5220 h1        1 TMX      0.078200
     26 HO6        -4.5740    0.1890    0.7390 ho        1 TMX      0.422000
     27 H17         1.9930   -0.4950    2.1710 hx        1 TMX      0.104144
     28 H27         3.7000    0.0700    1.8180 hx        1 TMX      0.104144
     29 H37         2.3220    1.2770    1.7900 hx        1 TMX      0.104144
     30 H18         2.8120   -1.6520   -1.2770 hx        1 TMX      0.104144
     31 H28         4.1480   -1.3020   -0.0650 hx        1 TMX      0.104144
     32 H38         2.6270   -2.1770    0.4680 hx        1 TMX      0.104144
     33 H19         2.6690    1.9950   -0.5000 hx        1 TMX      0.104144
     34 H29         4.2040    1.0000   -0.3800 hx        1 TMX      0.104144
     35 H39         3.0470    0.7320   -1.7780 hx        1 TMX      0.104144
@<TRIPOS>BOND
     1    1    2 1   
     2    1    3 1   
     3    1   10 1   
     4    1   16 1   
     5    2   17 1   
     6    3    4 1   
     7    3    5 1   
     8    3   18 1   
     9    4   13 1   
    10    4   14 1   
    11    4   15 1   
    12    5    6 1   
    13    5    7 1   
    14    5   19 1   
    15    6   20 1   
    16    7    8 1   
    17    7    9 1   
    18    7   21 1   
    19    8   22 1   
    20    9   10 1   
    21    9   11 1   
    22    9   23 1   
    23   11   12 1   
    24   11   24 1   
    25   11   25 1   
    26   12   26 1   
    27   13   27 1   
    28   13   28 1   
    29   13   29 1   
    30   14   30 1   
    31   14   31 1   
    32   14   32 1   
    33   15   33 1   
    34   15   34 1   
    35   15   35 1   
@<TRIPOS>SUBSTRUCTURE
     1 TMX         1 TEMP              0 ****  ****    0 ROOT
