@<TRIPOS>MOLECULE
TMY
   59    59     1     0     0
SMALL
bcc


@<TRIPOS>ATOM
      1 C1         -0.1930   -0.1600    0.6350 ca        1 TMY     -0.092300
      2 C2          1.0810    0.3800    0.3540 ca        1 TMY      0.138100
      3 C3          2.1740    0.1350    1.2030 ca        1 TMY      0.059100
      4 C4          1.9820   -0.6480    2.3650 ca        1 TMY      0.120100
      5 C5          0.7170   -1.1610    2.6610 ca        1 TMY     -0.181000
      6 C6         -0.3610   -0.9080    1.8060 ca        1 TMY     -0.110600
      7 C13        -1.3210    0.1000   -0.3000 c3        1 TMY     -0.082100
      8 C14        -1.4430   -0.9670   -1.3520 c         1 TMY      0.640100
      9 O15        -0.6070   -1.3570   -2.1690 o         1 TMY     -0.543000
     10 O16        -2.6940   -1.5160   -1.3890 os        1 TMY     -0.442900
     11 C17        -2.9140   -2.5550   -2.3600 c3        1 TMY      0.139400
     12 C18        -4.3320   -3.0280   -2.1590 c3        1 TMY     -0.101100
     13 C19        -1.6870   -1.4610    2.1970 c         1 TMY      0.576700
     14 C20        -2.6460   -0.4640    2.7890 c3        1 TMY     -0.177400
     15 C21        -4.0790   -0.7560    2.3960 c3        1 TMY     -0.079400
     16 C22        -5.0350    0.1950    3.0810 c3        1 TMY     -0.078400
     17 C23        -6.4670   -0.0860    2.6770 c3        1 TMY     -0.079400
     18 C24        -7.4270    0.8620    3.3630 c3        1 TMY     -0.079400
     19 C25        -8.8590    0.5820    2.9600 c3        1 TMY     -0.080400
     20 C26        -9.8190    1.5220    3.6410 c3        1 TMY     -0.093100
     21 O27        -1.9510   -2.6610    2.0950 o         1 TMY     -0.507100
     22 O28         1.2120    1.2380   -0.7240 os        1 TMY     -0.346900
     23 O29         3.4280    0.5690    0.8160 os        1 TMY     -0.325900
     24 O30         3.0950   -0.8230    3.1610 os        1 TMY     -0.318900
     25 C31         1.9690    0.6910   -1.8130 c3        1 TMY      0.107700
     26 C32         3.9830    1.5790    1.6610 c3        1 TMY      0.116700
     27 C33         2.9700   -1.7730    4.2150 c3        1 TMY      0.110700
     28 H5          0.5580   -1.7790    3.5570 ha        1 TMY      0.149000
     29 H13        -1.1510    1.0740   -0.8400 hc        1 TMY      0.094200
     30 H17        -2.7540   -2.1250   -3.3840 h1        1 TMY      0.052700
     31 H17A       -2.1690   -3.3740   -2.1850 h1        1 TMY      0.052700
     32 H18        -4.4700   -3.4220   -1.1240 hc        1 TMY      0.048033
     33 H18A       -5.0530   -2.1900   -2.3160 hc        1 TMY      0.048033
     34 H18B       -4.5510   -3.8410   -2.8920 hc        1 TMY      0.048033
     35 H20        -2.5390   -0.5170    3.9070 hc        1 TMY      0.068200
     36 H20A       -2.3630    0.5760    2.4750 hc        1 TMY      0.068200
     37 H21        -4.1870   -0.6680    1.2820 hc        1 TMY      0.057700
     38 H21A       -4.3290   -1.8160    2.6680 hc        1 TMY      0.057700
     39 H22        -4.7710    1.2530    2.8170 hc        1 TMY      0.039200
     40 H22A       -4.9330    0.0960    4.1940 hc        1 TMY      0.039200
     41 H23        -6.7300   -1.1450    2.9390 hc        1 TMY      0.042200
     42 H23A       -6.5700    0.0140    1.5640 hc        1 TMY      0.042200
     43 H24        -7.1630    1.9200    3.1020 hc        1 TMY      0.039700
     44 H24A       -7.3240    0.7610    4.4760 hc        1 TMY      0.039700
     45 H25        -8.9600    0.6810    1.8470 hc        1 TMY      0.039200
     46 H25A       -9.1200   -0.4780    3.2210 hc        1 TMY      0.039200
     47 H26       -10.8680    1.2990    3.3300 hc        1 TMY      0.032700
     48 H26A       -9.5900    2.5820    3.3730 hc        1 TMY      0.032700
     49 H26B       -9.7510    1.4200    4.7510 hc        1 TMY      0.032700
     50 H31         2.9950    0.4150   -1.4710 h1        1 TMY      0.057033
     51 H31A        1.4330   -0.1940   -2.2380 h1        1 TMY      0.057033
     52 H31B        2.0040    1.5330   -2.5480 h1        1 TMY      0.057033
     53 H32         3.3380    2.4900    1.6510 h1        1 TMY      0.046033
     54 H32A        4.1040    1.1930    2.7020 h1        1 TMY      0.046033
     55 H32B        4.9780    1.7900    1.1950 h1        1 TMY      0.046033
     56 H33         2.2490   -1.4060    4.9870 h1        1 TMY      0.048700
     57 H33A        4.0050   -1.8270    4.6370 h1        1 TMY      0.048700
     58 H33B        2.6510   -2.7680    3.8200 h1        1 TMY      0.048700
     59 H13A       -2.2910    0.1730    0.2640 hc        1 TMY      0.094200
@<TRIPOS>BOND
     1    1    2 ar  
     2    1    6 ar  
     3    1    7 1   
     4    2    3 ar  
     5    2   22 1   
     6    3    4 ar  
     7    3   23 1   
     8    4    5 ar  
     9    4   24 1   
    10    5    6 ar  
    11    5   28 1   
    12    6   13 1   
    13    7    8 1   
    14    7   29 1   
    15    7   59 1   
    16    8    9 2   
    17    8   10 1   
    18   10   11 1   
    19   11   12 1   
    20   11   30 1   
    21   11   31 1   
    22   12   32 1   
    23   12   33 1   
    24   12   34 1   
    25   13   14 1   
    26   13   21 2   
    27   14   15 1   
    28   14   35 1   
    29   14   36 1   
    30   15   16 1   
    31   15   37 1   
    32   15   38 1   
    33   16   17 1   
    34   16   39 1   
    35   16   40 1   
    36   17   18 1   
    37   17   41 1   
    38   17   42 1   
    39   18   19 1   
    40   18   43 1   
    41   18   44 1   
    42   19   20 1   
    43   19   45 1   
    44   19   46 1   
    45   20   47 1   
    46   20   48 1   
    47   20   49 1   
    48   22   25 1   
    49   23   26 1   
    50   24   27 1   
    51   25   50 1   
    52   25   51 1   
    53   25   52 1   
    54   26   53 1   
    55   26   54 1   
    56   26   55 1   
    57   27   56 1   
    58   27   57 1   
    59   27   58 1   
@<TRIPOS>SUBSTRUCTURE
     1 TMY         1 TEMP              0 ****  ****    0 ROOT
