@<TRIPOS>MOLECULE
TMY
   59    59     1     0     0
SMALL
bcc


@<TRIPOS>ATOM
      1 C1         -0.1970   -0.1520    0.6280 ca        1 TMY     -0.092300
      2 C2          1.0730    0.3940    0.3390 ca        1 TMY      0.138100
      3 C3          2.1710    0.1590    1.1840 ca        1 TMY      0.059100
      4 C4          1.9880   -0.6210    2.3500 ca        1 TMY      0.120100
      5 C5          0.7270   -1.1400    2.6530 ca        1 TMY     -0.181000
      6 C6         -0.3550   -0.8970    1.8020 ca        1 TMY     -0.110600
      7 C13        -1.3300    0.0980   -0.3040 c3        1 TMY     -0.082100
      8 C14        -1.4510   -0.9730   -1.3510 c         1 TMY      0.640100
      9 O15        -0.6170   -1.3620   -2.1700 o         1 TMY     -0.543000
     10 O16        -2.6990   -1.5290   -1.3800 os        1 TMY     -0.442900
     11 C17        -2.9180   -2.5730   -2.3460 c3        1 TMY      0.139400
     12 C18        -4.3340   -3.0520   -2.1370 c3        1 TMY     -0.101100
     13 C19        -1.6770   -1.4550    2.2010 c         1 TMY      0.576700
     14 C20        -2.6390   -0.4610    2.7920 c3        1 TMY     -0.177400
     15 C21        -4.0720   -0.7630    2.4050 c3        1 TMY     -0.079400
     16 C22        -5.0310    0.1860    3.0900 c3        1 TMY     -0.078400
     17 C23        -6.4620   -0.1040    2.6910 c3        1 TMY     -0.079400
     18 C24        -7.4250    0.8410    3.3770 c3        1 TMY     -0.079400
     19 C25        -8.8570    0.5520    2.9780 c3        1 TMY     -0.080400
     20 C26        -9.8200    1.4910    3.6590 c3        1 TMY     -0.093100
     21 O27        -1.9340   -2.6570    2.1050 o         1 TMY     -0.507100
     22 O28         1.1950    1.2480   -0.7430 os        1 TMY     -0.346900
     23 O29         3.4210    0.5980    0.7900 os        1 TMY     -0.325900
     24 O30         3.1050   -0.7860    3.1420 os        1 TMY     -0.318900
     25 C31         1.9490    0.7020   -1.8330 c3        1 TMY      0.107700
     26 C32         3.9740    1.6150    1.6290 c3        1 TMY      0.116700
     27 C33         2.9900   -1.7340    4.2000 c3        1 TMY      0.110700
     28 H5          0.5750   -1.7560    3.5520 ha        1 TMY      0.149000
     29 H13        -1.1670    1.0710   -0.8490 hc        1 TMY      0.094200
     30 H17        -2.7640   -2.1480   -3.3720 h1        1 TMY      0.052700
     31 H17A       -2.1690   -3.3890   -2.1700 h1        1 TMY      0.052700
     32 H18        -4.4660   -3.4410   -1.1000 hc        1 TMY      0.048033
     33 H18A       -5.0580   -2.2180   -2.2960 hc        1 TMY      0.048033
     34 H18B       -4.5510   -3.8690   -2.8660 hc        1 TMY      0.048033
     35 H20        -2.5280   -0.5100    3.9100 hc        1 TMY      0.068200
     36 H20A       -2.3640    0.5790    2.4740 hc        1 TMY      0.068200
     37 H21        -4.1840   -0.6800    1.2910 hc        1 TMY      0.057700
     38 H21A       -4.3150   -1.8230    2.6820 hc        1 TMY      0.057700
     39 H22        -4.7730    1.2440    2.8210 hc        1 TMY      0.039200
     40 H22A       -4.9250    0.0920    4.2030 hc        1 TMY      0.039200
     41 H23        -6.7190   -1.1630    2.9580 hc        1 TMY      0.042200
     42 H23A       -6.5690   -0.0090    1.5780 hc        1 TMY      0.042200
     43 H24        -7.1680    1.9000    3.1100 hc        1 TMY      0.039700
     44 H24A       -7.3190    0.7450    4.4890 hc        1 TMY      0.039700
     45 H25        -8.9610    0.6470    1.8650 hc        1 TMY      0.039200
     46 H25A       -9.1120   -0.5070    3.2440 hc        1 TMY      0.039200
     47 H26       -10.8690    1.2610    3.3510 hc        1 TMY      0.032700
     48 H26A       -9.5970    2.5510    3.3860 hc        1 TMY      0.032700
     49 H26B       -9.7480    1.3930    4.7690 hc        1 TMY      0.032700
     50 H31         2.9780    0.4310   -1.4940 h1        1 TMY      0.057033
     51 H31A        1.4170   -0.1880   -2.2520 h1        1 TMY      0.057033
     52 H31B        1.9770    1.5410   -2.5710 h1        1 TMY      0.057033
     53 H32         3.3230    2.5220    1.6170 h1        1 TMY      0.046033
     54 H32A        4.1010    1.2340    2.6710 h1        1 TMY      0.046033
     55 H32B        4.9650    1.8290    1.1580 h1        1 TMY      0.046033
     56 H33         2.2700   -1.3670    4.9730 h1        1 TMY      0.048700
     57 H33A        4.0270   -1.7800    4.6180 h1        1 TMY      0.048700
     58 H33B        2.6750   -2.7310    3.8100 h1        1 TMY      0.048700
     59 H13A       -2.2980    0.1690    0.2640 hc        1 TMY      0.094200
@<TRIPOS>BOND
     1    1    2 ar  
     2    1    6 ar  
     3    1    7 1   
     4    2    3 ar  
     5    2   22 1   
     6    3    4 ar  
     7    3   23 1   
     8    4    5 ar  
     9    4   24 1   
    10    5    6 ar  
    11    5   28 1   
    12    6   13 1   
    13    7    8 1   
    14    7   29 1   
    15    7   59 1   
    16    8    9 2   
    17    8   10 1   
    18   10   11 1   
    19   11   12 1   
    20   11   30 1   
    21   11   31 1   
    22   12   32 1   
    23   12   33 1   
    24   12   34 1   
    25   13   14 1   
    26   13   21 2   
    27   14   15 1   
    28   14   35 1   
    29   14   36 1   
    30   15   16 1   
    31   15   37 1   
    32   15   38 1   
    33   16   17 1   
    34   16   39 1   
    35   16   40 1   
    36   17   18 1   
    37   17   41 1   
    38   17   42 1   
    39   18   19 1   
    40   18   43 1   
    41   18   44 1   
    42   19   20 1   
    43   19   45 1   
    44   19   46 1   
    45   20   47 1   
    46   20   48 1   
    47   20   49 1   
    48   22   25 1   
    49   23   26 1   
    50   24   27 1   
    51   25   50 1   
    52   25   51 1   
    53   25   52 1   
    54   26   53 1   
    55   26   54 1   
    56   26   55 1   
    57   27   56 1   
    58   27   57 1   
    59   27   58 1   
@<TRIPOS>SUBSTRUCTURE
     1 TMY         1 TEMP              0 ****  ****    0 ROOT
