@<TRIPOS>MOLECULE
TMY
   59    59     1     0     0
SMALL
bcc


@<TRIPOS>ATOM
      1 C1         -1.3240    0.2830    0.2340 ca        1 TMY     -0.092300
      2 C2         -2.5530    0.7730    0.7250 ca        1 TMY      0.138100
      3 C3         -3.2020    1.8530    0.1040 ca        1 TMY      0.059100
      4 C4         -2.5980    2.4670   -1.0180 ca        1 TMY      0.120100
      5 C5         -1.3690    2.0030   -1.4900 ca        1 TMY     -0.181000
      6 C6         -0.7350    0.9270   -0.8610 ca        1 TMY     -0.110600
      7 C13        -0.6790   -0.8790    0.9030 c3        1 TMY     -0.082100
      8 C14        -1.0890   -2.1880    0.2880 c         1 TMY      0.640100
      9 O15        -2.2180   -2.6590    0.1390 o         1 TMY     -0.543000
     10 O16        -0.0150   -2.9360   -0.1020 os        1 TMY     -0.442900
     11 C17        -0.3010   -4.2080   -0.7110 c3        1 TMY      0.139400
     12 C18         1.0310   -4.8010   -1.0980 c3        1 TMY     -0.101100
     13 C19         0.5880    0.5030   -1.3980 c         1 TMY      0.576700
     14 C20         1.7780    0.9490   -0.5930 c3        1 TMY     -0.177400
     15 C21         2.8850   -0.0840   -0.6030 c3        1 TMY     -0.079400
     16 C22         4.1090    0.4250    0.1270 c3        1 TMY     -0.078400
     17 C23         5.2110   -0.6130    0.1320 c3        1 TMY     -0.079400
     18 C24         6.4390   -0.1060    0.8580 c3        1 TMY     -0.079400
     19 C25         7.5410   -1.1440    0.8650 c3        1 TMY     -0.080400
     20 C26         8.7660   -0.6440    1.5870 c3        1 TMY     -0.093100
     21 O27         0.6940   -0.1170   -2.4580 o         1 TMY     -0.507100
     22 O28        -3.0620    0.2300    1.8920 os        1 TMY     -0.346900
     23 O29        -4.4670    2.2080    0.5360 os        1 TMY     -0.325900
     24 O30        -3.2820    3.5370   -1.5570 os        1 TMY     -0.318900
     25 C31        -4.2450   -0.5580    1.7000 c3        1 TMY      0.107700
     26 C32        -4.5370    3.5050    1.1320 c3        1 TMY      0.116700
     27 C33        -2.7960    4.0290   -2.8030 c3        1 TMY      0.110700
     28 H5         -0.8930    2.4670   -2.3670 ha        1 TMY      0.149000
     29 H13         0.4410   -0.7870    0.8580 hc        1 TMY      0.094200
     30 H17        -0.8450   -4.8450    0.0350 h1        1 TMY      0.052700
     31 H17A       -0.9620   -4.0400   -1.6010 h1        1 TMY      0.052700
     32 H18         1.5630   -4.1320   -1.8170 hc        1 TMY      0.048033
     33 H18A        1.6780   -4.9370   -0.1990 hc        1 TMY      0.048033
     34 H18B        0.8600   -5.7930   -1.5800 hc        1 TMY      0.048033
     35 H20         2.1490    1.9090   -1.0460 hc        1 TMY      0.068200
     36 H20A        1.4680    1.1740    0.4610 hc        1 TMY      0.068200
     37 H21         2.5190   -1.0300   -0.1200 hc        1 TMY      0.057700
     38 H21A        3.1470   -0.3370   -1.6640 hc        1 TMY      0.057700
     39 H22         4.4790    1.3630   -0.3650 hc        1 TMY      0.039200
     40 H22A        3.8370    0.6900    1.1830 hc        1 TMY      0.039200
     41 H23         4.8420   -1.5510    0.6250 hc        1 TMY      0.042200
     42 H23A        5.4810   -0.8790   -0.9240 hc        1 TMY      0.042200
     43 H24         6.8080    0.8310    0.3650 hc        1 TMY      0.039700
     44 H24A        6.1680    0.1610    1.9140 hc        1 TMY      0.039700
     45 H25         7.1700   -2.0810    1.3580 hc        1 TMY      0.039200
     46 H25A        7.8090   -1.4110   -0.1920 hc        1 TMY      0.039200
     47 H26         9.1660    0.2760    1.0950 hc        1 TMY      0.032700
     48 H26A        8.5240   -0.3960    2.6490 hc        1 TMY      0.032700
     49 H26B        9.5660   -1.4230    1.5800 hc        1 TMY      0.032700
     50 H31        -5.0490    0.0590    1.2320 h1        1 TMY      0.057033
     51 H31A       -4.0050   -1.4510    1.0710 h1        1 TMY      0.057033
     52 H31B       -4.5230   -0.8600    2.7400 h1        1 TMY      0.057033
     53 H32        -4.2370    4.2900    0.3960 h1        1 TMY      0.046033
     54 H32A       -5.6170    3.6060    1.4060 h1        1 TMY      0.046033
     55 H32B       -3.8910    3.5490    2.0410 h1        1 TMY      0.046033
     56 H33        -1.7920    4.5030   -2.6690 h1        1 TMY      0.048700
     57 H33A       -2.7480    3.2130   -3.5630 h1        1 TMY      0.048700
     58 H33B       -3.5590    4.7970   -3.0910 h1        1 TMY      0.048700
     59 H13A       -0.9870   -0.9150    1.9860 hc        1 TMY      0.094200
@<TRIPOS>BOND
     1    1    2 ar  
     2    1    6 ar  
     3    1    7 1   
     4    2    3 ar  
     5    2   22 1   
     6    3    4 ar  
     7    3   23 1   
     8    4    5 ar  
     9    4   24 1   
    10    5    6 ar  
    11    5   28 1   
    12    6   13 1   
    13    7    8 1   
    14    7   29 1   
    15    7   59 1   
    16    8    9 2   
    17    8   10 1   
    18   10   11 1   
    19   11   12 1   
    20   11   30 1   
    21   11   31 1   
    22   12   32 1   
    23   12   33 1   
    24   12   34 1   
    25   13   14 1   
    26   13   21 2   
    27   14   15 1   
    28   14   35 1   
    29   14   36 1   
    30   15   16 1   
    31   15   37 1   
    32   15   38 1   
    33   16   17 1   
    34   16   39 1   
    35   16   40 1   
    36   17   18 1   
    37   17   41 1   
    38   17   42 1   
    39   18   19 1   
    40   18   43 1   
    41   18   44 1   
    42   19   20 1   
    43   19   45 1   
    44   19   46 1   
    45   20   47 1   
    46   20   48 1   
    47   20   49 1   
    48   22   25 1   
    49   23   26 1   
    50   24   27 1   
    51   25   50 1   
    52   25   51 1   
    53   25   52 1   
    54   26   53 1   
    55   26   54 1   
    56   26   55 1   
    57   27   56 1   
    58   27   57 1   
    59   27   58 1   
@<TRIPOS>SUBSTRUCTURE
     1 TMY         1 TEMP              0 ****  ****    0 ROOT
