@<TRIPOS>MOLECULE
TMZ
   18    18     1     0     0
SMALL
bcc


@<TRIPOS>ATOM
      1 S1         -0.0860   -0.0040    0.0520 ss        1 TMZ      0.361200
      2 C2          1.5610   -0.0040    0.0820 cc        1 TMZ     -0.148400
      3 N3          2.0870   -0.0010    1.3390 na        1 TMZ      0.030900
      4 C4          1.0750    0.0010    2.3110 cc        1 TMZ     -0.030600
      5 C5         -0.1940   -0.0000    1.7200 cd        1 TMZ     -0.141400
      6 C6          3.4950   -0.0000    1.6510 c3        1 TMZ     -0.015400
      7 C7          1.3690    0.0040    3.7590 c3        1 TMZ     -0.060800
      8 C8         -1.4630    0.0010    2.4540 c3        1 TMZ     -0.047800
      9 H2          2.2210   -0.0060   -0.8010 h5        1 TMZ      0.239000
     10 H61         4.0970   -0.0080    0.7030 h1        1 TMZ      0.098700
     11 H62         3.7380   -0.9140    2.2610 h1        1 TMZ      0.098700
     12 H63         3.7400    0.9210    2.2480 h1        1 TMZ      0.098700
     13 H71         1.9620    0.9120    4.0420 hc        1 TMZ      0.089700
     14 H72         0.4080    0.0100    4.3350 hc        1 TMZ      0.089700
     15 H73         1.9540   -0.9080    4.0470 hc        1 TMZ      0.089700
     16 H81        -1.5390    0.9100    3.1070 hc        1 TMZ      0.083033
     17 H82        -1.5390   -0.9050    3.1110 hc        1 TMZ      0.083033
     18 H83        -2.3370   -0.0000    1.7540 hc        1 TMZ      0.083033
@<TRIPOS>BOND
     1    1    2 1   
     2    1    5 1   
     3    2    3 2   
     4    2    9 1   
     5    3    4 1   
     6    3    6 1   
     7    4    5 2   
     8    4    7 1   
     9    5    8 1   
    10    6   10 1   
    11    6   11 1   
    12    6   12 1   
    13    7   13 1   
    14    7   14 1   
    15    7   15 1   
    16    8   16 1   
    17    8   17 1   
    18    8   18 1   
@<TRIPOS>SUBSTRUCTURE
     1 TMZ         1 TEMP              0 ****  ****    0 ROOT
