@<TRIPOS>MOLECULE
TMZ
   18    14     1     0     0
SMALL
bcc


@<TRIPOS>ATOM
      1 S1         -0.8120    0.0230   -2.0010 ss        1 TMZ      0.901000
      2 C2          0.7310    0.0230   -2.0010 c1        1 TMZ     -0.394000
      3 N3          1.1710    0.0230   -0.6420 n2        1 TMZ     -0.037000
      4 C4         -0.0950    0.0230    0.2870 c1        1 TMZ      0.001000
      5 C5         -1.2710    0.0230   -0.5480 c1        1 TMZ     -0.404000
      6 C6          2.5260    0.0230   -0.2050 c2        1 TMZ     -0.157667
      7 C7         -0.0830    0.0230    1.8000 c2        1 TMZ     -0.157667
      8 C8         -2.7030   -0.0670   -0.0680 c2        1 TMZ     -0.157667
      9 H2          1.3050    0.0230   -2.7910 DU        1 TMZ      0.239000
     10 H61         2.6750   -0.7350    0.3910 ha        1 TMZ      0.129778
     11 H62         3.1170   -0.0490   -0.9780 ha        1 TMZ      0.129778
     12 H63         2.7140    0.8540    0.2720 ha        1 TMZ      0.129778
     13 H71        -0.7150    0.6890    2.1310 ha        1 TMZ      0.129778
     14 H72         0.8140    0.2400    2.1180 ha        1 TMZ      0.129778
     15 H73        -0.3400   -0.8600    2.1280 ha        1 TMZ      0.129778
     16 H81        -3.3020   -0.1180   -0.8370 ha        1 TMZ      0.129778
     17 H82        -2.9190    0.7250    0.4610 ha        1 TMZ      0.129778
     18 H83        -2.8120   -0.8650    0.4830 ha        1 TMZ      0.129778
@<TRIPOS>BOND
     1    1    2 1   
     2    1    5 1   
     3    2    3 1   
     4    3    4 1   
     5    4    5 1   
     6    6   10 1   
     7    6   11 1   
     8    6   12 1   
     9    7   13 1   
    10    7   14 1   
    11    7   15 1   
    12    8   16 1   
    13    8   17 1   
    14    8   18 1   
@<TRIPOS>SUBSTRUCTURE
     1 TMZ         1 TEMP              0 ****  ****    0 ROOT
