@<TRIPOS>MOLECULE
TMZ
   18    18     1     0     0
SMALL
bcc


@<TRIPOS>ATOM
      1 S1         -0.0870   -0.0050    0.0530 ss        1 TMZ      0.361200
      2 C2          1.5590   -0.0040    0.0820 cc        1 TMZ     -0.148400
      3 N3          2.0870   -0.0010    1.3390 na        1 TMZ      0.030900
      4 C4          1.0750    0.0010    2.3110 cc        1 TMZ     -0.030600
      5 C5         -0.1940   -0.0010    1.7200 cd        1 TMZ     -0.141400
      6 C6          3.4940    0.0020    1.6490 c3        1 TMZ     -0.015400
      7 C7          1.3700    0.0030    3.7590 c3        1 TMZ     -0.060800
      8 C8         -1.4630   -0.0010    2.4560 c3        1 TMZ     -0.047800
      9 H2          2.2200   -0.0050   -0.8010 h5        1 TMZ      0.239000
     10 H61         4.0960   -0.0180    0.7020 h1        1 TMZ      0.098700
     11 H62         3.7370   -0.9040    2.2710 h1        1 TMZ      0.098700
     12 H63         3.7420    0.9310    2.2350 h1        1 TMZ      0.098700
     13 H71         1.9720    0.9060    4.0400 hc        1 TMZ      0.089367
     14 H72         0.4100    0.0180    4.3350 hc        1 TMZ      0.089367
     15 H73         1.9470   -0.9130    4.0470 hc        1 TMZ      0.089367
     16 H81        -1.5390    0.9090    3.1080 hc        1 TMZ      0.083033
     17 H82        -1.5370   -0.9070    3.1130 hc        1 TMZ      0.083033
     18 H83        -2.3370   -0.0040    1.7560 hc        1 TMZ      0.083033
@<TRIPOS>BOND
     1    1    2 1   
     2    1    5 1   
     3    2    3 2   
     4    2    9 1   
     5    3    4 1   
     6    3    6 1   
     7    4    5 2   
     8    4    7 1   
     9    5    8 1   
    10    6   10 1   
    11    6   11 1   
    12    6   12 1   
    13    7   13 1   
    14    7   14 1   
    15    7   15 1   
    16    8   16 1   
    17    8   17 1   
    18    8   18 1   
@<TRIPOS>SUBSTRUCTURE
     1 TMZ         1 TEMP              0 ****  ****    0 ROOT
