@<TRIPOS>MOLECULE
TMZ
   18    18     1     0     0
SMALL
bcc


@<TRIPOS>ATOM
      1 S1          1.0360    1.3390    0.0960 ss        1 TMZ      0.361200
      2 C2         -0.6090    1.4090    0.0620 cc        1 TMZ     -0.148400
      3 N3         -1.2100    0.1860    0.0090 na        1 TMZ      0.030900
      4 C4         -0.2580   -0.8440   -0.0050 cc        1 TMZ     -0.030600
      5 C5          1.0430   -0.3320    0.0410 cd        1 TMZ     -0.141400
      6 C6         -2.6330   -0.0390   -0.0300 c3        1 TMZ     -0.015400
      7 C7         -0.6380   -2.2710   -0.0610 c3        1 TMZ     -0.060800
      8 C8          2.2670   -1.1410    0.0400 c3        1 TMZ     -0.047800
      9 H2         -1.2150    2.3300    0.0800 h5        1 TMZ      0.239000
     10 H61        -2.8940   -0.5930   -0.9740 h1        1 TMZ      0.098700
     11 H62        -2.9330   -0.6600    0.8590 h1        1 TMZ      0.098700
     12 H63        -3.1770    0.9430   -0.0060 h1        1 TMZ      0.098700
     13 H71        -1.2250   -2.4890   -0.9900 hc        1 TMZ      0.089700
     14 H72         0.2860   -2.9040   -0.0630 hc        1 TMZ      0.089700
     15 H73        -1.2620   -2.5500    0.8280 hc        1 TMZ      0.089700
     16 H81         3.1810   -0.4960    0.0820 hc        1 TMZ      0.083033
     17 H82         2.2830   -1.8290    0.9260 hc        1 TMZ      0.083033
     18 H83         2.3220   -1.7690   -0.8880 hc        1 TMZ      0.083033
@<TRIPOS>BOND
     1    1    2 1   
     2    1    5 1   
     3    2    3 2   
     4    2    9 1   
     5    3    4 1   
     6    3    6 1   
     7    4    5 2   
     8    4    7 1   
     9    5    8 1   
    10    6   10 1   
    11    6   11 1   
    12    6   12 1   
    13    7   13 1   
    14    7   14 1   
    15    7   15 1   
    16    8   16 1   
    17    8   17 1   
    18    8   18 1   
@<TRIPOS>SUBSTRUCTURE
     1 TMZ         1 TEMP              0 ****  ****    0 ROOT
