@<TRIPOS>MOLECULE
TN1
   23    24     1     0     0
SMALL
bcc


@<TRIPOS>ATOM
      1 C1          0.0830    0.3950   -0.0700 ca        1 TN1     -0.149300
      2 C2          1.4600    0.6960   -0.0620 ca        1 TN1      0.125100
      3 C3          2.4310   -0.3180   -0.0430 ca        1 TN1     -0.160000
      4 C4          2.0210   -1.6460   -0.0190 ca        1 TN1     -0.098000
      5 C5          0.6650   -1.9630   -0.0080 ca        1 TN1     -0.166000
      6 C6         -0.3050   -0.9530   -0.0310 ca        1 TN1     -0.034300
      7 C7         -1.7400   -1.3520   -0.0360 c3        1 TN1     -0.037100
      8 C8         -2.6680   -0.2230    0.3580 c3        1 TN1     -0.076400
      9 C9         -2.3250    1.0350   -0.4080 c3        1 TN1     -0.071400
     10 C10        -0.9170    1.4980   -0.0960 c3        1 TN1     -0.032100
     11 O11         1.9580    1.9800   -0.0850 oh        1 TN1     -0.502100
     12 HG          3.4950   -0.0450   -0.0460 ha        1 TN1      0.149000
     13 HF          2.7730   -2.4490   -0.0040 ha        1 TN1      0.133000
     14 HE          0.3480   -3.0160    0.0200 ha        1 TN1      0.132000
     15 HD1        -2.0030   -1.7080   -1.0700 hc        1 TN1      0.052700
     16 HD2        -1.8910   -2.2190    0.6610 hc        1 TN1      0.052700
     17 HC1        -3.7280   -0.5200    0.1490 hc        1 TN1      0.044200
     18 HC2        -2.5830   -0.0280    1.4590 hc        1 TN1      0.044200
     19 HB1        -2.4210    0.8390   -1.5080 hc        1 TN1      0.044200
     20 HB2        -3.0480    1.8510   -0.1470 hc        1 TN1      0.044200
     21 HA1        -0.6170    2.2620   -0.8650 hc        1 TN1      0.043200
     22 HA2        -0.9090    2.0100    0.9070 hc        1 TN1      0.043200
     23 HH          1.2250    2.5990    0.0370 ho        1 TN1      0.419000
@<TRIPOS>BOND
     1    1    2 ar  
     2    1    6 ar  
     3    1   10 1   
     4    2    3 ar  
     5    2   11 1   
     6    3    4 ar  
     7    3   12 1   
     8    4    5 ar  
     9    4   13 1   
    10    5    6 ar  
    11    5   14 1   
    12    6    7 1   
    13    7    8 1   
    14    7   15 1   
    15    7   16 1   
    16    8    9 1   
    17    8   17 1   
    18    8   18 1   
    19    9   10 1   
    20    9   19 1   
    21    9   20 1   
    22   10   21 1   
    23   10   22 1   
    24   11   23 1   
@<TRIPOS>SUBSTRUCTURE
     1 TN1         1 TEMP              0 ****  ****    0 ROOT
