@<TRIPOS>MOLECULE
TN1
   23    24     1     0     0
SMALL
bcc


@<TRIPOS>ATOM
      1 C1         -0.0120    0.0300   -0.0180 ca        1 TN1     -0.092300
      2 C2          1.3990    0.0760   -0.0040 ca        1 TN1      0.121100
      3 C3          2.1180    0.1050    1.1960 ca        1 TN1     -0.215000
      4 C4          1.4220    0.0930    2.4040 ca        1 TN1     -0.094000
      5 C5          0.0320    0.0490    2.4100 ca        1 TN1     -0.164000
      6 C6         -0.6890    0.0170    1.2080 ca        1 TN1     -0.041300
      7 C7         -2.1750   -0.0590    1.2670 c3        1 TN1     -0.036100
      8 C8         -2.8420    0.3180   -0.0390 c3        1 TN1     -0.076400
      9 C9         -2.1780   -0.3810   -1.2050 c3        1 TN1     -0.076400
     10 C10        -0.7240    0.0240   -1.3230 c3        1 TN1     -0.026100
     11 O11         2.0270    0.0900   -1.2320 oh        1 TN1     -0.500100
     12 HG          3.2160    0.1390    1.1850 ha        1 TN1      0.132000
     13 HF          1.9770    0.1180    3.3530 ha        1 TN1      0.131000
     14 HE         -0.5130    0.0400    3.3660 ha        1 TN1      0.132000
     15 HD1        -2.5530    0.6120    2.0850 hc        1 TN1      0.051200
     16 HD2        -2.4610   -1.1110    1.5420 hc        1 TN1      0.051200
     17 HC1        -2.7840    1.4290   -0.1870 hc        1 TN1      0.042700
     18 HC2        -3.9270    0.0410    0.0040 hc        1 TN1      0.042700
     19 HB1        -2.2510   -1.4910   -1.0650 hc        1 TN1      0.042200
     20 HB2        -2.7120   -0.1260   -2.1570 hc        1 TN1      0.042200
     21 HA1        -0.1940   -0.6690   -2.0320 hc        1 TN1      0.057700
     22 HA2        -0.6530    1.0560   -1.7660 hc        1 TN1      0.057700
     23 HH          2.9820    0.0990   -1.0750 ho        1 TN1      0.417000
@<TRIPOS>BOND
     1    1    2 ar  
     2    1    6 ar  
     3    1   10 1   
     4    2    3 ar  
     5    2   11 1   
     6    3    4 ar  
     7    3   12 1   
     8    4    5 ar  
     9    4   13 1   
    10    5    6 ar  
    11    5   14 1   
    12    6    7 1   
    13    7    8 1   
    14    7   15 1   
    15    7   16 1   
    16    8    9 1   
    17    8   17 1   
    18    8   18 1   
    19    9   10 1   
    20    9   19 1   
    21    9   20 1   
    22   10   21 1   
    23   10   22 1   
    24   11   23 1   
@<TRIPOS>SUBSTRUCTURE
     1 TN1         1 TEMP              0 ****  ****    0 ROOT
