@<TRIPOS>MOLECULE
TN1
   23    24     1     0     0
SMALL
bcc


@<TRIPOS>ATOM
      1 C1         -0.0130    0.0330   -0.0190 ca        1 TN1     -0.092300
      2 C2          1.3980    0.0790   -0.0080 ca        1 TN1      0.121100
      3 C3          2.1190    0.0970    1.1920 ca        1 TN1     -0.215000
      4 C4          1.4250    0.0720    2.4000 ca        1 TN1     -0.094000
      5 C5          0.0350    0.0290    2.4090 ca        1 TN1     -0.164000
      6 C6         -0.6870    0.0090    1.2080 ca        1 TN1     -0.041300
      7 C7         -2.1740   -0.0670    1.2690 c3        1 TN1     -0.036100
      8 C8         -2.8430    0.3220   -0.0320 c3        1 TN1     -0.076400
      9 C9         -2.1810   -0.3660   -1.2060 c3        1 TN1     -0.076400
     10 C10        -0.7270    0.0410   -1.3230 c3        1 TN1     -0.026100
     11 O11         2.0230    0.1060   -1.2360 oh        1 TN1     -0.500100
     12 HG          3.2170    0.1300    1.1790 ha        1 TN1      0.132000
     13 HF          1.9830    0.0880    3.3490 ha        1 TN1      0.131000
     14 HE         -0.5070    0.0100    3.3650 ha        1 TN1      0.132000
     15 HD1        -2.4590   -1.1230    1.5340 hc        1 TN1      0.051200
     16 HD2        -2.5500    0.5950    2.0950 hc        1 TN1      0.051200
     17 HC1        -2.7850    1.4340   -0.1690 hc        1 TN1      0.042700
     18 HC2        -3.9280    0.0440    0.0110 hc        1 TN1      0.042700
     19 HB1        -2.2530   -1.4770   -1.0770 hc        1 TN1      0.042200
     20 HB2        -2.7170   -0.1010   -2.1540 hc        1 TN1      0.042200
     21 HA1        -0.6570    1.0770   -1.7550 hc        1 TN1      0.057700
     22 HA2        -0.1990   -0.6460   -2.0390 hc        1 TN1      0.057700
     23 HH          2.9790    0.1130   -1.0810 ho        1 TN1      0.417000
@<TRIPOS>BOND
     1    1    2 ar  
     2    1    6 ar  
     3    1   10 1   
     4    2    3 ar  
     5    2   11 1   
     6    3    4 ar  
     7    3   12 1   
     8    4    5 ar  
     9    4   13 1   
    10    5    6 ar  
    11    5   14 1   
    12    6    7 1   
    13    7    8 1   
    14    7   15 1   
    15    7   16 1   
    16    8    9 1   
    17    8   17 1   
    18    8   18 1   
    19    9   10 1   
    20    9   19 1   
    21    9   20 1   
    22   10   21 1   
    23   10   22 1   
    24   11   23 1   
@<TRIPOS>SUBSTRUCTURE
     1 TN1         1 TEMP              0 ****  ****    0 ROOT
