@<TRIPOS>MOLECULE
TN2
   26    27     1     0     0
SMALL
bcc


@<TRIPOS>ATOM
      1 O19        -4.1980   -3.1270    0.5740 o         1 TN2     -0.205000
      2 N17        -4.3220   -1.9400    0.4250 no        1 TN2      0.319200
      3 O18        -5.3980   -1.4060    0.4010 o         1 TN2     -0.205000
      4 C14        -3.1020   -1.1090    0.2640 ca        1 TN2     -0.201200
      5 C13        -3.2310    0.2790    0.0950 ca        1 TN2     -0.040000
      6 C11        -2.0880    1.0660   -0.0540 ca        1 TN2     -0.024600
      7 CL12       -2.2740    2.7370   -0.2570 cl        1 TN2     -0.042400
      8 C15        -1.8380   -1.7210    0.2820 ca        1 TN2     -0.034000
      9 C16        -0.7010   -0.9370    0.1330 ca        1 TN2     -0.195000
     10 C10        -0.8160    0.4500   -0.0350 ca        1 TN2      0.159100
     11 O9          0.2730    1.2870   -0.2120 os        1 TN2     -0.235200
     12 C6          1.5370    0.7180   -0.0380 ca        1 TN2     -0.021900
     13 C4          2.3800    0.6720   -1.1650 ca        1 TN2      0.152100
     14 O5          1.9760    1.0430   -2.4200 oh        1 TN2     -0.480100
     15 C3          3.7080    0.2360   -1.0230 ca        1 TN2     -0.151000
     16 C7          2.0080    0.3480    1.2250 ca        1 TN2     -0.090000
     17 C8          3.3220   -0.0850    1.3650 ca        1 TN2     -0.153000
     18 C2          4.1600   -0.1410    0.2410 ca        1 TN2      0.053400
     19 CL20        5.7610   -0.6740    0.4240 cl        1 TN2     -0.071400
     20 H13        -4.2330    0.7460    0.0830 ha        1 TN2      0.188000
     21 H15        -1.7490   -2.8140    0.4130 ha        1 TN2      0.178000
     22 H16         0.2950   -1.4070    0.1470 ha        1 TN2      0.169000
     23 HO5         1.0690    1.3870   -2.3560 ho        1 TN2      0.441000
     24 H3          4.3620    0.2030   -1.9070 ha        1 TN2      0.174000
     25 H7          1.3380    0.4050    2.0960 ha        1 TN2      0.157000
     26 H8          3.7020   -0.3780    2.3550 ha        1 TN2      0.158000
@<TRIPOS>BOND
     1    1    2 1   
     2    2    3 1   
     3    2    4 1   
     4    4    5 ar  
     5    4    8 ar  
     6    5    6 ar  
     7    5   20 1   
     8    6    7 1   
     9    6   10 ar  
    10    8    9 ar  
    11    8   21 1   
    12    9   10 ar  
    13    9   22 1   
    14   10   11 1   
    15   11   12 1   
    16   12   13 ar  
    17   12   16 ar  
    18   13   14 1   
    19   13   15 ar  
    20   14   23 1   
    21   15   18 ar  
    22   15   24 1   
    23   16   17 ar  
    24   16   25 1   
    25   17   18 ar  
    26   17   26 1   
    27   18   19 1   
@<TRIPOS>SUBSTRUCTURE
     1 TN2         1 TEMP              0 ****  ****    0 ROOT
