@<TRIPOS>MOLECULE
TN2
   26    27     1     0     0
SMALL
bcc


@<TRIPOS>ATOM
      1 O19         0.2350   -0.0420    0.4930 o         1 TN2     -0.209000
      2 N17         1.4300   -0.0780    0.3720 no        1 TN2      0.319200
      3 O18         2.1670   -0.1400    1.3190 o         1 TN2     -0.209000
      4 C14         2.0130   -0.0440   -0.9930 ca        1 TN2     -0.207200
      5 C13         3.4080   -0.0830   -1.1490 ca        1 TN2     -0.040000
      6 C11         3.9620   -0.0520   -2.4280 ca        1 TN2     -0.024600
      7 CL12        5.6490   -0.1020   -2.5830 cl        1 TN2     -0.044400
      8 C15         1.1630    0.0270   -2.1080 ca        1 TN2     -0.033000
      9 C16         1.7150    0.0580   -3.3820 ca        1 TN2     -0.198000
     10 C10         3.1070    0.0190   -3.5520 ca        1 TN2      0.179100
     11 O9          3.7220    0.0310   -4.7910 os        1 TN2     -0.210200
     12 C6          2.8900    0.1690   -5.9020 ca        1 TN2      0.033100
     13 C4          2.5660    1.4520   -6.3910 ca        1 TN2      0.142100
     14 O5          2.9420    2.5310   -5.6360 oh        1 TN2     -0.474100
     15 C3          1.8730    1.5790   -7.6050 ca        1 TN2     -0.209000
     16 C7          2.5230   -0.9740   -6.6190 ca        1 TN2     -0.081000
     17 C8          1.8370   -0.8470   -7.8240 ca        1 TN2     -0.154000
     18 C2          1.5160    0.4270   -8.3090 ca        1 TN2      0.062400
     19 CL20        0.6790    0.5790   -9.7770 cl        1 TN2     -0.072400
     20 H13         4.0640   -0.1380   -0.2600 ha        1 TN2      0.186000
     21 H15         0.0680    0.0590   -1.9740 ha        1 TN2      0.175000
     22 H16         1.0580    0.1190   -4.2640 ha        1 TN2      0.162000
     23 HO5         2.7000    3.3370   -6.1190 ho        1 TN2      0.430000
     24 H3          1.6220    2.5770   -7.9940 ha        1 TN2      0.157000
     25 H7          2.7940   -1.9680   -6.2300 ha        1 TN2      0.161000
     26 H8          1.5520   -1.7460   -8.3910 ha        1 TN2      0.159000
@<TRIPOS>BOND
     1    1    2 1   
     2    2    3 1   
     3    2    4 1   
     4    4    5 ar  
     5    4    8 ar  
     6    5    6 ar  
     7    5   20 1   
     8    6    7 1   
     9    6   10 ar  
    10    8    9 ar  
    11    8   21 1   
    12    9   10 ar  
    13    9   22 1   
    14   10   11 1   
    15   11   12 1   
    16   12   13 ar  
    17   12   16 ar  
    18   13   14 1   
    19   13   15 ar  
    20   14   23 1   
    21   15   18 ar  
    22   15   24 1   
    23   16   17 ar  
    24   16   25 1   
    25   17   18 ar  
    26   17   26 1   
    27   18   19 1   
@<TRIPOS>SUBSTRUCTURE
     1 TN2         1 TEMP              0 ****  ****    0 ROOT
