@<TRIPOS>MOLECULE
TN2
   26    27     1     0     0
SMALL
bcc


@<TRIPOS>ATOM
      1 O19         0.2300   -0.0380    0.4910 o         1 TN2     -0.209000
      2 N17         1.4250   -0.0800    0.3700 no        1 TN2      0.319200
      3 O18         2.1600   -0.1500    1.3190 o         1 TN2     -0.209000
      4 C14         2.0100   -0.0470   -0.9930 ca        1 TN2     -0.207200
      5 C13         3.4040   -0.0950   -1.1480 ca        1 TN2     -0.040000
      6 C11         3.9590   -0.0640   -2.4280 ca        1 TN2     -0.024600
      7 CL12        5.6460   -0.1240   -2.5810 cl        1 TN2     -0.044400
      8 C15         1.1610    0.0320   -2.1090 ca        1 TN2     -0.033000
      9 C16         1.7140    0.0620   -3.3820 ca        1 TN2     -0.198000
     10 C10         3.1050    0.0150   -3.5510 ca        1 TN2      0.179100
     11 O9          3.7220    0.0260   -4.7900 os        1 TN2     -0.210200
     12 C6          2.8920    0.1690   -5.9010 ca        1 TN2      0.033100
     13 C4          2.5710    1.4540   -6.3900 ca        1 TN2      0.142100
     14 O5          2.9510    2.5310   -5.6330 oh        1 TN2     -0.474100
     15 C3          1.8810    1.5840   -7.6040 ca        1 TN2     -0.209000
     16 C7          2.5210   -0.9720   -6.6200 ca        1 TN2     -0.081000
     17 C8          1.8360   -0.8410   -7.8250 ca        1 TN2     -0.154000
     18 C2          1.5200    0.4340   -8.3090 ca        1 TN2      0.062400
     19 CL20        0.6850    0.5910   -9.7780 cl        1 TN2     -0.072400
     20 H13         4.0590   -0.1550   -0.2590 ha        1 TN2      0.186000
     21 H15         0.0660    0.0710   -1.9760 ha        1 TN2      0.175000
     22 H16         1.0580    0.1300   -4.2640 ha        1 TN2      0.162000
     23 HO5         2.7120    3.3380   -6.1150 ho        1 TN2      0.430000
     24 H3          1.6330    2.5830   -7.9920 ha        1 TN2      0.157000
     25 H7          2.7880   -1.9670   -6.2320 ha        1 TN2      0.161000
     26 H8          1.5490   -1.7380   -8.3940 ha        1 TN2      0.159000
@<TRIPOS>BOND
     1    1    2 1   
     2    2    3 1   
     3    2    4 1   
     4    4    5 ar  
     5    4    8 ar  
     6    5    6 ar  
     7    5   20 1   
     8    6    7 1   
     9    6   10 ar  
    10    8    9 ar  
    11    8   21 1   
    12    9   10 ar  
    13    9   22 1   
    14   10   11 1   
    15   11   12 1   
    16   12   13 ar  
    17   12   16 ar  
    18   13   14 1   
    19   13   15 ar  
    20   14   23 1   
    21   15   18 ar  
    22   15   24 1   
    23   16   17 ar  
    24   16   25 1   
    25   17   18 ar  
    26   17   26 1   
    27   18   19 1   
@<TRIPOS>SUBSTRUCTURE
     1 TN2         1 TEMP              0 ****  ****    0 ROOT
