@<TRIPOS>MOLECULE
TN3
   32    33     1     0     0
SMALL
bcc


@<TRIPOS>ATOM
      1 CL21        0.2200    0.2180   -0.0990 cl        1 TN3     -0.010400
      2 C14         1.9050    0.1840    0.0170 ca        1 TN3     -0.022600
      3 C13         2.4910    0.1400    1.2760 ca        1 TN3     -0.065000
      4 C10         3.8900    0.1110    1.4190 ca        1 TN3     -0.256600
      5 C11         4.5780    0.0640    2.6960 c         1 TN3      0.577700
      6 O13         5.7790    0.1300    2.9220 o         1 TN3     -0.435100
      7 N20         3.6970   -0.1010    3.9360 n4        1 TN3     -0.674800
      8 C12         4.4700   -0.2530    5.1870 c3        1 TN3      0.084100
      9 C9          4.7060    0.1340    0.2680 ca        1 TN3      0.008000
     10 C8          4.1360    0.1760   -0.9930 ca        1 TN3     -0.199000
     11 C7          2.7380    0.1990   -1.1380 ca        1 TN3      0.236100
     12 O9          2.0960    0.2450   -2.3450 os        1 TN3     -0.185200
     13 C5          2.8900    0.2290   -3.4990 ca        1 TN3      0.000100
     14 C6          3.3360   -0.9930   -4.0400 ca        1 TN3      0.146100
     15 O8          3.1510   -2.1230   -3.2860 oh        1 TN3     -0.490100
     16 C1          3.9650   -1.0060   -5.2930 ca        1 TN3     -0.203000
     17 C4          3.0710    1.4280   -4.1970 ca        1 TN3     -0.071000
     18 C3          3.6960    1.4110   -5.4390 ca        1 TN3     -0.148000
     19 C2          4.1390    0.1960   -5.9820 ca        1 TN3      0.072400
     20 CL12        4.8950    0.1830   -7.4960 cl        1 TN3     -0.043400
     21 H13         1.8190    0.1360    2.1490 ha        1 TN3      0.133000
     22 H20         3.0900    0.7240    4.0040 hn        1 TN3      0.457800
     23 H121        5.1200    0.6510    5.3380 hx        1 TN3      0.112033
     24 H122        5.1290   -1.1600    5.1110 hx        1 TN3      0.112033
     25 H123        3.7580   -0.3640    6.0490 hx        1 TN3      0.112033
     26 H9          5.8050    0.1180    0.3780 ha        1 TN3      0.174000
     27 H8          4.7740    0.1820   -1.8930 ha        1 TN3      0.183000
     28 HO8         3.3750   -2.8930   -3.8330 ho        1 TN3      0.441000
     29 H1          4.3060   -1.9590   -5.7280 ha        1 TN3      0.166000
     30 H4          2.7000    2.3720   -3.7670 ha        1 TN3      0.163000
     31 H3          3.8350    2.3510   -5.9970 ha        1 TN3      0.170000
     32 H202        3.1030   -0.9250    3.7940 hn        1 TN3      0.457800
@<TRIPOS>BOND
     1    1    2 1   
     2    2    3 ar  
     3    2   11 ar  
     4    3    4 ar  
     5    3   21 1   
     6    4    5 1   
     7    4    9 ar  
     8    5    6 2   
     9    5    7 1   
    10    7    8 1   
    11    7   22 1   
    12    7   32 1   
    13    8   23 1   
    14    8   24 1   
    15    8   25 1   
    16    9   10 ar  
    17    9   26 1   
    18   10   11 ar  
    19   10   27 1   
    20   11   12 1   
    21   12   13 1   
    22   13   14 ar  
    23   13   17 ar  
    24   14   15 1   
    25   14   16 ar  
    26   15   28 1   
    27   16   19 ar  
    28   16   29 1   
    29   17   18 ar  
    30   17   30 1   
    31   18   19 ar  
    32   18   31 1   
    33   19   20 1   
@<TRIPOS>SUBSTRUCTURE
     1 TN3         1 TEMP              0 ****  ****    0 ROOT
