@<TRIPOS>MOLECULE
TN3
   31    32     1     0     0
SMALL
bcc


@<TRIPOS>ATOM
      1 CL21        1.7650    2.9530    0.4020 cl        1 TN3     -0.062400
      2 C14         1.6900    1.2600    0.3250 ca        1 TN3     -0.017600
      3 C13         2.8860    0.5340    0.2940 ca        1 TN3     -0.078000
      4 C10         2.8640   -0.8600    0.2310 ca        1 TN3     -0.158600
      5 C11         4.1160   -1.6710    0.2090 c         1 TN3      0.672700
      6 O13         4.1850   -2.7690    0.7980 o         1 TN3     -0.601100
      7 N20         5.1900   -1.1660   -0.4960 n         1 TN3     -0.572900
      8 C12         6.4280   -1.8660   -0.6230 c3        1 TN3      0.078300
      9 C9          1.6410   -1.5430    0.2190 ca        1 TN3     -0.047000
     10 C8          0.4450   -0.8360    0.2470 ca        1 TN3     -0.187000
     11 C7          0.4640    0.5640    0.2980 ca        1 TN3      0.135100
     12 O9         -0.6880    1.3380    0.3680 os        1 TN3     -0.243200
     13 C5         -1.8890    0.6940    0.0720 ca        1 TN3     -0.008900
     14 C6         -2.8680    0.6780    1.0860 ca        1 TN3      0.147100
     15 O8         -2.6440    1.1570    2.3490 oh        1 TN3     -0.483100
     16 C1         -4.1470    0.1650    0.8110 ca        1 TN3     -0.150000
     17 C4         -2.1780    0.2100   -1.2080 ca        1 TN3     -0.095000
     18 C3         -3.4430   -0.3010   -1.4780 ca        1 TN3     -0.152000
     19 C2         -4.4160   -0.3220   -0.4680 ca        1 TN3      0.049400
     20 CL12       -5.9570   -0.9500   -0.8090 cl        1 TN3     -0.078400
     21 H13         3.8420    1.0810    0.3380 ha        1 TN3      0.153000
     22 H20         5.0770   -0.3300   -1.0150 hn        1 TN3      0.311500
     23 H121        7.2760   -1.1890   -0.3320 h1        1 TN3      0.046033
     24 H122        6.4340   -2.7690    0.0440 h1        1 TN3      0.046033
     25 H123        6.5830   -2.1990   -1.6850 h1        1 TN3      0.046033
     26 H9          1.6380   -2.6460    0.2010 ha        1 TN3      0.165000
     27 H8         -0.5170   -1.3710    0.2340 ha        1 TN3      0.160000
     28 HO8        -1.7380    1.5060    2.3820 ho        1 TN3      0.442000
     29 H1         -4.9070    0.1570    1.6070 ha        1 TN3      0.172000
     30 H4         -1.4030    0.2380   -1.9880 ha        1 TN3      0.155000
     31 H3         -3.6780   -0.6840   -2.4820 ha        1 TN3      0.156000
@<TRIPOS>BOND
     1    1    2 1   
     2    2    3 ar  
     3    2   11 ar  
     4    3    4 ar  
     5    3   21 1   
     6    4    5 1   
     7    4    9 ar  
     8    5    6 2   
     9    5    7 1   
    10    7    8 1   
    11    7   22 1   
    12    8   23 1   
    13    8   24 1   
    14    8   25 1   
    15    9   10 ar  
    16    9   26 1   
    17   10   11 ar  
    18   10   27 1   
    19   11   12 1   
    20   12   13 1   
    21   13   14 ar  
    22   13   17 ar  
    23   14   15 1   
    24   14   16 ar  
    25   15   28 1   
    26   16   19 ar  
    27   16   29 1   
    28   17   18 ar  
    29   17   30 1   
    30   18   19 ar  
    31   18   31 1   
    32   19   20 1   
@<TRIPOS>SUBSTRUCTURE
     1 TN3         1 TEMP              0 ****  ****    0 ROOT
