@<TRIPOS>MOLECULE
TN3
   32    33     1     0     0
SMALL
bcc


@<TRIPOS>ATOM
      1 Cl21        0.2160    0.2000   -0.1140 cl        1 TN3     -0.010400
      2 C14         1.9010    0.1740    0.0100 ca        1 TN3     -0.022600
      3 C13         2.4810    0.1310    1.2710 ca        1 TN3     -0.065000
      4 C10         3.8800    0.1100    1.4200 ca        1 TN3     -0.256600
      5 C11         4.5630    0.0640    2.7000 c         1 TN3      0.577700
      6 O13         5.7630    0.1340    2.9320 o         1 TN3     -0.435100
      7 N20         3.6770   -0.1030    3.9360 ny        1 TN3     -0.674800
      8 C12         4.4440   -0.2510    5.1910 c3        1 TN3      0.084100
      9 C9          4.7010    0.1380    0.2730 ca        1 TN3      0.008000
     10 C8          4.1360    0.1780   -0.9910 ca        1 TN3     -0.199000
     11 C7          2.7390    0.1940   -1.1420 ca        1 TN3      0.236100
     12 O9          2.1020    0.2380   -2.3520 os        1 TN3     -0.185200
     13 C5          2.9020    0.2270   -3.5020 ca        1 TN3      0.000100
     14 C6          3.3560   -0.9920   -4.0420 ca        1 TN3      0.146100
     15 O8          3.1730   -2.1240   -3.2910 oh        1 TN3     -0.490100
     16 C1          3.9910   -1.0010   -5.2930 ca        1 TN3     -0.203000
     17 C4          3.0800    1.4280   -4.1980 ca        1 TN3     -0.071000
     18 C3          3.7110    1.4150   -5.4370 ca        1 TN3     -0.148000
     19 C2          4.1620    0.2030   -5.9800 ca        1 TN3      0.072400
     20 Cl12        4.9260    0.1950   -7.4900 cl        1 TN3     -0.043400
     21 H13         1.8060    0.1230    2.1410 ha        1 TN3      0.133000
     22 H20         3.0660    0.7190    4.0010 hn        1 TN3      0.457800
     23 H121        5.0900    0.6570    5.3440 hx        1 TN3      0.112033
     24 H122        5.1080   -1.1550    5.1190 hx        1 TN3      0.112033
     25 H123        3.7300   -0.3640    6.0500 hx        1 TN3      0.112033
     26 H9          5.8000    0.1270    0.3880 ha        1 TN3      0.174000
     27 H8          4.7790    0.1880   -1.8870 ha        1 TN3      0.183000
     28 HO8         3.4040   -2.8920   -3.8370 ho        1 TN3      0.441000
     29 H1          4.3390   -1.9510   -5.7270 ha        1 TN3      0.166000
     30 H4          2.7030    2.3690   -3.7690 ha        1 TN3      0.163000
     31 H3          3.8480    2.3560   -5.9940 ha        1 TN3      0.170000
     32 H202        3.0870   -0.9300    3.7920 hn        1 TN3      0.457800
@<TRIPOS>BOND
     1    1    2 1   
     2    2    3 ar  
     3    2   11 ar  
     4    3    4 ar  
     5    3   21 1   
     6    4    5 1   
     7    4    9 ar  
     8    5    6 2   
     9    5    7 1   
    10    7    8 1   
    11    7   22 1   
    12    7   32 1   
    13    8   23 1   
    14    8   24 1   
    15    8   25 1   
    16    9   10 ar  
    17    9   26 1   
    18   10   11 ar  
    19   10   27 1   
    20   11   12 1   
    21   12   13 1   
    22   13   14 ar  
    23   13   17 ar  
    24   14   15 1   
    25   14   16 ar  
    26   15   28 1   
    27   16   19 ar  
    28   16   29 1   
    29   17   18 ar  
    30   17   30 1   
    31   18   19 ar  
    32   18   31 1   
    33   19   20 1   
@<TRIPOS>SUBSTRUCTURE
     1 TN3         1 TEMP              0 ****  ****    0 ROOT
