@<TRIPOS>MOLECULE
TN4
   58    57     1     0     0
SMALL
bcc


@<TRIPOS>ATOM
      1 C1          0.4930   -0.5190   -0.3060 c3        1 TN4      0.110000
      2 C2          1.9100    0.0930   -0.2880 c3        1 TN4     -0.145000
      3 C3          2.3960    0.1910    1.1340 c1        1 TN4     -0.083000
      4 C4          2.2800   -2.2240    1.9990 c3        1 TN4      0.067000
      5 CL4         1.4070   -7.3360    2.1610 cl        1 TN4     -0.010000
      6 C5          0.8070   -2.0790    1.6960 c3        1 TN4     -0.158000
      7 C6          0.5070   -1.9700    0.2170 c3        1 TN4     -0.179000
      8 C11        -0.0690   -0.5340   -1.7260 c3        1 TN4     -0.251000
      9 O11        -0.3230    0.2770    0.5500 oh        1 TN4     -0.323000
     10 C21         2.0270    1.3450   -1.1330 cx        1 TN4      0.005000
     11 C22         2.4830    1.1990   -2.5570 cx        1 TN4     -0.040000
     12 C23         2.1390    2.2100   -3.6120 c3        1 TN4     -0.123000
     13 C24         2.6290    1.8140   -4.9530 c2        1 TN4     -0.188000
     14 C25         2.1470    2.3240   -6.0980 c2        1 TN4     -0.096000
     15 C2A         1.2380    2.5380   -0.6940 c3        1 TN4     -0.200000
     16 O2A         3.3900    1.6250   -1.5290 os        1 TN4     -0.259000
     17 C2B         2.6860    1.9170   -7.4180 c3        1 TN4     -0.185500
     18 C2C         1.0530    3.3240   -6.1270 c3        1 TN4     -0.185500
     19 O31         2.6990    1.3820    1.5450 oh        1 TN4     -0.244000
     20 O41         2.3950   -3.6580    2.4630 os        1 TN4     -0.291000
     21 N42         3.6120   -5.4770    3.3240 n4        1 TN4     -0.162000
     22 C43         2.4500   -5.9150    4.1910 c2        1 TN4      0.262000
     23 C44         1.1670   -6.2250    3.4740 c3        1 TN4     -0.174000
     24 O4A         4.5230   -3.2910    3.2480 o         1 TN4     -0.228000
     25 O4B         2.6660   -5.9610    5.3880 o         1 TN4     -0.136000
     26 H2          2.5980   -0.6810   -0.7490 hc        1 TN4      0.117000
     27 H3          2.6360   -1.5830    2.8420 h1        1 TN4      0.133500
     28 H4          2.9550   -2.1500    1.1110 h1        1 TN4      0.133500
     29 H5          0.4320   -1.1540    2.2180 hc        1 TN4      0.115500
     30 H5A         0.2510   -2.9580    2.1240 hc        1 TN4      0.115500
     31 H6         -0.5100   -2.4080    0.0310 hc        1 TN4      0.089500
     32 H6A         1.2430   -2.5620   -0.3860 hc        1 TN4      0.089500
     33 H11        -1.0730   -1.0220   -1.7430 hc        1 TN4      0.093667
     34 H11A        0.6180   -1.0950   -2.4020 hc        1 TN4      0.093667
     35 H11B       -0.1730    0.5110   -2.1070 hc        1 TN4      0.093667
     36 HO11       -1.2430    0.0810    0.3330 ho        1 TN4      0.207000
     37 H22         2.7000    0.1820   -2.9450 h1        1 TN4      0.118000
     38 H23         1.0210    2.3380   -3.6300 hc        1 TN4      0.105000
     39 H23A        3.4500    1.0790   -4.9710 ha        1 TN4      0.125000
     40 H24         2.5860    3.2080   -3.3390 hc        1 TN4      0.105000
     41 H2A         0.1710    2.2480   -0.5360 hc        1 TN4      0.097000
     42 H2AA        1.2910    3.3520   -1.4560 hc        1 TN4      0.097000
     43 H2AB        1.6490    2.9300    0.2700 hc        1 TN4      0.097000
     44 H2B         3.4660    1.1240   -7.3220 hc        1 TN4      0.084000
     45 H2BA        1.8610    1.5260   -8.0650 hc        1 TN4      0.084000
     46 H2BB        3.1420    2.8000   -7.9320 hc        1 TN4      0.084000
     47 H2C         0.9230    3.7530   -7.1510 hc        1 TN4      0.084000
     48 H2CA        0.0870    2.8490   -5.8200 hc        1 TN4      0.084000
     49 H2CB        1.2670    4.1630   -5.4170 hc        1 TN4      0.084000
     50 H31         4.8800    1.8770    4.0640 ha        1 TN4      0.062000
     51 H31A        3.0680    1.3610    2.5110 ho        1 TN4      0.309000
     52 H31B        3.2670    2.5880    4.5940 ha        1 TN4      0.062000
     53 HN42        4.5030   -5.6550    3.8130 hn        1 TN4      0.279000
     54 H44         0.7310   -5.2730    3.0610 h1        1 TN4      0.188000
     55 H44A        0.4510   -6.6880    4.2070 h1        1 TN4      0.188000
     56 C31         3.8000    1.9400    3.8880 c1        1 TN4     -0.030000
     57 C41         3.5600   -4.0020    3.0010 c2        1 TN4      0.349000
     58 H422        3.5950   -6.0030    2.4400 hn        1 TN4      0.279000
@<TRIPOS>BOND
     1    1    2 1   
     2    1    7 1   
     3    1    8 1   
     4    1    9 1   
     5    2    3 1   
     6    2   10 1   
     7    2   26 1   
     8    3   19 1   
     9    4    6 1   
    10    4   20 1   
    11    4   27 1   
    12    4   28 1   
    13    5   23 1   
    14    6    7 1   
    15    6   29 1   
    16    6   30 1   
    17    7   31 1   
    18    7   32 1   
    19    8   33 1   
    20    8   34 1   
    21    8   35 1   
    22    9   36 1   
    23   10   11 1   
    24   10   15 1   
    25   10   16 1   
    26   11   12 1   
    27   11   16 1   
    28   11   37 1   
    29   12   13 1   
    30   12   38 1   
    31   12   40 1   
    32   13   14 1   
    33   13   39 1   
    34   14   17 1   
    35   14   18 1   
    36   15   41 1   
    37   15   42 1   
    38   15   43 1   
    39   17   44 1   
    40   17   45 1   
    41   17   46 1   
    42   18   47 1   
    43   18   48 1   
    44   18   49 1   
    45   19   51 1   
    46   20   57 1   
    47   21   22 1   
    48   21   53 1   
    49   21   57 1   
    50   21   58 1   
    51   22   23 1   
    52   22   25 1   
    53   23   54 1   
    54   23   55 1   
    55   24   57 1   
    56   50   56 1   
    57   52   56 1   
@<TRIPOS>SUBSTRUCTURE
     1 TN4         1 TEMP              0 ****  ****    0 ROOT
