@<TRIPOS>MOLECULE
TN4
   58    57     1     0     0
SMALL
bcc


@<TRIPOS>ATOM
      1 C1          0.1030    1.8890    0.0700 cy        1 TN4      0.116000
      2 C2          0.7900    0.4530   -0.0190 cy        1 TN4     -0.102000
      3 C3          0.9370    0.5880    1.4940 cv        1 TN4     -0.010000
      4 C4          2.4550   -5.9430    2.6510 c3        1 TN4     -0.060000
      5 CL4         3.7450   -4.4870   -1.2530 cl        1 TN4     -0.017000
      6 C5          0.0040    2.7650    2.6310 c3        1 TN4     -0.161000
      7 C6          0.3440    1.8060    1.5950 cv        1 TN4     -0.191000
      8 C11        -1.3400    1.9260   -0.3560 c3        1 TN4     -0.236000
      9 O11         0.8950    2.8410   -0.5960 oh        1 TN4     -0.312000
     10 C21         2.0380    0.3800   -0.8780 c3        1 TN4      0.039000
     11 C22         1.7200   -1.3970   -2.5070 cx        1 TN4      0.006000
     12 C23         0.4550   -0.8160   -3.1100 cx        1 TN4     -0.186000
     13 C24         1.7670   -0.5570   -3.7130 cu        1 TN4     -0.251000
     14 C25         2.4940   -0.0090   -4.6620 c2        1 TN4     -0.039000
     15 C2A         3.2960    0.8170   -0.1530 c3        1 TN4     -0.214000
     16 O2A         2.2520   -0.9900   -1.2720 os        1 TN4     -0.346000
     17 C2B         4.4760    1.0120   -6.5990 c1        1 TN4     -0.055000
     18 C2C         1.9480    0.7860   -5.7800 c3        1 TN4     -0.199000
     19 O31         1.4700   -0.3640    2.3080 os        1 TN4     -0.266000
     20 O41         2.9370   -4.6310    2.2750 os        1 TN4     -0.232000
     21 N42         2.7340   -2.6270    1.0580 n4        1 TN4     -0.145000
     22 C43         4.1980   -2.6560    0.6760 c2        1 TN4      0.276000
     23 C44         4.5150   -3.0170   -0.7470 c3        1 TN4     -0.178000
     24 O4A         1.1290   -4.3800    0.8990 o         1 TN4     -0.230000
     25 O4B         4.9830   -2.3230    1.5470 o         1 TN4     -0.149000
     26 H2          0.0630   -0.3410   -0.3140 hc        1 TN4      0.123000
     27 H3          0.4020    0.0740    4.0580 h1        1 TN4      0.097000
     28 H4          2.4160   -6.5980    1.7480 h1        1 TN4      0.126667
     29 H5          0.2360    2.3690    3.6510 hc        1 TN4      0.095000
     30 H5A         3.2360   -6.2750    3.3820 h1        1 TN4      0.126667
     31 H6          0.5790    3.7160    2.4830 hc        1 TN4      0.095000
     32 H6A        -1.0890    3.0120    2.5870 hc        1 TN4      0.095000
     33 H11        -1.9140    1.1060    0.1380 hc        1 TN4      0.096333
     34 H11A       -1.8000    2.9040   -0.0710 hc        1 TN4      0.096333
     35 H11B       -1.4130    1.8060   -1.4640 hc        1 TN4      0.096333
     36 HO11        0.4790    3.7020   -0.4540 ho        1 TN4      0.222000
     37 H22         1.8890    1.0240   -1.7930 h1        1 TN4      0.146000
     38 H23        -0.2530   -1.5050   -3.6100 hc        1 TN4      0.126500
     39 H23A        1.9210   -2.4900   -2.5700 h1        1 TN4      0.142000
     40 H24        -0.0700    0.0110   -2.5950 hc        1 TN4      0.126500
     41 H2A         4.1790    0.7410   -0.8310 hc        1 TN4      0.089667
     42 H2AA        3.4740    0.1830    0.7500 hc        1 TN4      0.089667
     43 H2AB        3.1670    1.8800    0.1660 hc        1 TN4      0.089667
     44 H2B         3.5990   -0.1150   -4.6740 ha        1 TN4      0.167000
     45 H2BA        4.4970    2.1050   -6.7370 ha        1 TN4      0.020000
     46 H2BB        4.4120    0.4890   -7.5660 ha        1 TN4      0.020000
     47 H2C         2.3770    1.8220   -5.7510 hc        1 TN4      0.094667
     48 H2CA        2.2230    0.3050   -6.7550 hc        1 TN4      0.094667
     49 H2CB        0.8340    0.8710   -5.7400 hc        1 TN4      0.094667
     50 H31         2.0380    0.8940    3.8880 h1        1 TN4      0.097000
     51 H31A        1.4480   -5.8470    3.1240 h1        1 TN4      0.126667
     52 H31B        1.9480   -0.9220    4.1860 h1        1 TN4      0.097000
     53 HN42        2.1720   -2.2090    0.2850 hn        1 TN4      0.305500
     54 H44         5.6270   -3.1470   -0.8410 h1        1 TN4      0.191500
     55 H44A        4.1680   -2.1820   -1.4220 h1        1 TN4      0.191500
     56 C31         1.4550   -0.0410    3.7050 c3        1 TN4     -0.074000
     57 C41         2.1740   -3.9650    1.3800 c2        1 TN4      0.336000
     58 H422        2.6230   -2.0240    1.8970 hn        1 TN4      0.305500
@<TRIPOS>BOND
     1    1    2 1   
     2    1    7 1   
     3    1    8 1   
     4    1    9 1   
     5    2    3 1   
     6    2   10 1   
     7    2   26 1   
     8    3    7 1   
     9    3   19 1   
    10    4   20 1   
    11    4   28 1   
    12    4   30 1   
    13    4   51 1   
    14    5   23 1   
    15    6    7 1   
    16    6   29 1   
    17    6   31 1   
    18    6   32 1   
    19    8   33 1   
    20    8   34 1   
    21    8   35 1   
    22    9   36 1   
    23   10   15 1   
    24   10   16 1   
    25   10   37 1   
    26   11   12 1   
    27   11   13 1   
    28   11   16 1   
    29   11   39 1   
    30   12   13 1   
    31   12   38 1   
    32   12   40 1   
    33   13   14 1   
    34   14   18 1   
    35   14   44 1   
    36   15   41 1   
    37   15   42 1   
    38   15   43 1   
    39   17   45 1   
    40   17   46 1   
    41   18   47 1   
    42   18   48 1   
    43   18   49 1   
    44   19   56 1   
    45   20   57 1   
    46   21   22 1   
    47   21   53 1   
    48   21   57 1   
    49   21   58 1   
    50   22   23 1   
    51   22   25 1   
    52   23   54 1   
    53   23   55 1   
    54   24   57 1   
    55   27   56 1   
    56   50   56 1   
    57   52   56 1   
@<TRIPOS>SUBSTRUCTURE
     1 TN4         1 TEMP              0 ****  ****    0 ROOT
