@<TRIPOS>MOLECULE
TN4
   58    58     1     0     0
SMALL
bcc


@<TRIPOS>ATOM
      1 C1         -0.5500    0.2270    0.5390 c3        1 TN4      0.039000
      2 C2          0.9510   -0.1400    0.6240 c3        1 TN4     -0.080000
      3 C3          1.4950   -0.1310    2.0220 c2        1 TN4     -0.041000
      4 C4          0.0690   -3.8850    0.0780 c3        1 TN4     -0.087000
      5 Cl4         5.7510   -2.7110    2.6590 cl        1 TN4     -0.002000
      6 C5         -2.4690   -0.7400    1.9360 c3        1 TN4     -0.289000
      7 C6         -1.3140   -0.9230    1.0960 c1        1 TN4     -0.054000
      8 C11        -0.9940    0.3600   -0.9240 c3        1 TN4     -0.233000
      9 O11        -0.8410    1.4240    1.2500 oh        1 TN4     -0.330000
     10 C21         1.8390    0.6900   -0.2840 cx        1 TN4     -0.003000
     11 C22         2.0820    0.2380   -1.6920 cx        1 TN4     -0.007000
     12 C23         2.4990    1.2080   -2.7580 c3        1 TN4     -0.129000
     13 C24         2.7500    0.5280   -4.0660 cx        1 TN4     -0.185000
     14 C25         3.3590    1.2970   -5.2180 cx        1 TN4     -0.137000
     15 C2A         2.0500    2.1230    0.0900 c3        1 TN4     -0.221000
     16 O2A         3.0470   -0.0340   -0.6550 os        1 TN4     -0.340000
     17 C2B         4.1550    0.2340   -4.5160 cx        1 TN4     -0.204000
     18 C2C         3.7320    2.7310   -5.0820 c3        1 TN4     -0.192000
     19 O31         2.8690   -0.3850    2.0880 oh        1 TN4     -0.337000
     20 O41         1.3940   -3.3800   -0.2370 os        1 TN4     -0.238000
     21 N42         3.5170   -2.6710    0.4350 ny        1 TN4     -0.157000
     22 C43         4.8000   -3.4530    0.2660 c2        1 TN4      0.262000
     23 C44         5.4230   -3.9830    1.5260 c3        1 TN4     -0.177000
     24 O4A         2.3170   -4.3710    1.6120 o         1 TN4     -0.247000
     25 O4B         5.2010   -3.5820   -0.8780 o         1 TN4     -0.141000
     26 H2          1.0140   -1.2110    0.2560 hc        1 TN4      0.109000
     27 H3          0.1260   -4.7760    0.7460 h1        1 TN4      0.139000
     28 H4         -0.4980   -3.0320    0.5460 h1        1 TN4      0.139000
     29 H5         -2.6220    0.2880    2.3560 hc        1 TN4      0.133333
     30 H5A        -0.3330   -4.1520   -0.9320 h1        1 TN4      0.139000
     31 H6         -2.4370   -1.4830    2.7780 hc        1 TN4      0.133333
     32 H6A        -3.3700   -1.0030    1.3080 hc        1 TN4      0.133333
     33 H11        -2.0750    0.6370   -0.9620 hc        1 TN4      0.100000
     34 H11A       -0.8370   -0.6000   -1.4690 hc        1 TN4      0.100000
     35 H11B       -0.4030    1.1660   -1.4240 hc        1 TN4      0.100000
     36 HO11       -0.4430    2.1610    0.7690 ho        1 TN4      0.212000
     37 H22         1.5630   -0.6740   -2.0590 h1        1 TN4      0.132000
     38 H23         1.6720    1.9590   -2.8880 hc        1 TN4      0.109500
     39 H23A        1.9620   -0.2100   -4.3220 hc        1 TN4      0.116000
     40 H24         3.4140    1.7670   -2.4220 hc        1 TN4      0.109500
     41 H2A         1.3570    2.7700   -0.5030 hc        1 TN4      0.106667
     42 H2AA        3.1000    2.4370   -0.1310 hc        1 TN4      0.106667
     43 H2AB        1.8470    2.2820    1.1790 hc        1 TN4      0.106667
     44 H2B         2.9660    1.0610   -6.2300 hc        1 TN4      0.128000
     45 H2BA        4.3600   -0.7170   -5.0410 hc        1 TN4      0.115000
     46 H2BB        4.9990    0.5400   -3.8720 hc        1 TN4      0.115000
     47 H2C         2.8190    3.3740   -5.1320 hc        1 TN4      0.083000
     48 H2CA        4.4170    3.0270   -5.9150 hc        1 TN4      0.083000
     49 H2CB        4.2540    2.9330   -4.1140 hc        1 TN4      0.083000
     50 H31         3.3140    0.4110    1.7570 ho        1 TN4      0.237000
     51 H31A       -0.2750    0.1490    3.1770 ha        1 TN4      0.149500
     52 H31B        1.3160   -0.0270    4.1430 ha        1 TN4      0.149500
     53 HN42        3.6000   -2.0210    1.2460 hn        1 TN4      0.306000
     54 H44         6.3930   -4.4850    1.2610 h1        1 TN4      0.185000
     55 H44A        4.7290   -4.7240    2.0120 h1        1 TN4      0.185000
     56 C31         0.8150    0.0010    3.1660 c2        1 TN4     -0.170000
     57 C41         2.3520   -3.5640    0.6920 c2        1 TN4      0.351000
     58 H422        3.3300   -2.0910   -0.4080 hn        1 TN4      0.306000
@<TRIPOS>BOND
     1    1    2 1   
     2    1    7 1   
     3    1    8 1   
     4    1    9 1   
     5    2    3 1   
     6    2   10 1   
     7    2   26 1   
     8    3   19 1   
     9    3   56 1   
    10    4   20 1   
    11    4   27 1   
    12    4   28 1   
    13    4   30 1   
    14    5   23 1   
    15    6    7 1   
    16    6   29 1   
    17    6   31 1   
    18    6   32 1   
    19    8   33 1   
    20    8   34 1   
    21    8   35 1   
    22    9   36 1   
    23   10   11 1   
    24   10   15 1   
    25   10   16 1   
    26   11   12 1   
    27   11   16 1   
    28   11   37 1   
    29   12   13 1   
    30   12   38 1   
    31   12   40 1   
    32   13   14 1   
    33   13   17 1   
    34   13   39 1   
    35   14   17 1   
    36   14   18 1   
    37   14   44 1   
    38   15   41 1   
    39   15   42 1   
    40   15   43 1   
    41   17   45 1   
    42   17   46 1   
    43   18   47 1   
    44   18   48 1   
    45   18   49 1   
    46   19   50 1   
    47   20   57 1   
    48   21   22 1   
    49   21   53 1   
    50   21   57 1   
    51   21   58 1   
    52   22   23 1   
    53   22   25 1   
    54   23   54 1   
    55   23   55 1   
    56   24   57 1   
    57   51   56 1   
    58   52   56 1   
@<TRIPOS>SUBSTRUCTURE
     1 TN4         1 TEMP              0 ****  ****    0 ROOT
