@<TRIPOS>MOLECULE
TN4
   57    58     1     0     0
SMALL
bcc


@<TRIPOS>ATOM
      1 C1         -1.3380   -1.2690   -1.6930 c3        1 TN4      0.156800
      2 C2         -1.1240   -0.7750   -0.2450 c3        1 TN4     -0.031700
      3 C3         -0.2590   -1.7970    0.5070 c3        1 TN4      0.146100
      4 C4          1.1030   -1.9960   -0.1870 c3        1 TN4      0.136100
      5 CL4         4.5100    3.0000    1.6650 cl        1 TN4     -0.149400
      6 C5          0.9160   -2.4040   -1.6400 c3        1 TN4     -0.098400
      7 C6          0.0260   -1.4340   -2.3810 c3        1 TN4     -0.105400
      8 C11        -2.1820   -0.2910   -2.5030 c3        1 TN4     -0.126100
      9 O11        -2.0010   -2.5330   -1.6220 oh        1 TN4     -0.601800
     10 C21        -2.4190   -0.4850    0.4850 cx        1 TN4      0.098800
     11 C22        -3.1020    0.8280    0.2330 cx        1 TN4      0.063100
     12 C23        -4.5820    1.0010    0.4120 c3        1 TN4     -0.042200
     13 C24        -5.0370    2.3700    0.0690 c2        1 TN4     -0.176200
     14 C25        -6.3140    2.6800   -0.2030 c2        1 TN4     -0.120400
     15 C2A        -3.1790   -1.6700    0.9940 c3        1 TN4     -0.085100
     16 O2A        -2.3290    0.6150    1.4210 os        1 TN4     -0.389600
     17 C2B        -6.7280    4.0690   -0.5200 c3        1 TN4     -0.059400
     18 C2C        -7.3960    1.6670   -0.2070 c3        1 TN4     -0.059400
     19 O31        -0.0590   -1.3080    1.8300 os        1 TN4     -0.394600
     20 O41         1.7880   -0.7290   -0.1140 os        1 TN4     -0.431900
     21 N42         3.7050    0.4810    0.1320 n         1 TN4     -0.577500
     22 C43         5.0730    0.7460    0.2140 c         1 TN4      0.667100
     23 C44         5.4760    2.1910    0.4600 c3        1 TN4     -0.060000
     24 O4A         3.7440   -1.8650   -0.2610 o         1 TN4     -0.530000
     25 O4B         5.9390   -0.1220    0.0510 o         1 TN4     -0.518100
     26 H2         -0.5370    0.1880   -0.3040 hc        1 TN4      0.087700
     27 H3         -0.7830   -2.7950    0.5160 h1        1 TN4      0.070700
     28 H4          1.7020   -2.7740    0.3640 h1        1 TN4      0.080700
     29 H5          1.9210   -2.4590   -2.1350 hc        1 TN4      0.065700
     30 H5A         0.4550   -3.4270   -1.6590 hc        1 TN4      0.065700
     31 H6         -0.1320   -1.7970   -3.4290 hc        1 TN4      0.052700
     32 H6A         0.5220   -0.4300   -2.4330 hc        1 TN4      0.052700
     33 H11        -1.7260    0.7270   -2.4710 hc        1 TN4      0.047033
     34 H11A       -2.2400   -0.6260   -3.5660 hc        1 TN4      0.047033
     35 H11B       -3.2170   -0.2430   -2.0870 hc        1 TN4      0.047033
     36 HO11       -2.1230   -2.8330   -2.5300 ho        1 TN4      0.402000
     37 H22        -2.6360    1.5440   -0.4760 h1        1 TN4      0.082700
     38 H23        -5.1090    0.2450   -0.2350 hc        1 TN4      0.063700
     39 H23A       -4.8630    0.7820    1.4800 hc        1 TN4      0.063700
     40 H24        -4.2590    3.1510    0.0690 ha        1 TN4      0.126000
     41 H2A        -2.5960   -2.1570    1.8150 hc        1 TN4      0.054033
     42 H2AA       -4.1710   -1.3610    1.4040 hc        1 TN4      0.054033
     43 H2AB       -3.3350   -2.4050    0.1680 hc        1 TN4      0.054033
     44 H2B        -7.2360    4.0990   -1.5160 hc        1 TN4      0.041367
     45 H2BA       -7.4490    4.4380    0.2510 hc        1 TN4      0.041367
     46 H2BB       -5.8540    4.7650   -0.5470 hc        1 TN4      0.041367
     47 H2C        -7.3610    1.0500    0.7270 hc        1 TN4      0.041367
     48 H2CA       -8.4020    2.1480   -0.2740 hc        1 TN4      0.041367
     49 H2CB       -7.2770    0.9780   -1.0810 hc        1 TN4      0.041367
     50 H31         0.2850   -1.7820    3.7510 h1        1 TN4      0.035367
     51 H31A       -0.7320   -3.0140    2.8420 h1        1 TN4      0.035367
     52 H31B        1.0720   -2.9220    2.5430 h1        1 TN4      0.035367
     53 HN42        3.0550    1.2140    0.3220 hn        1 TN4      0.348500
     54 H44         5.3850    2.7680   -0.4930 h1        1 TN4      0.102700
     55 H44A        6.5370    2.2040    0.8140 h1        1 TN4      0.102700
     56 C31         0.1530   -2.3340    2.7860 c3        1 TN4      0.110700
     57 C41         3.1670   -0.7870   -0.0860 c         1 TN4      0.749100
@<TRIPOS>BOND
     1    1    2 1   
     2    1    7 1   
     3    1    8 1   
     4    1    9 1   
     5    2    3 1   
     6    2   10 1   
     7    2   26 1   
     8    3    4 1   
     9    3   19 1   
    10    3   27 1   
    11    4    6 1   
    12    4   20 1   
    13    4   28 1   
    14    5   23 1   
    15    6    7 1   
    16    6   29 1   
    17    6   30 1   
    18    7   31 1   
    19    7   32 1   
    20    8   33 1   
    21    8   34 1   
    22    8   35 1   
    23    9   36 1   
    24   10   11 1   
    25   10   15 1   
    26   10   16 1   
    27   11   12 1   
    28   11   16 1   
    29   11   37 1   
    30   12   13 1   
    31   12   38 1   
    32   12   39 1   
    33   13   14 2   
    34   13   40 1   
    35   14   17 1   
    36   14   18 1   
    37   15   41 1   
    38   15   42 1   
    39   15   43 1   
    40   17   44 1   
    41   17   45 1   
    42   17   46 1   
    43   18   47 1   
    44   18   48 1   
    45   18   49 1   
    46   19   56 1   
    47   20   57 1   
    48   21   22 1   
    49   21   53 1   
    50   21   57 1   
    51   22   23 1   
    52   22   25 2   
    53   23   54 1   
    54   23   55 1   
    55   24   57 2   
    56   50   56 1   
    57   51   56 1   
    58   52   56 1   
@<TRIPOS>SUBSTRUCTURE
     1 TN4         1 TEMP              0 ****  ****    0 ROOT
