@<TRIPOS>MOLECULE
TN5
   26    27     1     0     0
SMALL
bcc


@<TRIPOS>ATOM
      1 CL13        0.6810   -1.6350    1.3160 cl        1 TN5     -0.093400
      2 C12         1.9480   -0.8180    0.5300 ca        1 TN5      0.025400
      3 C11         2.5890    0.2450    1.1660 ca        1 TN5     -0.127000
      4 C10         3.6280    0.9160    0.5200 ca        1 TN5     -0.150000
      5 C9          4.0270    0.5230   -0.7580 ca        1 TN5      0.097100
      6 C8          3.3740   -0.5580   -1.4000 ca        1 TN5      0.117100
      7 O2          3.8080   -0.8930   -2.6600 oh        1 TN5     -0.471100
      8 C7          2.3320   -1.2260   -0.7520 ca        1 TN5     -0.190000
      9 O1          5.0260    1.1400   -1.5000 os        1 TN5     -0.214200
     10 C1          5.8030    2.0740   -0.8140 ca        1 TN5      0.032100
     11 C6          5.5170    3.4320   -1.0080 ca        1 TN5     -0.080000
     12 C5          6.3490    4.4050   -0.4770 ca        1 TN5     -0.190000
     13 C4          7.4900    4.0410    0.2790 ca        1 TN5      0.159600
     14 N1          8.2760    5.0140    0.8950 nh        1 TN5     -0.823200
     15 C3          7.7730    2.6670    0.4640 ca        1 TN5     -0.194000
     16 C2          6.9350    1.6920   -0.0760 ca        1 TN5      0.054400
     17 CL14        7.3200    0.0590    0.1780 cl        1 TN5     -0.067400
     18 H11         2.2820    0.5600    2.1750 ha        1 TN5      0.151000
     19 H10         4.1380    1.7540    1.0190 ha        1 TN5      0.155000
     20 HO2         3.2830   -1.6510   -2.9600 ho        1 TN5      0.418000
     21 H7          1.8230   -2.0660   -1.2490 ha        1 TN5      0.150000
     22 H6          4.6320    3.7130   -1.5990 ha        1 TN5      0.154000
     23 H5          6.1110    5.4670   -0.6420 ha        1 TN5      0.140000
     24 HN11        9.1970    4.7240    1.1360 hn        1 TN5      0.398800
     25 HN12        8.2310    5.9170    0.4780 hn        1 TN5      0.398800
     26 H3          8.6580    2.3580    1.0430 ha        1 TN5      0.150000
@<TRIPOS>BOND
     1    1    2 1   
     2    2    3 ar  
     3    2    8 ar  
     4    3    4 ar  
     5    3   18 1   
     6    4    5 ar  
     7    4   19 1   
     8    5    6 ar  
     9    5    9 1   
    10    6    7 1   
    11    6    8 ar  
    12    7   20 1   
    13    8   21 1   
    14    9   10 1   
    15   10   11 ar  
    16   10   16 ar  
    17   11   12 ar  
    18   11   22 1   
    19   12   13 ar  
    20   12   23 1   
    21   13   14 1   
    22   13   15 ar  
    23   14   24 1   
    24   14   25 1   
    25   15   16 ar  
    26   15   26 1   
    27   16   17 1   
@<TRIPOS>SUBSTRUCTURE
     1 TN5         1 TEMP              0 ****  ****    0 ROOT
