@<TRIPOS>MOLECULE
TN5
   26    23     1     0     0
SMALL
bcc


@<TRIPOS>ATOM
      1 CL13       -5.2500    1.5720   -0.1180 cl        1 TN5     -0.015000
      2 C12        -3.5070    1.5380   -0.1100 c2        1 TN5     -0.053000
      3 C11        -2.8200    1.5170    1.0940 c2        1 TN5     -0.127000
      4 C10        -1.4340    1.5080    1.1000 c1        1 TN5     -0.150000
      5 C9         -0.7350    1.5210   -0.0970 c1        1 TN5      0.052000
      6 C8         -1.4230    1.5420   -1.3000 c1        1 TN5      0.072000
      7 O2         -0.7140    1.5620   -2.5150 o         1 TN5     -0.225000
      8 C7         -2.8090    1.5510   -1.3070 c2        1 TN5     -0.190000
      9 O1          0.6690    1.5720   -0.0890 os        1 TN5     -0.124000
     10 C1          1.1840    0.2800    0.1120 c2        1 TN5     -0.013000
     11 C6          1.4600   -0.1630    1.3970 c2        1 TN5     -0.080000
     12 C5          2.0330   -1.4090    1.5920 c1        1 TN5     -0.190000
     13 C4          2.3310   -2.2130    0.5030 c1        1 TN5      0.078000
     14 N1          2.9110   -3.4930    0.7030 n3        1 TN5     -0.332000
     15 C3          2.0560   -1.7710   -0.7810 c1        1 TN5     -0.194000
     16 C2          1.4820   -0.5240   -0.9760 c1        1 TN5     -0.024000
     17 CL14        1.1490    0.0380   -2.5920 cl        1 TN5      0.011000
     18 H11        -3.3120    1.5080    1.9370 ha        1 TN5      0.151000
     19 H10        -0.9500    1.4930    1.9480 ha        1 TN5      0.155000
     20 HO2        -0.9610    2.2710   -2.9910 ho        1 TN5      0.217000
     21 H7         -3.2930    1.5660   -2.1550 ha        1 TN5      0.150000
     22 H6          1.2500    0.4030    2.1630 ha        1 TN5      0.154000
     23 H5          2.2280   -1.7210    2.4960 ha        1 TN5      0.140000
     24 HN11        3.0540   -3.8020    1.5510 hn        1 TN5      0.194000
     25 HN12        3.1360   -4.0100   -0.0160 hn        1 TN5      0.194000
     26 H3          2.2650   -2.3370   -1.5480 ha        1 TN5      0.150000
@<TRIPOS>BOND
     1    1    2 1   
     2    2    3 1   
     3    2    8 1   
     4    3    4 1   
     5    3   18 1   
     6    4   19 1   
     7    5    6 1   
     8    5    9 1   
     9    6    8 1   
    10    7   20 1   
    11    8   21 1   
    12    9   10 1   
    13   10   11 1   
    14   10   16 1   
    15   11   12 1   
    16   11   22 1   
    17   12   23 1   
    18   13   14 1   
    19   13   15 1   
    20   14   24 1   
    21   14   25 1   
    22   15   26 1   
    23   16   17 1   
@<TRIPOS>SUBSTRUCTURE
     1 TN5         1 TEMP              0 ****  ****    0 ROOT
