@<TRIPOS>MOLECULE
TN5
   26    27     1     0     0
SMALL
bcc


@<TRIPOS>ATOM
      1 Cl13        0.7180   -1.6740    1.3390 cl        1 TN5     -0.093400
      2 C12         1.9760   -0.8470    0.5470 ca        1 TN5      0.025400
      3 C11         2.6000    0.2320    1.1730 ca        1 TN5     -0.127000
      4 C10         3.6310    0.9090    0.5220 ca        1 TN5     -0.150000
      5 C9          4.0390    0.5070   -0.7500 ca        1 TN5      0.097100
      6 C8          3.4030   -0.5900   -1.3820 ca        1 TN5      0.117100
      7 O2          3.8450   -0.9340   -2.6360 oh        1 TN5     -0.471100
      8 C7          2.3680   -1.2650   -0.7290 ca        1 TN5     -0.190000
      9 O1          5.0320    1.1300   -1.4970 os        1 TN5     -0.214200
     10 C1          5.7980    2.0780   -0.8170 ca        1 TN5      0.032100
     11 C6          5.4980    3.4310   -1.0250 ca        1 TN5     -0.080000
     12 C5          6.3180    4.4180   -0.5010 ca        1 TN5     -0.190000
     13 C4          7.4620    4.0730    0.2610 ca        1 TN5      0.159600
     14 N1          8.2350    5.0600    0.8690 nv        1 TN5     -0.823200
     15 C3          7.7580    2.7040    0.4590 ca        1 TN5     -0.194000
     16 C2          6.9310    1.7150   -0.0740 ca        1 TN5      0.054400
     17 Cl14        7.3340    0.0890    0.1960 cl        1 TN5     -0.067400
     18 H11         2.2860    0.5530    2.1770 ha        1 TN5      0.151000
     19 H10         4.1280    1.7600    1.0130 ha        1 TN5      0.155000
     20 HO2         3.3310   -1.7020   -2.9290 ho        1 TN5      0.418000
     21 H7          1.8730   -2.1170   -1.2170 ha        1 TN5      0.150000
     22 H6          4.6110    3.6980   -1.6210 ha        1 TN5      0.154000
     23 H5          6.0690    5.4760   -0.6760 ha        1 TN5      0.140000
     24 HN11        9.1590    4.7820    1.1150 hn        1 TN5      0.398800
     25 HN12        8.1820    5.9580    0.4440 hn        1 TN5      0.398800
     26 H3          8.6450    2.4100    1.0420 ha        1 TN5      0.150000
@<TRIPOS>BOND
     1    1    2 1   
     2    2    3 ar  
     3    2    8 ar  
     4    3    4 ar  
     5    3   18 1   
     6    4    5 ar  
     7    4   19 1   
     8    5    6 ar  
     9    5    9 1   
    10    6    7 1   
    11    6    8 ar  
    12    7   20 1   
    13    8   21 1   
    14    9   10 1   
    15   10   11 ar  
    16   10   16 ar  
    17   11   12 ar  
    18   11   22 1   
    19   12   13 ar  
    20   12   23 1   
    21   13   14 1   
    22   13   15 ar  
    23   14   24 1   
    24   14   25 1   
    25   15   16 ar  
    26   15   26 1   
    27   16   17 1   
@<TRIPOS>SUBSTRUCTURE
     1 TN5         1 TEMP              0 ****  ****    0 ROOT
