@<TRIPOS>MOLECULE
TN5
   26    27     1     0     0
SMALL
bcc


@<TRIPOS>ATOM
      1 CL13        5.1190   -0.6100   -1.1740 cl        1 TN5     -0.089400
      2 C12         3.5360   -0.5710   -0.5520 ca        1 TN5      0.030400
      3 C11         2.4660   -0.2990   -1.4090 ca        1 TN5     -0.139000
      4 C10         1.1670   -0.2660   -0.9060 ca        1 TN5     -0.123000
      5 C9          0.9480   -0.4990    0.4520 ca        1 TN5      0.025100
      6 C8          2.0290   -0.7740    1.3170 ca        1 TN5      0.128100
      7 O2          1.8720   -1.0220    2.6580 oh        1 TN5     -0.491100
      8 C7          3.3350   -0.8130    0.8090 ca        1 TN5     -0.141000
      9 O1         -0.3160   -0.5580    1.0400 os        1 TN5     -0.254200
     10 C1         -1.2640    0.3100    0.4950 ca        1 TN5      0.038100
     11 C6         -1.1790    1.6840    0.7550 ca        1 TN5     -0.089000
     12 C5         -2.1840    2.5390    0.3340 ca        1 TN5     -0.187000
     13 C4         -3.3150    2.0340   -0.3550 ca        1 TN5      0.162600
     14 N1         -4.3730    2.8740   -0.6960 nh        1 TN5     -0.826200
     15 C3         -3.3850    0.6470   -0.6220 ca        1 TN5     -0.194000
     16 C2         -2.3660   -0.2090   -0.2020 ca        1 TN5      0.057400
     17 CL14       -2.5030   -1.8650   -0.5480 cl        1 TN5     -0.066400
     18 H11         2.6420   -0.1150   -2.4790 ha        1 TN5      0.151000
     19 H10         0.3140   -0.0560   -1.5690 ha        1 TN5      0.152000
     20 HO2         0.9250   -0.9660    2.8650 ho        1 TN5      0.440000
     21 H7          4.1720   -1.0300    1.4880 ha        1 TN5      0.168000
     22 H6         -0.3040    2.0750    1.2970 ha        1 TN5      0.151000
     23 H5         -2.1030    3.6150    0.5500 ha        1 TN5      0.142000
     24 HN11       -4.1430    3.8380   -0.7720 hn        1 TN5      0.401800
     25 HN12       -4.9720    2.5370   -1.4140 hn        1 TN5      0.401800
     26 H3         -4.2530    0.2300   -1.1560 ha        1 TN5      0.151000
@<TRIPOS>BOND
     1    1    2 1   
     2    2    3 ar  
     3    2    8 ar  
     4    3    4 ar  
     5    3   18 1   
     6    4    5 ar  
     7    4   19 1   
     8    5    6 ar  
     9    5    9 1   
    10    6    7 1   
    11    6    8 ar  
    12    7   20 1   
    13    8   21 1   
    14    9   10 1   
    15   10   11 ar  
    16   10   16 ar  
    17   11   12 ar  
    18   11   22 1   
    19   12   13 ar  
    20   12   23 1   
    21   13   14 1   
    22   13   15 ar  
    23   14   24 1   
    24   14   25 1   
    25   15   16 ar  
    26   15   26 1   
    27   16   17 1   
@<TRIPOS>SUBSTRUCTURE
     1 TN5         1 TEMP              0 ****  ****    0 ROOT
