@<TRIPOS>MOLECULE
TN5
   27    28     1     0     0
SMALL
bcc


@<TRIPOS>ATOM
      1 CL13       -0.0320   -1.0620   -0.1290 cl        1 TN5     -0.042400
      2 C12         1.5960   -0.6130   -0.0360 ca        1 TN5      0.071400
      3 C11         2.2080   -0.4770    1.2180 ca        1 TN5     -0.148000
      4 C10         3.5470   -0.1120    1.3010 ca        1 TN5     -0.071000
      5 C9          4.2750    0.1180    0.1270 ca        1 TN5     -0.000900
      6 C8          3.6620   -0.0140   -1.1350 ca        1 TN5      0.142100
      7 O2          4.4250    0.2630   -2.2400 oh        1 TN5     -0.493100
      8 C7          2.3120   -0.3840   -1.2140 ca        1 TN5     -0.202000
      9 O1          5.6590    0.2920    0.2320 os        1 TN5     -0.186200
     10 C1          6.1490    1.5630    0.0800 ca        1 TN5      0.214100
     11 C6          5.3390    2.6910   -0.1430 ca        1 TN5     -0.169000
     12 C5          5.9030    3.9490   -0.2840 ca        1 TN5     -0.057000
     13 C4          7.3000    4.0880   -0.2010 ca        1 TN5     -0.128400
     14 N1          7.9130    5.4040   -0.3590 n4        1 TN5     -0.689000
     15 C3          8.1260    2.9710    0.0240 ca        1 TN5     -0.075000
     16 C2          7.5600    1.7070    0.1660 ca        1 TN5     -0.004600
     17 CL14        8.5790    0.3890    0.4340 cl        1 TN5      0.004600
     18 H11         1.6330   -0.6680    2.1390 ha        1 TN5      0.170000
     19 H10         4.0470   -0.0240    2.2790 ha        1 TN5      0.164000
     20 HO2         3.9380   -0.0330   -3.0260 ho        1 TN5      0.442000
     21 H7          1.8300   -0.5010   -2.1970 ha        1 TN5      0.167000
     22 H6          4.2450    2.5650   -0.2180 ha        1 TN5      0.185000
     23 H5          5.2460    4.8170   -0.4590 ha        1 TN5      0.157000
     24 HN11        7.2040    6.1370   -0.2470 hn        1 TN5      0.461133
     25 HN12        8.3290    5.4780   -1.2950 hn        1 TN5      0.461133
     26 H3          9.2230    3.0770    0.0900 ha        1 TN5      0.167000
     27 H13         8.6470    5.5320    0.3460 hn        1 TN5      0.461133
@<TRIPOS>BOND
     1    1    2 1   
     2    2    3 ar  
     3    2    8 ar  
     4    3    4 ar  
     5    3   18 1   
     6    4    5 ar  
     7    4   19 1   
     8    5    6 ar  
     9    5    9 1   
    10    6    7 1   
    11    6    8 ar  
    12    7   20 1   
    13    8   21 1   
    14    9   10 1   
    15   10   11 ar  
    16   10   16 ar  
    17   11   12 ar  
    18   11   22 1   
    19   12   13 ar  
    20   12   23 1   
    21   13   14 1   
    22   13   15 ar  
    23   14   24 1   
    24   14   25 1   
    25   14   27 1   
    26   15   16 ar  
    27   15   26 1   
    28   16   17 1   
@<TRIPOS>SUBSTRUCTURE
     1 TN5         1 TEMP              0 ****  ****    0 ROOT
