@<TRIPOS>MOLECULE
TN6
   19    18     1     0     0
SMALL
bcc


@<TRIPOS>ATOM
      1 C4          2.2650   -1.7040   -0.5160 c3        1 TN6     -0.113100
      2 C3          1.1780   -1.3020    0.4890 c3        1 TN6      0.244800
      3 N           0.5720   -0.0440    0.3240 n3        1 TN6     -0.766700
      4 P          -1.0710    0.0300   -0.1610 p5        1 TN6      1.286800
      5 O2         -1.6320    1.2430    0.5670 o         1 TN6     -0.943500
      6 OD         -1.0580    0.1920   -1.6700 o         1 TN6     -0.943500
      7 C1          1.2110    1.1330    0.7510 c3        1 TN6      0.244800
      8 C2          2.3110    1.7110   -0.1490 c3        1 TN6     -0.113100
      9 OXT        -1.6660   -1.2950    0.2940 o         1 TN6     -0.943500
     10 H41C        3.1750   -1.0660   -0.4130 hc        1 TN6     -0.001967
     11 H42C        2.5640   -2.7660   -0.3380 hc        1 TN6     -0.001967
     12 H43C        1.8830   -1.6090   -1.5600 hc        1 TN6     -0.001967
     13 H31C        0.3380   -2.0620    0.4190 h1        1 TN6      0.014700
     14 H32C        1.6640   -1.4110    1.5140 h1        1 TN6      0.014700
     15 H11C        0.3910    1.9120    0.8470 h1        1 TN6      0.014700
     16 H12C        1.6960    1.0080    1.7740 h1        1 TN6      0.014700
     17 H21C        3.2030    1.0420   -0.1860 hc        1 TN6     -0.001967
     18 H22C        1.9290    1.8500   -1.1870 hc        1 TN6     -0.001967
     19 H23C        2.6380    2.7020    0.2510 hc        1 TN6     -0.001967
@<TRIPOS>BOND
     1    1    2 1   
     2    1   10 1   
     3    1   11 1   
     4    1   12 1   
     5    2    3 1   
     6    2   13 1   
     7    2   14 1   
     8    3    4 1   
     9    3    7 1   
    10    4    5 1   
    11    4    6 1   
    12    4    9 1   
    13    7    8 1   
    14    7   15 1   
    15    7   16 1   
    16    8   17 1   
    17    8   18 1   
    18    8   19 1   
@<TRIPOS>SUBSTRUCTURE
     1 TN6         1 TEMP              0 ****  ****    0 ROOT
