@<TRIPOS>MOLECULE
TN6
   19    18     1     0     0
SMALL
bcc


@<TRIPOS>ATOM
      1 C4         -0.0470   -0.1620    0.1720 c3        1 TN6     -0.113100
      2 C3          1.4600    0.0110   -0.0550 c3        1 TN6      0.244800
      3 N           2.2670    0.2320    1.0750 n3        1 TN6     -0.766700
      4 P           3.3620   -0.9920    1.5670 p5        1 TN6      1.286800
      5 O2          4.5700   -0.2350    2.1010 o         1 TN6     -0.943500
      6 OD          2.6430   -1.7980    2.6330 o         1 TN6     -0.943500
      7 C1          2.3500    1.5010    1.6720 c3        1 TN6      0.244800
      8 C2          1.2010    1.9290    2.5950 c3        1 TN6     -0.113100
      9 OXT         3.6420   -1.7890    0.3000 o         1 TN6     -0.943500
     10 H41C       -0.5390   -0.4510   -0.7890 hc        1 TN6     -0.001967
     11 H42C       -0.2370   -0.9600    0.9270 hc        1 TN6     -0.001967
     12 H43C       -0.5190    0.7840    0.5310 hc        1 TN6     -0.001967
     13 H31C        1.8530   -0.9400   -0.5340 h1        1 TN6      0.014700
     14 H32C        1.5530    0.8520   -0.8170 h1        1 TN6      0.014700
     15 H11C        2.4370    2.3330    0.8990 h1        1 TN6      0.014700
     16 H12C        3.3060    1.4930    2.2850 h1        1 TN6      0.014700
     17 H21C        1.0280    1.1570    3.3810 hc        1 TN6     -0.001967
     18 H22C        0.2520    2.0740    2.0260 hc        1 TN6     -0.001967
     19 H23C        1.4600    2.8960    3.0910 hc        1 TN6     -0.001967
@<TRIPOS>BOND
     1    1    2 1   
     2    1   10 1   
     3    1   11 1   
     4    1   12 1   
     5    2    3 1   
     6    2   13 1   
     7    2   14 1   
     8    3    4 1   
     9    3    7 1   
    10    4    5 1   
    11    4    6 1   
    12    4    9 1   
    13    7    8 1   
    14    7   15 1   
    15    7   16 1   
    16    8   17 1   
    17    8   18 1   
    18    8   19 1   
@<TRIPOS>SUBSTRUCTURE
     1 TN6         1 TEMP              0 ****  ****    0 ROOT
