@<TRIPOS>MOLECULE
TN7
   21    20     1     0     0
SMALL
bcc


@<TRIPOS>ATOM
      1 C2         -0.0100    0.3410   -0.1180 c3        1 TN7     -0.116100
      2 C1          1.4440    0.0050   -0.3750 c3        1 TN7      0.166400
      3 O3          1.9600   -0.7630    0.6880 os        1 TN7     -0.588200
      4 P           3.1600   -0.1280    1.5850 p5        1 TN7      1.288700
      5 O2          2.8160   -0.1680    3.0100 o         1 TN7     -0.741000
      6 N           4.3560   -1.5140    1.3770 n4        1 TN7     -0.710100
      7 C3          3.9970   -2.6370    2.2540 c3        1 TN7      0.092800
      8 C4          3.3700   -3.8150    1.5310 c3        1 TN7     -0.121100
      9 OXT         3.8480    0.9190    0.8170 o         1 TN7     -0.741000
     10 H21C       -0.1150    1.0380    0.7470 hc        1 TN7      0.043700
     11 H22C       -0.4410    0.8260   -1.0260 hc        1 TN7      0.043700
     12 H23C       -0.5860   -0.5880    0.1100 hc        1 TN7      0.043700
     13 H11C        1.5230   -0.6270   -1.3050 h1        1 TN7      0.048700
     14 H12C        2.0600    0.9370   -0.5100 h1        1 TN7      0.048700
     15 HN1         5.2840   -1.1720    1.6000 hn        1 TN7      0.426800
     16 H31C        4.9170   -2.9970    2.7990 hx        1 TN7      0.103200
     17 H32C        3.2730   -2.2390    3.0350 hx        1 TN7      0.103200
     18 H41C        4.0750   -4.2600    0.7880 hc        1 TN7      0.059367
     19 H42C        2.4310   -3.5170    1.0040 hc        1 TN7      0.059367
     20 H43C        3.1150   -4.5950    2.2890 hc        1 TN7      0.059367
     21 HN3         4.3650   -1.8100    0.4070 hn        1 TN7      0.426800
@<TRIPOS>BOND
     1    1    2 1   
     2    1   10 1   
     3    1   11 1   
     4    1   12 1   
     5    2    3 1   
     6    2   13 1   
     7    2   14 1   
     8    3    4 1   
     9    4    5 1   
    10    4    6 1   
    11    4    9 1   
    12    6    7 1   
    13    6   15 1   
    14    6   21 1   
    15    7    8 1   
    16    7   16 1   
    17    7   17 1   
    18    8   18 1   
    19    8   19 1   
    20    8   20 1   
@<TRIPOS>SUBSTRUCTURE
     1 TN7         1 TEMP              0 ****  ****    0 ROOT
