@<TRIPOS>MOLECULE
TN7
   21    20     1     0     0
SMALL
bcc


@<TRIPOS>ATOM
      1 C2          0.2060    1.3800   -0.3460 c3        1 TN7     -0.115100
      2 C1          1.4890    0.5800   -0.4300 c3        1 TN7      0.167400
      3 O3          1.3730   -0.6030    0.3260 os        1 TN7     -0.588200
      4 P           2.3520   -0.8040    1.6080 p5        1 TN7      1.290700
      5 O2          1.5820   -1.1980    2.7920 o         1 TN7     -0.743500
      6 N           3.0620   -2.4210    1.0820 n4        1 TN7     -0.709100
      7 C3          3.9950   -2.7350    2.1710 c3        1 TN7      0.078800
      8 C4          4.7480   -4.0380    2.0210 c3        1 TN7     -0.119100
      9 OXT         3.5140    0.0900    1.4900 o         1 TN7     -0.743500
     10 H21C        0.2600    2.2370   -1.0590 hc        1 TN7      0.044033
     11 H22C       -0.6670    0.7380   -0.6090 hc        1 TN7      0.044033
     12 H23C        0.0480    1.7780    0.6840 hc        1 TN7      0.044033
     13 H11C        2.3690    1.1830   -0.0690 h1        1 TN7      0.048700
     14 H12C        1.6670    0.2700   -1.4990 h1        1 TN7      0.048700
     15 HN1         2.3460   -3.1330    1.0070 hn        1 TN7      0.425800
     16 H31C        3.3820   -2.7440    3.1240 hx        1 TN7      0.118200
     17 H32C        4.7210   -1.8670    2.2300 hx        1 TN7      0.118200
     18 H41C        4.0500   -4.9090    1.9820 hc        1 TN7      0.054700
     19 H42C        5.4210   -4.1660    2.9040 hc        1 TN7      0.054700
     20 H43C        5.3760   -4.0410    1.0970 hc        1 TN7      0.054700
     21 HN3         3.5500   -2.3590    0.1990 hn        1 TN7      0.425800
@<TRIPOS>BOND
     1    1    2 1   
     2    1   10 1   
     3    1   11 1   
     4    1   12 1   
     5    2    3 1   
     6    2   13 1   
     7    2   14 1   
     8    3    4 1   
     9    4    5 1   
    10    4    6 1   
    11    4    9 1   
    12    6    7 1   
    13    6   15 1   
    14    6   21 1   
    15    7    8 1   
    16    7   16 1   
    17    7   17 1   
    18    8   18 1   
    19    8   19 1   
    20    8   20 1   
@<TRIPOS>SUBSTRUCTURE
     1 TN7         1 TEMP              0 ****  ****    0 ROOT
