@<TRIPOS>MOLECULE
TN7
   20    19     1     0     0
SMALL
bcc


@<TRIPOS>ATOM
      1 C2          3.4710   -0.9150   -0.0970 c3        1 TN7     -0.105100
      2 C1          2.0520   -1.0610    0.4250 c3        1 TN7      0.191400
      3 O3          1.1320   -0.7620   -0.5710 os        1 TN7     -0.579200
      4 P           0.0440    0.4820   -0.2640 p5        1 TN7      1.420700
      5 O2          0.7660    1.3850    0.6760 o         1 TN7     -0.846500
      6 N          -1.1570   -0.2490    0.5410 n3        1 TN7     -0.953300
      7 C3         -2.2310   -0.8560   -0.1500 c3        1 TN7      0.228800
      8 C4         -2.3510   -2.3720    0.0040 c3        1 TN7     -0.116100
      9 OXT        -0.3940    0.9010   -1.6210 o         1 TN7     -0.846500
     10 H21C        4.1990   -1.2470    0.6810 hc        1 TN7      0.021367
     11 H22C        3.6100   -1.5320   -1.0150 hc        1 TN7      0.021367
     12 H23C        3.6760    0.1510   -0.3550 hc        1 TN7      0.021367
     13 H11C        1.8980   -2.1350    0.7450 h1        1 TN7      0.008700
     14 H12C        1.9040   -0.3910    1.3180 h1        1 TN7      0.008700
     15 HN1        -1.1800   -0.3220    1.5220 hn        1 TN7      0.397800
     16 H31C       -3.2240   -0.4220    0.1830 h1        1 TN7      0.033700
     17 H32C       -2.1040   -0.6090   -1.2480 h1        1 TN7      0.033700
     18 H41C       -3.2250   -2.7340   -0.5880 hc        1 TN7      0.019700
     19 H42C       -1.4310   -2.8840   -0.3680 hc        1 TN7      0.019700
     20 H43C       -2.5040   -2.6560    1.0720 hc        1 TN7      0.019700
@<TRIPOS>BOND
     1    1    2 1   
     2    1   10 1   
     3    1   11 1   
     4    1   12 1   
     5    2    3 1   
     6    2   13 1   
     7    2   14 1   
     8    3    4 1   
     9    4    5 1   
    10    4    6 1   
    11    4    9 1   
    12    6    7 1   
    13    6   15 1   
    14    7    8 1   
    15    7   16 1   
    16    7   17 1   
    17    8   18 1   
    18    8   19 1   
    19    8   20 1   
@<TRIPOS>SUBSTRUCTURE
     1 TN7         1 TEMP              0 ****  ****    0 ROOT
