@<TRIPOS>MOLECULE
TN7
   21    20     1     0     0
SMALL
bcc


@<TRIPOS>ATOM
      1 C2          0.2910    1.4030   -0.4460 c3        1 TN7     -0.115100
      2 C1          1.5790    0.6070   -0.4620 c3        1 TN7      0.167400
      3 O3          1.4170   -0.5910    0.2600 os        1 TN7     -0.588200
      4 P           2.3110   -0.8180    1.5990 p5        1 TN7      1.290700
      5 O2          1.4650   -1.2380    2.7210 o         1 TN7     -0.743500
      6 N           3.0580   -2.4220    1.0880 ny        1 TN7     -0.709100
      7 C3          3.9180   -2.7570    2.2290 c3        1 TN7      0.078800
      8 C4          4.6830   -4.0560    2.1020 c3        1 TN7     -0.119100
      9 OXT         3.4740    0.0810    1.5770 o         1 TN7     -0.743500
     10 H21C        0.3880    2.2750   -1.1360 hc        1 TN7      0.044033
     11 H22C       -0.5610    0.7650   -0.7800 hc        1 TN7      0.044033
     12 H23C        0.0640    1.7800    0.5790 hc        1 TN7      0.044033
     13 H11C        2.4320    1.2040   -0.0320 h1        1 TN7      0.048700
     14 H12C        1.8280    0.3200   -1.5240 h1        1 TN7      0.048700
     15 HN1         2.3520   -3.1330    0.9500 hn        1 TN7      0.425800
     16 H31C        3.2430   -2.7880    3.1390 hx        1 TN7      0.118700
     17 H32C        4.6350   -1.8900    2.3550 hx        1 TN7      0.118700
     18 H41C        3.9920   -4.9270    1.9980 hc        1 TN7      0.054700
     19 H42C        5.2960   -4.2010    3.0250 hc        1 TN7      0.054700
     20 H43C        5.3720   -4.0380    1.2220 hc        1 TN7      0.054700
     21 HN3         3.6040   -2.3400    0.2400 hn        1 TN7      0.425800
@<TRIPOS>BOND
     1    1    2 1   
     2    1   10 1   
     3    1   11 1   
     4    1   12 1   
     5    2    3 1   
     6    2   13 1   
     7    2   14 1   
     8    3    4 1   
     9    4    5 1   
    10    4    6 1   
    11    4    9 1   
    12    6    7 1   
    13    6   15 1   
    14    6   21 1   
    15    7    8 1   
    16    7   16 1   
    17    7   17 1   
    18    8   18 1   
    19    8   19 1   
    20    8   20 1   
@<TRIPOS>SUBSTRUCTURE
     1 TN7         1 TEMP              0 ****  ****    0 ROOT
