@<TRIPOS>MOLECULE
TNA
   43    41     1     0     0
SMALL
bcc


@<TRIPOS>ATOM
      1 O8         -1.4450    2.1660    7.3350 o         1 TNA     -0.632000
      2 C12        -0.2650    1.8050    7.0890 c1        1 TNA      0.320000
      3 O7          0.4620    1.3610    8.0140 o         1 TNA     -0.632000
      4 C10         0.3100    1.9880    5.6930 c2        1 TNA     -0.200000
      5 C9          0.0840    0.7170    4.8780 c3        1 TNA     -0.116000
      6 C8          0.8940    0.7900    3.5940 c3        1 TNA     -0.090000
      7 C11         2.3720    0.5960    3.9140 c2        1 TNA      0.313000
      8 O6          2.7660   -0.4750    4.4740 o         1 TNA     -0.610000
      9 O5          3.2000    1.5250    3.6710 o         1 TNA     -0.610000
     10 N3          0.4670   -0.2250    2.7090 n3        1 TNA     -0.302000
     11 C7          0.6070    0.2390    1.3270 c3        1 TNA     -0.069000
     12 C6         -0.0580   -0.7790    0.3740 c3        1 TNA     -0.134000
     13 C4          0.3790   -0.4880   -1.0800 c3        1 TNA     -0.096000
     14 C5          1.7340   -1.0960   -1.3300 c2        1 TNA      0.305000
     15 O3          1.8990   -2.3410   -1.2050 o         1 TNA     -0.604500
     16 O4          2.6870   -0.3700   -1.7320 o         1 TNA     -0.604500
     17 N2         -0.5650   -1.0480   -1.9830 n3        1 TNA     -0.280000
     18 C3         -0.4220   -0.4210   -3.2800 c3        1 TNA     -0.079000
     19 C2         -1.5830   -0.8230   -4.1690 c3        1 TNA     -0.172000
     20 C1         -1.2520   -0.5000   -5.6150 c3        1 TNA     -0.106000
     21 N1         -1.9930    0.6250   -6.0270 n3        1 TNA     -0.343000
     22 C          -1.6080   -1.7060   -6.5080 c2        1 TNA      0.328000
     23 O2         -0.7150   -2.2670   -7.1900 o         1 TNA     -0.603000
     24 O1         -2.8240   -2.0960   -6.6030 o         1 TNA     -0.603000
     25 H10         1.2690    2.1660    5.7570 ha        1 TNA      0.071000
     26 H10A       -0.1300    2.7380    5.2550 ha        1 TNA      0.071000
     27 H9         -0.8750    0.6340    4.6580 hc        1 TNA      0.069500
     28 H9A         0.3690   -0.0650    5.4020 hc        1 TNA      0.069500
     29 H8          0.7650    1.6560    3.1790 h1        1 TNA      0.074000
     30 HN3         0.9780   -0.9700    2.8320 hn        1 TNA      0.149000
     31 H7          0.1720    1.1070    1.2300 h1        1 TNA      0.060000
     32 H7A         1.5560    0.3230    1.1050 h1        1 TNA      0.060000
     33 H6          0.2170   -1.6860    0.6220 hc        1 TNA      0.074500
     34 H6A        -1.0370   -0.7020    0.4440 hc        1 TNA      0.074500
     35 H4          0.4260    0.4820   -1.2180 h1        1 TNA      0.084000
     36 HN2        -0.4160   -1.9490   -2.0610 hn        1 TNA      0.143000
     37 H3          0.4170   -0.7090   -3.6900 h1        1 TNA      0.061500
     38 H3A        -0.4150    0.5520   -3.1730 h1        1 TNA      0.061500
     39 H2         -1.7460   -1.7800   -4.0790 hc        1 TNA      0.080500
     40 H2A        -2.3940   -0.3230   -3.8980 hc        1 TNA      0.080500
     41 H1         -0.3040   -0.3080   -5.6940 h1        1 TNA      0.085000
     42 HN1        -2.5480    0.3890   -6.7200 hn        1 TNA      0.125500
     43 HN1A       -1.4330    1.2680   -6.2990 hn        1 TNA      0.125500
@<TRIPOS>BOND
     1    1    2 1   
     2    2    3 1   
     3    4    5 1   
     4    4   25 1   
     5    4   26 1   
     6    5    6 1   
     7    5   27 1   
     8    5   28 1   
     9    6    7 1   
    10    6   10 1   
    11    6   29 1   
    12    7    8 1   
    13    7    9 1   
    14   10   11 1   
    15   10   30 1   
    16   11   12 1   
    17   11   31 1   
    18   11   32 1   
    19   12   13 1   
    20   12   33 1   
    21   12   34 1   
    22   13   14 1   
    23   13   17 1   
    24   13   35 1   
    25   14   15 1   
    26   14   16 1   
    27   17   18 1   
    28   17   36 1   
    29   18   19 1   
    30   18   37 1   
    31   18   38 1   
    32   19   20 1   
    33   19   39 1   
    34   19   40 1   
    35   20   21 1   
    36   20   22 1   
    37   20   41 1   
    38   21   42 1   
    39   21   43 1   
    40   22   23 1   
    41   22   24 1   
@<TRIPOS>SUBSTRUCTURE
     1 TNA         1 TEMP              0 ****  ****    0 ROOT
