@<TRIPOS>MOLECULE
TNA
   43    42     1     0     0
SMALL
bcc


@<TRIPOS>ATOM
      1 O8         -0.2180    1.0890    0.5560 o         1 TNA     -0.895800
      2 C12         0.4150    0.0420    0.2130 c         1 TNA      0.900600
      3 O7          0.3260   -1.0250    0.9050 o         1 TNA     -0.895800
      4 C10         1.3470    0.0600   -1.0010 c3        1 TNA     -0.167400
      5 C9          0.6280    0.3000   -2.3090 c3        1 TNA     -0.036400
      6 C8          1.5150    0.1410   -3.5620 c3        1 TNA      0.057500
      7 C11         0.5430    0.0230   -4.7760 c         1 TNA      0.886600
      8 O6          0.1100    1.0760   -5.3350 o         1 TNA     -0.877300
      9 O5          0.1960   -1.1370   -5.1570 o         1 TNA     -0.877300
     10 N3          2.5090    1.2080   -3.6790 n3        1 TNA     -0.810200
     11 C7          3.6120    0.9050   -4.5840 c3        1 TNA      0.164800
     12 C6          4.5750    2.0830   -4.7630 c3        1 TNA     -0.054400
     13 C4          5.6790    1.8370   -5.8040 c3        1 TNA      0.051500
     14 C5          6.2540    3.2350   -6.2020 c         1 TNA      0.885600
     15 O3          5.8630    3.7600   -7.2870 o         1 TNA     -0.870300
     16 O4          7.0930    3.7960   -5.4350 o         1 TNA     -0.870300
     17 N2          6.7060    0.9000   -5.3380 n3        1 TNA     -0.800200
     18 C3          7.6110    0.4900   -6.4050 c3        1 TNA      0.157800
     19 C2          8.8200   -0.3160   -5.9200 c3        1 TNA     -0.093400
     20 C1          9.6260   -0.9150   -7.0850 c3        1 TNA      0.042500
     21 N1          8.9450   -1.9630   -7.8330 n3        1 TNA     -0.910800
     22 C          11.0060   -1.4040   -6.5430 c         1 TNA      0.909600
     23 O2         11.9790   -0.5960   -6.5670 o         1 TNA     -0.869300
     24 O1         11.1180   -2.5970   -6.1250 o         1 TNA     -0.869300
     25 H10         1.8910   -0.9190   -1.0470 hc        1 TNA      0.023700
     26 H10A        2.1080    0.8660   -0.8410 hc        1 TNA      0.023700
     27 H9          0.1660    1.3200   -2.2970 hc        1 TNA      0.032700
     28 H9A        -0.2050   -0.4450   -2.4100 hc        1 TNA      0.032700
     29 H8          2.0670   -0.8380   -3.4740 h1        1 TNA      0.037700
     30 HN3         2.0350    2.0330   -4.0080 hn        1 TNA      0.348800
     31 H7          3.2470    0.5850   -5.6040 h1        1 TNA      0.023200
     32 H7A         4.1810    0.0360   -4.1480 h1        1 TNA      0.023200
     33 H6          4.0000    2.9810   -5.1160 hc        1 TNA      0.035700
     34 H6A         5.0380    2.3480   -3.7780 hc        1 TNA      0.035700
     35 H4          5.2010    1.3910   -6.7230 h1        1 TNA      0.044700
     36 HN2         7.2370    1.3600   -4.6170 hn        1 TNA      0.348800
     37 H3          7.0010   -0.1350   -7.1170 h1        1 TNA      0.021700
     38 H3A         7.9960    1.3750   -6.9950 h1        1 TNA      0.021700
     39 H2          8.4910   -1.1360   -5.2310 hc        1 TNA      0.041200
     40 H2A         9.5060    0.3560   -5.3420 hc        1 TNA      0.041200
     41 H1          9.8320   -0.0830   -7.8200 h1        1 TNA      0.045700
     42 HN1         9.2570   -2.8560   -7.4910 hn        1 TNA      0.330300
     43 HN1A        7.9560   -1.9080   -7.6690 hn        1 TNA      0.330300
@<TRIPOS>BOND
     1    1    2 1   
     2    2    3 1   
     3    2    4 1   
     4    4    5 1   
     5    4   25 1   
     6    4   26 1   
     7    5    6 1   
     8    5   27 1   
     9    5   28 1   
    10    6    7 1   
    11    6   10 1   
    12    6   29 1   
    13    7    8 1   
    14    7    9 1   
    15   10   11 1   
    16   10   30 1   
    17   11   12 1   
    18   11   31 1   
    19   11   32 1   
    20   12   13 1   
    21   12   33 1   
    22   12   34 1   
    23   13   14 1   
    24   13   17 1   
    25   13   35 1   
    26   14   15 1   
    27   14   16 1   
    28   17   18 1   
    29   17   36 1   
    30   18   19 1   
    31   18   37 1   
    32   18   38 1   
    33   19   20 1   
    34   19   39 1   
    35   19   40 1   
    36   20   21 1   
    37   20   22 1   
    38   20   41 1   
    39   21   42 1   
    40   21   43 1   
    41   22   23 1   
    42   22   24 1   
@<TRIPOS>SUBSTRUCTURE
     1 TNA         1 TEMP              0 ****  ****    0 ROOT
