@<TRIPOS>MOLECULE
TNA
   43    42     1     0     0
SMALL
bcc


@<TRIPOS>ATOM
      1 O8         -6.8510   -1.0550    2.0230 o         1 TNA     -0.895800
      2 C12        -6.0670   -1.8770    1.4550 c         1 TNA      0.900600
      3 O7         -6.3890   -3.1050    1.3380 o         1 TNA     -0.895800
      4 C10        -4.6930   -1.4230    0.9560 c3        1 TNA     -0.167400
      5 C9         -4.7640   -0.4040   -0.1590 c3        1 TNA     -0.036400
      6 C8         -3.4020   -0.0680   -0.8010 c3        1 TNA      0.057500
      7 C11        -3.7180    0.6540   -2.1480 c         1 TNA      0.886600
      8 O6         -3.9200    1.9060   -2.1530 o         1 TNA     -0.877300
      9 O5         -3.7830   -0.0460   -3.2040 o         1 TNA     -0.877300
     10 N3         -2.5300    0.6830    0.1020 n3        1 TNA     -0.810200
     11 C7         -1.1220    0.6750   -0.2780 c3        1 TNA      0.164800
     12 C6         -0.2570    1.5560    0.6300 c3        1 TNA     -0.054400
     13 C4          1.2100    1.6680    0.1820 c3        1 TNA      0.051500
     14 C5          1.8130    2.9220    0.8920 c         1 TNA      0.885600
     15 O3          1.9170    3.9970    0.2300 o         1 TNA     -0.870300
     16 O4          2.1820    2.8260    2.1010 o         1 TNA     -0.870300
     17 N2          1.9760    0.4420    0.4230 n3        1 TNA     -0.800200
     18 C3          3.2870    0.4690   -0.2140 c3        1 TNA      0.157800
     19 C2          4.1980   -0.6950    0.1880 c3        1 TNA     -0.093400
     20 C1          5.4760   -0.7550   -0.6650 c3        1 TNA      0.042500
     21 N1          5.2710   -1.1050   -2.0640 n3        1 TNA     -0.910800
     22 C           6.4960   -1.7180    0.0210 c         1 TNA      0.909600
     23 O2          7.3230   -1.2270    0.8430 o         1 TNA     -0.869300
     24 O1          6.4830   -2.9500   -0.2830 o         1 TNA     -0.869300
     25 H10        -4.1370   -0.9860    1.8250 hc        1 TNA      0.023700
     26 H10A       -4.1260   -2.3230    0.6050 hc        1 TNA      0.023700
     27 H9         -5.4150   -0.8060   -0.9810 hc        1 TNA      0.032700
     28 H9A        -5.2460    0.5320    0.2230 hc        1 TNA      0.032700
     29 H8         -2.8870   -1.0400   -1.0520 h1        1 TNA      0.037700
     30 HN3        -2.8570    1.6350    0.1230 hn        1 TNA      0.348800
     31 H7         -0.7550   -0.3870   -0.2060 h1        1 TNA      0.023200
     32 H7A        -0.9700    1.0080   -1.3470 h1        1 TNA      0.023200
     33 H6         -0.6680    2.6020    0.6320 hc        1 TNA      0.035700
     34 H6A        -0.3020    1.1760    1.6820 hc        1 TNA      0.035700
     35 H4          1.2230    1.8650   -0.9280 h1        1 TNA      0.044700
     36 HN2         2.0980    0.3460    1.4180 hn        1 TNA      0.348800
     37 H3          3.1000    0.4380   -1.3240 h1        1 TNA      0.021700
     38 H3A         3.8390    1.4330   -0.0020 h1        1 TNA      0.021700
     39 H2          4.5090   -0.5710    1.2580 hc        1 TNA      0.041200
     40 H2A         3.6490   -1.6680    0.1060 hc        1 TNA      0.041200
     41 H1          5.9370    0.2770   -0.6620 h1        1 TNA      0.045700
     42 HN1         5.4520   -2.0880   -2.1790 hn        1 TNA      0.330300
     43 HN1A        4.3120   -0.9460   -2.3150 hn        1 TNA      0.330300
@<TRIPOS>BOND
     1    1    2 1   
     2    2    3 1   
     3    2    4 1   
     4    4    5 1   
     5    4   25 1   
     6    4   26 1   
     7    5    6 1   
     8    5   27 1   
     9    5   28 1   
    10    6    7 1   
    11    6   10 1   
    12    6   29 1   
    13    7    8 1   
    14    7    9 1   
    15   10   11 1   
    16   10   30 1   
    17   11   12 1   
    18   11   31 1   
    19   11   32 1   
    20   12   13 1   
    21   12   33 1   
    22   12   34 1   
    23   13   14 1   
    24   13   17 1   
    25   13   35 1   
    26   14   15 1   
    27   14   16 1   
    28   17   18 1   
    29   17   36 1   
    30   18   19 1   
    31   18   37 1   
    32   18   38 1   
    33   19   20 1   
    34   19   39 1   
    35   19   40 1   
    36   20   21 1   
    37   20   22 1   
    38   20   41 1   
    39   21   42 1   
    40   21   43 1   
    41   22   23 1   
    42   22   24 1   
@<TRIPOS>SUBSTRUCTURE
     1 TNA         1 TEMP              0 ****  ****    0 ROOT
