@<TRIPOS>MOLECULE
TNB
   29    29     1     0     0
SMALL
bcc


@<TRIPOS>ATOM
      1 CA          0.2360    3.5540   -0.2730 c3        1 TNB     -0.000500
      2 C           0.3680    5.0380   -0.8260 c         1 TNB      0.910600
      3 O          -0.6150    5.4840   -1.4670 o         1 TNB     -0.804800
      4 OXT         1.4330    5.6450   -0.5510 o         1 TNB     -0.804800
      5 N          -0.9010    2.8090   -0.7830 n3        1 TNB     -0.889800
      6 CB          1.5650    2.8490   -0.5020 c3        1 TNB     -0.064300
      7 SG          1.6410    1.7750    0.8910 ss        1 TNB      0.149000
      8 C1          3.1500    1.3010    1.2700 ca        1 TNB      0.074900
      9 C2          4.3640    1.4800    0.5330 ca        1 TNB     -0.251200
     10 C3          5.6220    1.4580    1.1400 ca        1 TNB      0.052000
     11 C4          5.7310    1.0930    2.4880 ca        1 TNB     -0.279200
     12 C5          4.5880    0.6820    3.1990 ca        1 TNB      0.052000
     13 C6          3.3460    0.7300    2.5800 ca        1 TNB     -0.251200
     14 N2          4.3610    1.6330   -0.9450 no        1 TNB      0.321200
     15 N4          7.0480    1.0930    3.1520 no        1 TNB      0.332200
     16 N6          2.2010    0.1710    3.3540 no        1 TNB      0.321200
     17 O21         3.4870    1.1210   -1.5910 o         1 TNB     -0.202500
     18 O22         5.2820    2.2080   -1.4630 o         1 TNB     -0.202500
     19 O41         7.1220    0.7500    4.3040 o         1 TNB     -0.219000
     20 O42         8.0190    1.4300    2.5270 o         1 TNB     -0.219000
     21 O61         1.3280   -0.4260    2.7880 o         1 TNB     -0.202500
     22 O62         2.2200    0.2860    4.5520 o         1 TNB     -0.202500
     23 HA          0.0720    3.6830    0.8420 h1        1 TNB      0.062700
     24 H          -0.7930    2.6920   -1.7750 hn        1 TNB      0.346300
     25 H2         -1.7180    3.3820   -0.6490 hn        1 TNB      0.346300
     26 HB2         2.3850    3.6150   -0.4940 h1        1 TNB      0.116200
     27 HB3         1.5980    2.2970   -1.4730 h1        1 TNB      0.116200
     28 H3          6.5330    1.7110    0.5580 ha        1 TNB      0.196500
     29 H5          4.6890    0.3240    4.2440 ha        1 TNB      0.196500
@<TRIPOS>BOND
     1    1    2 1   
     2    1    5 1   
     3    1    6 1   
     4    1   23 1   
     5    2    3 1   
     6    2    4 1   
     7    5   24 1   
     8    5   25 1   
     9    6    7 1   
    10    6   26 1   
    11    6   27 1   
    12    7    8 1   
    13    8    9 ar  
    14    8   13 ar  
    15    9   10 ar  
    16    9   14 1   
    17   10   11 ar  
    18   10   28 1   
    19   11   12 ar  
    20   11   15 1   
    21   12   13 ar  
    22   12   29 1   
    23   13   16 1   
    24   14   17 1   
    25   14   18 1   
    26   15   19 1   
    27   15   20 1   
    28   16   21 1   
    29   16   22 1   
@<TRIPOS>SUBSTRUCTURE
     1 TNB         1 TEMP              0 ****  ****    0 ROOT
