@<TRIPOS>MOLECULE
TNC
   51    54     1     0     0
SMALL
bcc


@<TRIPOS>ATOM
      1 C2          0.0390    0.2010    0.1980 ca        1 TNC      0.057000
      2 C1          1.4330    0.4020    0.1550 ca        1 TNC     -0.163000
      3 C6          2.1490    0.6240    1.3180 ca        1 TNC     -0.016000
      4 C5          1.4950    0.6400    2.5580 ca        1 TNC     -0.203000
      5 C4          0.1190    0.4460    2.6180 ca        1 TNC      0.180100
      6 C3         -0.6620    0.2410    1.4380 ca        1 TNC     -0.153000
      7 O1         -0.5470    0.4220    3.8160 oh        1 TNC     -0.532100
      8 C8         -2.0290   -0.2730   -1.0020 ca        1 TNC     -0.024300
      9 C7         -0.6830   -0.0540   -1.0110 ca        1 TNC     -0.131000
     10 C10        -2.0800    0.0610    1.4190 ca        1 TNC      0.319100
     11 C9         -2.7720   -0.2320    0.2230 ca        1 TNC     -0.273800
     12 O2         -2.8770    0.1840    2.5100 oh        1 TNC     -0.523100
     13 C12        -4.1530   -0.0300   -2.3230 c3        1 TNC      0.019500
     14 C11        -2.7460   -0.6150   -2.2610 c3        1 TNC     -0.051100
     15 C14        -4.1900   -0.4390    0.1550 ce        1 TNC      0.429900
     16 C13        -4.9100   -0.2790   -1.0600 cf        1 TNC     -0.338200
     17 O3         -4.9440   -0.7750    1.2100 oh        1 TNC     -0.421100
     18 C15        -4.9640   -0.6580   -3.4860 c3        1 TNC      0.027500
     19 C16        -6.3510   -0.0030   -3.5430 c         1 TNC      0.625300
     20 C17        -7.0420    0.0610   -2.2860 ce        1 TNC     -0.519400
     21 C18        -6.3180   -0.2450   -1.0840 cf        1 TNC      0.397100
     22 O4         -6.9110   -0.4810    0.0990 oh        1 TNC     -0.427100
     23 C19        -8.4150    0.4540   -2.1910 c         1 TNC      0.594300
     24 O5         -6.8310    0.3730   -4.6310 o         1 TNC     -0.634100
     25 N2         -9.1090    0.9880   -3.4220 nz        1 TNC     -0.735400
     26 O6         -9.1560    0.4340   -1.2030 o         1 TNC     -0.504100
     27 N1         -4.2240   -0.6580   -4.8010 nx        1 TNC     -0.663400
     28 C20        -3.9860    0.7060   -5.3430 c3        1 TNC      0.076100
     29 C21        -4.9040   -1.5140   -5.8130 c3        1 TNC      0.076100
     30 HC1         1.9500    0.3760   -0.8170 ha        1 TNC      0.162000
     31 HC6         3.2410    0.7830    1.2800 ha        1 TNC      0.173000
     32 HC5         2.0750    0.8000    3.4810 ha        1 TNC      0.171000
     33 HO1         0.0810    0.5850    4.5400 ho        1 TNC      0.472000
     34 HC7        -0.1070   -0.0810   -1.9510 ha        1 TNC      0.155000
     35 HO2        -2.4060    0.5090    3.2970 ho        1 TNC      0.504000
     36 HC12       -4.0790    1.0850   -2.4870 hc        1 TNC      0.086700
     37 H111       -2.7950   -1.7370   -2.3400 hc        1 TNC      0.062200
     38 H112       -2.1370   -0.2270   -3.1240 hc        1 TNC      0.062200
     39 HO3        -4.4180   -0.9460    2.0170 ho        1 TNC      0.492000
     40 HC15       -5.1400   -1.7540   -3.2350 hx        1 TNC      0.129700
     41 HO4        -7.8870   -0.4670    0.0520 ho        1 TNC      0.486000
     42 HN21       -8.6200    1.8260   -3.7560 hn        1 TNC      0.474133
     43 HN22      -10.0860    1.2160   -3.1960 hn        1 TNC      0.474133
     44 H201       -4.9680    1.1910   -5.5980 hx        1 TNC      0.113367
     45 H202       -3.3620    0.6230   -6.2750 hx        1 TNC      0.113367
     46 H203       -3.4410    1.3220   -4.5790 hx        1 TNC      0.113367
     47 H211       -4.2580   -1.5700   -6.7310 hx        1 TNC      0.113367
     48 H212       -5.0530   -2.5450   -5.3950 hx        1 TNC      0.113367
     49 H213       -5.8980   -1.0630   -6.0840 hx        1 TNC      0.113367
     50 H23        -9.0730    0.2900   -4.1740 hn        1 TNC      0.474133
     51 H11        -3.3030   -1.0840   -4.6110 hn        1 TNC      0.450800
@<TRIPOS>BOND
     1    1    2 ar  
     2    1    6 ar  
     3    1    9 ar  
     4    2    3 ar  
     5    2   30 1   
     6    3    4 ar  
     7    3   31 1   
     8    4    5 ar  
     9    4   32 1   
    10    5    6 ar  
    11    5    7 1   
    12    6   10 ar  
    13    7   33 1   
    14    8    9 ar  
    15    8   11 ar  
    16    8   14 1   
    17    9   34 1   
    18   10   11 ar  
    19   10   12 1   
    20   11   15 1   
    21   12   35 1   
    22   13   14 1   
    23   13   16 1   
    24   13   18 1   
    25   13   36 1   
    26   14   37 1   
    27   14   38 1   
    28   15   16 2   
    29   15   17 1   
    30   16   21 1   
    31   17   39 1   
    32   18   19 1   
    33   18   27 1   
    34   18   40 1   
    35   19   20 1   
    36   19   24 2   
    37   20   21 2   
    38   20   23 1   
    39   21   22 1   
    40   22   41 1   
    41   23   25 1   
    42   23   26 2   
    43   25   42 1   
    44   25   43 1   
    45   25   50 1   
    46   27   28 1   
    47   27   29 1   
    48   27   51 1   
    49   28   44 1   
    50   28   45 1   
    51   28   46 1   
    52   29   47 1   
    53   29   48 1   
    54   29   49 1   
@<TRIPOS>SUBSTRUCTURE
     1 TNC         1 TEMP              0 ****  ****    0 ROOT
