@<TRIPOS>MOLECULE
TNC
   49    52     1     0     0
SMALL
bcc


@<TRIPOS>ATOM
      1 C2         32.7680   26.6330   -6.2050 ca        1 TNC      0.038000
      2 C1         33.5900   25.7010   -6.8840 ca        1 TNC     -0.173000
      3 C6         34.6230   26.1340   -7.6860 ca        1 TNC     -0.069000
      4 C5         34.8900   27.5040   -7.8240 ca        1 TNC     -0.186000
      5 C4         34.1000   28.4400   -7.1610 ca        1 TNC      0.177100
      6 C3         33.0000   28.0270   -6.3470 ca        1 TNC     -0.130000
      7 O1         34.4450   29.7470   -7.3960 oh        1 TNC     -0.501100
      8 C8         30.8800   27.0520   -4.7250 ca        1 TNC     -0.010300
      9 C7         31.6960   26.1730   -5.3880 ca        1 TNC     -0.164000
     10 C10        32.1040   28.9280   -5.6720 ca        1 TNC      0.232100
     11 C9         31.0840   28.4600   -4.8480 ca        1 TNC     -0.200800
     12 O2         32.3330   30.2520   -5.9260 oh        1 TNC     -0.519100
     13 C12        28.5550   27.4640   -3.8830 c3        1 TNC      0.019500
     14 C11        29.7840   26.5620   -3.8490 c3        1 TNC     -0.037100
     15 C14        30.1740   29.3220   -4.0920 ce        1 TNC      0.277900
     16 C13        28.9310   28.9040   -3.6910 cf        1 TNC     -0.268200
     17 O3         30.7150   30.5540   -3.8550 oh        1 TNC     -0.523100
     18 C15        27.5630   27.0190   -2.7790 c3        1 TNC      0.097500
     19 C16        26.3340   27.9310   -2.8480 c         1 TNC      0.580300
     20 C17        26.6420   29.3600   -2.8090 ce        1 TNC     -0.418400
     21 C18        27.9010   29.7880   -3.1670 cf        1 TNC      0.323100
     22 O4         28.2830   31.0950   -3.1550 oh        1 TNC     -0.544100
     23 C19        25.6190   30.3310   -2.3530 c         1 TNC      0.691300
     24 O5         25.1830   27.4710   -2.8880 o         1 TNC     -0.571100
     25 N2         24.2890   30.0840   -2.5480 n         1 TNC     -0.640000
     26 O6         25.9560   31.4200   -1.8130 o         1 TNC     -0.687100
     27 N1         27.3050   25.5830   -2.7820 n3        1 TNC     -0.727600
     28 C20        26.6490   25.0840   -3.9710 c3        1 TNC      0.149100
     29 C21        26.6690   25.1280   -1.5620 c3        1 TNC      0.149100
     30 HC1        33.3860   24.6280   -6.7600 ha        1 TNC      0.139000
     31 HC6        35.2560   25.4090   -8.2200 ha        1 TNC      0.138000
     32 HC5        35.7210   27.8520   -8.4540 ha        1 TNC      0.155000
     33 HO1        34.1800   30.2990   -6.6470 ho        1 TNC      0.444000
     34 HC7        31.5370   25.0870   -5.3000 ha        1 TNC      0.144000
     35 HO2        31.5910   30.7980   -5.6280 ho        1 TNC      0.461000
     36 HC12       28.0540   27.3640   -4.8880 hc        1 TNC      0.068700
     37 H111       30.1700   26.4960   -2.7940 hc        1 TNC      0.074200
     38 H112       29.4910   25.5240   -4.1620 hc        1 TNC      0.074200
     39 HO3        30.2260   31.0350   -3.1700 ho        1 TNC      0.468000
     40 HC15       28.0550   27.2470   -1.7810 h1        1 TNC      0.083700
     41 HO4        27.6040   31.6750   -2.7570 ho        1 TNC      0.494000
     42 HN21       23.6310   30.7170   -2.1620 hn        1 TNC      0.325000
     43 HN22       23.9730   29.2010   -2.8700 hn        1 TNC      0.325000
     44 H201       27.2550   25.3650   -4.8720 h1        1 TNC      0.039700
     45 H202       26.6060   23.9640   -3.9070 h1        1 TNC      0.039700
     46 H203       25.6040   25.4770   -4.1010 h1        1 TNC      0.039700
     47 H211       27.2970   25.4310   -0.6840 h1        1 TNC      0.039700
     48 H212       25.6320   25.5390   -1.4250 h1        1 TNC      0.039700
     49 H213       26.6110   24.0080   -1.5900 h1        1 TNC      0.039700
@<TRIPOS>BOND
     1    1    2 ar  
     2    1    6 ar  
     3    1    9 ar  
     4    2    3 ar  
     5    2   30 1   
     6    3    4 ar  
     7    3   31 1   
     8    4    5 ar  
     9    4   32 1   
    10    5    6 ar  
    11    5    7 1   
    12    6   10 ar  
    13    7   33 1   
    14    8    9 ar  
    15    8   11 ar  
    16    8   14 1   
    17    9   34 1   
    18   10   11 ar  
    19   10   12 1   
    20   11   15 1   
    21   12   35 1   
    22   13   14 1   
    23   13   16 1   
    24   13   18 1   
    25   13   36 1   
    26   14   37 1   
    27   14   38 1   
    28   15   16 2   
    29   15   17 1   
    30   16   21 1   
    31   17   39 1   
    32   18   19 1   
    33   18   27 1   
    34   18   40 1   
    35   19   20 1   
    36   19   24 2   
    37   20   21 2   
    38   20   23 1   
    39   21   22 1   
    40   22   41 1   
    41   23   25 1   
    42   23   26 2   
    43   25   42 1   
    44   25   43 1   
    45   27   28 1   
    46   27   29 1   
    47   28   44 1   
    48   28   45 1   
    49   28   46 1   
    50   29   47 1   
    51   29   48 1   
    52   29   49 1   
@<TRIPOS>SUBSTRUCTURE
     1 TNC         1 TEMP              0 ****  ****    0 ROOT
