@<TRIPOS>MOLECULE
TNC
   51    54     1     0     0
SMALL
bcc


@<TRIPOS>ATOM
      1 C2          0.0430    0.2230    0.1760 ca        1 TNC      0.057000
      2 C1          1.4340    0.4390    0.1240 ca        1 TNC     -0.163000
      3 C6          2.1530    0.6820    1.2820 ca        1 TNC     -0.016000
      4 C5          1.5040    0.7060    2.5240 ca        1 TNC     -0.203000
      5 C4          0.1300    0.4970    2.5920 ca        1 TNC      0.180100
      6 C3         -0.6530    0.2700    1.4190 ca        1 TNC     -0.153000
      7 O1         -0.5300    0.4790    3.7940 oh        1 TNC     -0.532100
      8 C8         -2.0250   -0.2880   -1.0100 ca        1 TNC     -0.024300
      9 C7         -0.6820   -0.0550   -1.0270 ca        1 TNC     -0.131000
     10 C10        -2.0700    0.0730    1.4080 ca        1 TNC      0.319100
     11 C9         -2.7640   -0.2410    0.2190 ca        1 TNC     -0.273800
     12 O2         -2.8630    0.2000    2.5010 oh        1 TNC     -0.523100
     13 C12        -4.1580   -0.0840   -2.3240 c3        1 TNC      0.019500
     14 C11        -2.7440   -0.6520   -2.2610 c3        1 TNC     -0.051100
     15 C14        -4.1790   -0.4650    0.1590 ce        1 TNC      0.429900
     16 C13        -4.9060   -0.3270   -1.0550 cf        1 TNC     -0.338200
     17 O3         -4.9240   -0.7970    1.2220 oh        1 TNC     -0.421100
     18 C15        -4.9670   -0.7350   -3.4760 c3        1 TNC      0.027500
     19 C16        -6.3610   -0.0960   -3.5330 c         1 TNC      0.625300
     20 C17        -7.0470   -0.0250   -2.2750 ce        1 TNC     -0.519400
     21 C18        -6.3140   -0.3090   -1.0720 cf        1 TNC      0.397100
     22 O4         -6.9000   -0.5370    0.1160 oh        1 TNC     -0.427100
     23 C19        -8.4240    0.3540   -2.1780 c         1 TNC      0.594300
     24 O5         -6.8500    0.2630   -4.6230 o         1 TNC     -0.634100
     25 N2         -9.1290    0.8660   -3.4120 n4        1 TNC     -0.735400
     26 O6         -9.1600    0.3380   -1.1870 o         1 TNC     -0.504100
     27 N1         -4.2320   -0.7410   -4.7930 n4        1 TNC     -0.663400
     28 C20        -4.0120    0.6190   -5.3530 c3        1 TNC      0.076100
     29 C21        -4.9070   -1.6160   -5.7920 c3        1 TNC      0.076100
     30 HC1         1.9470    0.4070   -0.8500 ha        1 TNC      0.162000
     31 HC6         3.2430    0.8530    1.2370 ha        1 TNC      0.173000
     32 HC5         2.0860    0.8830    3.4430 ha        1 TNC      0.171000
     33 HO1         0.1000    0.6580    4.5130 ho        1 TNC      0.472000
     34 HC7        -0.1090   -0.0860   -1.9690 ha        1 TNC      0.155000
     35 HO2        -2.3920    0.5400    3.2820 ho        1 TNC      0.504000
     36 HC12       -4.0960    1.0300   -2.5010 hc        1 TNC      0.086700
     37 H111       -2.1430   -0.2680   -3.1310 hc        1 TNC      0.062200
     38 H112       -2.7810   -1.7760   -2.3270 hc        1 TNC      0.062200
     39 HO3        -4.3930   -0.9530    2.0270 ho        1 TNC      0.492000
     40 HC15       -5.1290   -1.8290   -3.2110 hx        1 TNC      0.129700
     41 HO4        -7.8760   -0.5340    0.0730 ho        1 TNC      0.486000
     42 HN21      -10.1070    1.0870   -3.1840 hn        1 TNC      0.473800
     43 HN22       -9.0890    0.1590   -4.1560 hn        1 TNC      0.473800
     44 H201       -3.3910    0.5310   -6.2860 hx        1 TNC      0.113367
     45 H202       -5.0000    1.0900   -5.6080 hx        1 TNC      0.113367
     46 H203       -3.4710    1.2500   -4.5980 hx        1 TNC      0.113367
     47 H211       -5.0420   -2.6440   -5.3620 hx        1 TNC      0.113367
     48 H212       -5.9070   -1.1800   -6.0640 hx        1 TNC      0.113367
     49 H213       -4.2650   -1.6760   -6.7130 hx        1 TNC      0.113367
     50 H23        -8.6510    1.7050   -3.7580 hn        1 TNC      0.473800
     51 H11        -3.3060   -1.1550   -4.6020 hn        1 TNC      0.450800
@<TRIPOS>BOND
     1    1    2 ar  
     2    1    6 ar  
     3    1    9 ar  
     4    2    3 ar  
     5    2   30 1   
     6    3    4 ar  
     7    3   31 1   
     8    4    5 ar  
     9    4   32 1   
    10    5    6 ar  
    11    5    7 1   
    12    6   10 ar  
    13    7   33 1   
    14    8    9 ar  
    15    8   11 ar  
    16    8   14 1   
    17    9   34 1   
    18   10   11 ar  
    19   10   12 1   
    20   11   15 1   
    21   12   35 1   
    22   13   14 1   
    23   13   16 1   
    24   13   18 1   
    25   13   36 1   
    26   14   37 1   
    27   14   38 1   
    28   15   16 2   
    29   15   17 1   
    30   16   21 1   
    31   17   39 1   
    32   18   19 1   
    33   18   27 1   
    34   18   40 1   
    35   19   20 1   
    36   19   24 2   
    37   20   21 2   
    38   20   23 1   
    39   21   22 1   
    40   22   41 1   
    41   23   25 1   
    42   23   26 2   
    43   25   42 1   
    44   25   43 1   
    45   25   50 1   
    46   27   28 1   
    47   27   29 1   
    48   27   51 1   
    49   28   44 1   
    50   28   45 1   
    51   28   46 1   
    52   29   47 1   
    53   29   48 1   
    54   29   49 1   
@<TRIPOS>SUBSTRUCTURE
     1 TNC         1 TEMP              0 ****  ****    0 ROOT
