@<TRIPOS>MOLECULE
TNC
   49    47     1     0     0
SMALL
bcc


@<TRIPOS>ATOM
      1 C2          1.3100    3.6450    0.1640 cg        1 TNC      0.042000
      2 C1          2.6840    3.9650    0.1740 c1        1 TNC     -0.058500
      3 C6          3.3040    4.3230    1.3650 c1        1 TNC     -0.058500
      4 C5          2.5390    4.3680    2.6000 c1        1 TNC     -0.176500
      5 C4          1.1980    4.0570    2.5920 c1        1 TNC      0.140600
      6 C3          0.5600    3.6900    1.3770 cg        1 TNC     -0.128000
      7 O1          0.8360    3.8530    3.9690 oh        1 TNC     -0.506600
      8 C8         -0.2780    2.0770   -0.7860 c1        1 TNC      0.036900
      9 C7          0.8720    2.8280   -0.9110 c1        1 TNC     -0.121500
     10 C10        -0.6430    2.9050    1.5110 c1        1 TNC      0.218600
     11 C9         -1.0630    2.1200    0.4760 cg        1 TNC     -0.175300
     12 O2         -1.3820    2.9270    2.7250 oh        1 TNC     -0.449600
     13 C12        -1.1650   -0.4490   -1.1330 c3        1 TNC      0.014500
     14 C11        -0.2560    0.7440   -1.6270 c3        1 TNC     -0.082300
     15 C14        -1.7740    0.8010    0.9820 ce        1 TNC      0.303400
     16 C13        -1.4320   -0.5110    0.2960 cf        1 TNC     -0.287200
     17 O3         -2.4470    0.7920    2.2660 oh        1 TNC     -0.463100
     18 C15        -0.5580   -1.8520   -1.8440 c3        1 TNC      0.094500
     19 C16         0.5510   -2.3390   -1.2060 c         1 TNC      0.615300
     20 C17         0.5520   -2.3640    0.3430 ce        1 TNC     -0.420400
     21 C18        -0.6340   -1.5700    1.1070 cf        1 TNC      0.341100
     22 O4         -1.1370   -2.0610    2.3180 oh        1 TNC     -0.527100
     23 C19         1.3740   -3.3880    1.0880 c         1 TNC      0.700300
     24 O5          1.3760   -2.8990   -1.8050 o         1 TNC     -0.567100
     25 N2          2.1640   -4.3550    0.3620 n         1 TNC     -0.652000
     26 O6          1.3840   -3.3880    2.3450 o         1 TNC     -0.689100
     27 N1         -1.6070   -2.9040   -1.9650 n3        1 TNC     -0.722600
     28 C20        -2.6280   -2.4740   -2.9220 c3        1 TNC      0.147600
     29 C21        -0.9640   -4.1670   -2.4680 c3        1 TNC      0.147600
     30 HC1         3.2280    3.9300   -0.7010 ha        1 TNC      0.082500
     31 HC6         4.3120    4.5570    1.3740 ha        1 TNC      0.082500
     32 HC5         3.0010    4.6370    3.4870 ha        1 TNC      0.081500
     33 HO1         0.9820    4.5880    4.4220 ho        1 TNC      0.438000
     34 HC7         1.3430    2.8140   -1.6980 ha        1 TNC      0.084500
     35 HO2        -1.9120    3.5870    2.7220 ho        1 TNC      0.445000
     36 HC12       -1.9950   -0.3090   -1.5300 hc        1 TNC      0.080700
     37 H111        0.7400    0.3970   -1.6540 hc        1 TNC      0.063700
     38 H112       -0.5350    0.9770   -2.5860 hc        1 TNC      0.063700
     39 HO3        -3.1770    0.4740    2.1830 ho        1 TNC      0.446000
     40 HC15       -0.3560   -1.6870   -2.7890 h1        1 TNC      0.051700
     41 HO4        -1.9360   -2.4810    2.1710 ho        1 TNC      0.492000
     42 HN21        2.5730   -5.0240    0.8050 hn        1 TNC      0.322500
     43 HN22        2.2550   -4.2860   -0.4620 hn        1 TNC      0.322500
     44 H201       -3.0900   -3.2890   -3.3090 h1        1 TNC      0.037700
     45 H202       -2.2160   -1.9830   -3.6220 h1        1 TNC      0.037700
     46 H203       -3.2980   -1.9000   -2.4630 h1        1 TNC      0.037700
     47 H211       -0.3810   -3.9710   -3.0590 h1        1 TNC      0.037700
     48 H212       -1.7160   -4.8090   -2.9050 h1        1 TNC      0.037700
     49 H213       -0.5580   -4.5960   -1.7760 h1        1 TNC      0.037700
@<TRIPOS>BOND
     1    1    6 1   
     2    1    9 3   
     3    2    3 3   
     4    2   30 1   
     5    3   31 1   
     6    4    5 3   
     7    4   32 1   
     8    5    7 1   
     9    6   10 3   
    10    7   33 1   
    11    8   11 3   
    12    8   14 1   
    13    9   34 1   
    14   10   12 1   
    15   11   15 1   
    16   12   35 1   
    17   13   14 1   
    18   13   16 1   
    19   13   18 1   
    20   13   36 1   
    21   14   37 1   
    22   14   38 1   
    23   15   16 2   
    24   15   17 1   
    25   16   21 1   
    26   17   39 1   
    27   18   19 1   
    28   18   27 1   
    29   18   40 1   
    30   19   20 1   
    31   19   24 2   
    32   20   21 2   
    33   20   23 1   
    34   21   22 1   
    35   22   41 1   
    36   23   25 1   
    37   23   26 2   
    38   25   42 1   
    39   25   43 1   
    40   27   28 1   
    41   27   29 1   
    42   28   44 1   
    43   28   45 1   
    44   28   46 1   
    45   29   47 1   
    46   29   48 1   
    47   29   49 1   
@<TRIPOS>SUBSTRUCTURE
     1 TNC         1 TEMP              0 ****  ****    0 ROOT
