@<TRIPOS>MOLECULE
TNC
   51    54     1     0     0
SMALL
bcc


@<TRIPOS>ATOM
      1 C2          0.0400    0.3410    0.1720 ca        1 TNC      0.059000
      2 C1          1.3930    0.7190    0.1230 ca        1 TNC     -0.164000
      3 C6          2.1190    0.9010    1.2900 ca        1 TNC     -0.012000
      4 C5          1.5090    0.7100    2.5340 ca        1 TNC     -0.208000
      5 C4          0.1680    0.3380    2.6000 ca        1 TNC      0.191100
      6 C3         -0.6150    0.1410    1.4220 ca        1 TNC     -0.169000
      7 O1         -0.4560    0.1500    3.8050 oh        1 TNC     -0.529100
      8 C8         -1.9970   -0.2100   -1.0470 ca        1 TNC     -0.027300
      9 C7         -0.6820    0.1370   -1.0520 ca        1 TNC     -0.131000
     10 C10        -1.9980   -0.2380    1.4120 ca        1 TNC      0.354100
     11 C9         -2.7080   -0.3660    0.1880 ca        1 TNC     -0.248800
     12 O2         -2.7480   -0.4700    2.5050 oh        1 TNC     -0.450100
     13 C12        -4.1640   -0.0780   -2.3050 c3        1 TNC      0.018500
     14 C11        -2.7150   -0.5420   -2.3060 c3        1 TNC     -0.050100
     15 C14        -4.1090   -0.6380    0.1470 ce        1 TNC      0.427900
     16 C13        -4.8840   -0.3970   -1.0290 cf        1 TNC     -0.361200
     17 O3         -4.6050   -1.0920    1.3050 oh        1 TNC     -0.409100
     18 C15        -4.9710   -0.7310   -3.4570 c3        1 TNC      0.026500
     19 C16        -6.3590   -0.0780   -3.5030 c         1 TNC      0.623300
     20 C17        -7.0110    0.0520   -2.2310 ce        1 TNC     -0.512400
     21 C18        -6.2770   -0.2720   -1.0370 cf        1 TNC      0.375100
     22 O4         -6.8840   -0.4390    0.1610 oh        1 TNC     -0.505100
     23 C19        -8.3600    0.5170   -2.1140 c         1 TNC      0.594300
     24 O5         -6.8670    0.2560   -4.5920 o         1 TNC     -0.634100
     25 N2         -9.0600    1.0500   -3.3410 n4        1 TNC     -0.734400
     26 O6         -9.0770    0.5600   -1.1090 o         1 TNC     -0.509100
     27 N1         -4.2460   -0.7390   -4.7800 n4        1 TNC     -0.663400
     28 C20        -4.0430    0.6200   -5.3480 c3        1 TNC      0.076100
     29 C21        -4.9210   -1.6260   -5.7680 c3        1 TNC      0.076100
     30 HC1         1.8780    0.8680   -0.8560 ha        1 TNC      0.161000
     31 HC6         3.1820    1.1980    1.2460 ha        1 TNC      0.172000
     32 HC5         2.0900    0.8550    3.4600 ha        1 TNC      0.171000
     33 HO1         0.1770    0.2970    4.5270 ho        1 TNC      0.473000
     34 HC7        -0.1240    0.2560   -1.9960 ha        1 TNC      0.155000
     35 HO2        -2.2610   -0.3560    3.3400 ho        1 TNC      0.490000
     36 HC12       -4.1780    1.0440   -2.4450 hc        1 TNC      0.086700
     37 H111       -2.6700   -1.6600   -2.4380 hc        1 TNC      0.061700
     38 H112       -2.1670   -0.0630   -3.1630 hc        1 TNC      0.061700
     39 HO3        -5.5470   -1.3360    1.2640 ho        1 TNC      0.479000
     40 HC15       -5.1370   -1.8250   -3.1930 hx        1 TNC      0.129700
     41 HO4        -7.8580   -0.4040    0.1180 ho        1 TNC      0.501000
     42 HN21       -9.0670    0.3340   -4.0790 hn        1 TNC      0.474467
     43 HN22      -10.0220    1.3210   -3.1000 hn        1 TNC      0.474467
     44 H201       -5.0360    1.0660   -5.6300 hx        1 TNC      0.113367
     45 H202       -3.4000    0.5370   -6.2670 hx        1 TNC      0.113367
     46 H203       -3.5340    1.2700   -4.5880 hx        1 TNC      0.113367
     47 H211       -5.0280   -2.6570   -5.3370 hx        1 TNC      0.113367
     48 H212       -4.2940   -1.6710   -6.7000 hx        1 TNC      0.113367
     49 H213       -5.9350   -1.2090   -6.0210 hx        1 TNC      0.113367
     50 H23        -8.5490    1.8610   -3.7050 hn        1 TNC      0.474467
     51 H11        -3.3140   -1.1420   -4.5940 hn        1 TNC      0.451800
@<TRIPOS>BOND
     1    1    2 ar  
     2    1    6 ar  
     3    1    9 ar  
     4    2    3 ar  
     5    2   30 1   
     6    3    4 ar  
     7    3   31 1   
     8    4    5 ar  
     9    4   32 1   
    10    5    6 ar  
    11    5    7 1   
    12    6   10 ar  
    13    7   33 1   
    14    8    9 ar  
    15    8   11 ar  
    16    8   14 1   
    17    9   34 1   
    18   10   11 ar  
    19   10   12 1   
    20   11   15 1   
    21   12   35 1   
    22   13   14 1   
    23   13   16 1   
    24   13   18 1   
    25   13   36 1   
    26   14   37 1   
    27   14   38 1   
    28   15   16 2   
    29   15   17 1   
    30   16   21 1   
    31   17   39 1   
    32   18   19 1   
    33   18   27 1   
    34   18   40 1   
    35   19   20 1   
    36   19   24 2   
    37   20   21 2   
    38   20   23 1   
    39   21   22 1   
    40   22   41 1   
    41   23   25 1   
    42   23   26 2   
    43   25   42 1   
    44   25   43 1   
    45   25   50 1   
    46   27   28 1   
    47   27   29 1   
    48   27   51 1   
    49   28   44 1   
    50   28   45 1   
    51   28   46 1   
    52   29   47 1   
    53   29   48 1   
    54   29   49 1   
@<TRIPOS>SUBSTRUCTURE
     1 TNC         1 TEMP              0 ****  ****    0 ROOT
