@<TRIPOS>MOLECULE
TND
   75    80     1     0     0
SMALL
bcc


@<TRIPOS>ATOM
      1 C5'         1.2940    0.1350    0.8800 c3        1 TND      0.113400
      2 C4'         2.6400    0.2740    0.1570 c3        1 TND      0.073100
      3 O4'         3.6670    0.5850    1.1170 os        1 TND     -0.382600
      4 C3'         3.0440   -1.0220   -0.5690 c3        1 TND      0.118100
      5 O3'         3.7090   -0.7400   -1.7840 oh        1 TND     -0.622800
      6 C2'         4.0520   -1.7000    0.4080 c3        1 TND      0.068500
      7 N2'         5.1680   -2.4270   -0.2490 n4        1 TND     -0.665800
      8 C1'         4.5420   -0.5170    1.3270 c3        1 TND      0.260800
      9 N9A         4.5500   -0.8630    2.7350 na        1 TND     -0.306000
     10 C8A         3.9800   -0.1380    3.8140 cc        1 TND      0.520700
     11 N7A         4.2600   -0.6570    5.0190 nd        1 TND     -0.555100
     12 C5A         5.0650   -1.7770    4.7620 ca        1 TND     -0.129200
     13 C6A         5.6900   -2.7490    5.5730 ca        1 TND      0.575200
     14 N6A         5.5320   -2.6820    7.0340 n4        1 TND     -0.766700
     15 N1A         6.4330   -3.7430    5.0220 nb        1 TND     -0.670000
     16 C2A         6.5480   -3.7670    3.6640 ca        1 TND      0.692900
     17 N3A         6.0100   -2.9140    2.7520 nb        1 TND     -0.708000
     18 C4A         5.2700   -1.9230    3.3080 ca        1 TND      0.443800
     19 C1          6.6330   -1.8430    7.7050 c3        1 TND      0.221800
     20 C9          6.1260   -1.4030    9.0450 ca        1 TND     -0.187300
     21 C8          4.9540   -0.6270    9.0970 ca        1 TND     -0.134000
     22 C7          4.4440   -0.2060   10.3190 ca        1 TND     -0.118000
     23 C6          5.1080   -0.5380   11.5040 ca        1 TND     -0.072000
     24 C2          7.9440   -2.6350    7.7360 c3        1 TND     -0.096400
     25 C10         6.8190   -1.6940   10.2290 ca        1 TND     -0.018300
     26 C5          6.2930   -1.2650   11.4560 ca        1 TND     -0.120000
     27 C3          8.8290   -2.1880    8.8790 c3        1 TND     -0.076400
     28 C4          8.1260   -2.4030   10.2020 c3        1 TND     -0.057100
     29 C7B         5.0140   -3.9520   -0.2740 c         1 TND      0.591700
     30 O7B         4.2920   -4.4360    0.5840 o         1 TND     -0.427100
     31 C6B         5.7510   -4.6220   -1.3490 ca        1 TND     -0.135600
     32 C5B         6.9110   -4.0740   -1.9110 ca        1 TND     -0.160500
     33 C4B         7.5630   -4.7800   -2.9380 ca        1 TND      0.188600
     34 O2M         8.6890   -4.1640   -3.4200 os        1 TND     -0.310900
     35 C2M         9.4000   -4.8330   -4.4650 c3        1 TND      0.104700
     36 C3B         7.0690   -6.0100   -3.4030 ca        1 TND     -0.225000
     37 C1B         5.2430   -5.8500   -1.7810 ca        1 TND     -0.160500
     38 C2B         5.9130   -6.5370   -2.8180 ca        1 TND      0.188600
     39 O1M         5.3300   -7.7240   -3.1720 os        1 TND     -0.310900
     40 C1M         5.9610   -8.4750   -4.2130 c3        1 TND      0.104700
     41 O5'         0.3400   -0.3700   -0.0250 oh        1 TND     -0.593800
     42 H5'1        0.9960    1.1230    1.3160 h1        1 TND      0.067200
     43 H5'2        1.3760   -0.6260    1.7020 h1        1 TND      0.067200
     44 H4'         2.6340    1.1500   -0.5510 h1        1 TND      0.121700
     45 H3'         2.1480   -1.6830   -0.7390 h1        1 TND      0.123700
     46 HO3'        3.0350   -0.5530   -2.4540 ho        1 TND      0.465000
     47 H2'         3.4640   -2.4460    1.0280 hx        1 TND      0.150700
     48 HN2'        6.0520   -2.2200    0.2310 hn        1 TND      0.478800
     49 H1'         5.5800   -0.1500    1.0510 h2        1 TND      0.109700
     50 H8A         3.3760    0.7690    3.6280 h5        1 TND      0.123800
     51 H6A         4.6170   -2.2540    7.2440 hn        1 TND      0.475300
     52 H2A         7.1660   -4.6030    3.2580 h5        1 TND      0.099100
     53 H1          6.7580   -0.9300    7.0460 hx        1 TND      0.107700
     54 H8          4.4460   -0.3150    8.1710 ha        1 TND      0.131000
     55 H7          3.5240    0.3990   10.3550 ha        1 TND      0.159000
     56 H6          4.7010   -0.2080   12.4750 ha        1 TND      0.165000
     57 H21         7.7530   -3.7370    7.8510 hc        1 TND      0.067700
     58 H22         8.4800   -2.4880    6.7610 hc        1 TND      0.067700
     59 H5          6.8340   -1.5000   12.3880 ha        1 TND      0.164000
     60 H31         9.7830   -2.7790    8.8550 hc        1 TND      0.074700
     61 H32         9.0990   -1.1060    8.7590 hc        1 TND      0.074700
     62 H41         7.9590   -3.5010   10.3800 hc        1 TND      0.079700
     63 H42         8.7800   -2.0310   11.0370 hc        1 TND      0.079700
     64 H5B         7.3630   -3.1340   -1.5710 ha        1 TND      0.163500
     65 H2M1        8.7530   -4.9420   -5.3680 h1        1 TND      0.066367
     66 H2M2        9.7700   -5.8250   -4.1110 h1        1 TND      0.066367
     67 H2M3       10.2550   -4.1370   -4.6680 h1        1 TND      0.066367
     68 H3B         7.5860   -6.5510   -4.2100 ha        1 TND      0.177000
     69 H1B         4.3390   -6.2940   -1.3340 ha        1 TND      0.163500
     70 H1M1        5.3020   -9.3780   -4.3010 h1        1 TND      0.066367
     71 H1M2        6.9960   -8.7660   -3.9110 h1        1 TND      0.066367
     72 H1M3        5.9670   -7.8920   -5.1650 h1        1 TND      0.066367
     73 HO5'       -0.1960    0.3670   -0.3460 ho        1 TND      0.434000
     74 H2'2        5.2530   -2.1040   -1.2300 hn        1 TND      0.478800
     75 H6A2        5.5530   -3.6300    7.4380 hn        1 TND      0.475300
@<TRIPOS>BOND
     1    1    2 1   
     2    1   41 1   
     3    1   42 1   
     4    1   43 1   
     5    2    3 1   
     6    2    4 1   
     7    2   44 1   
     8    3    8 1   
     9    4    5 1   
    10    4    6 1   
    11    4   45 1   
    12    5   46 1   
    13    6    7 1   
    14    6    8 1   
    15    6   47 1   
    16    7   29 1   
    17    7   48 1   
    18    7   74 1   
    19    8    9 1   
    20    8   49 1   
    21    9   10 1   
    22    9   18 1   
    23   10   11 2   
    24   10   50 1   
    25   11   12 1   
    26   12   13 ar  
    27   12   18 ar  
    28   13   14 1   
    29   13   15 ar  
    30   14   19 1   
    31   14   51 1   
    32   14   75 1   
    33   15   16 ar  
    34   16   17 ar  
    35   16   52 1   
    36   17   18 ar  
    37   19   20 1   
    38   19   24 1   
    39   19   53 1   
    40   20   21 ar  
    41   20   25 ar  
    42   21   22 ar  
    43   21   54 1   
    44   22   23 ar  
    45   22   55 1   
    46   23   26 ar  
    47   23   56 1   
    48   24   27 1   
    49   24   57 1   
    50   24   58 1   
    51   25   26 ar  
    52   25   28 1   
    53   26   59 1   
    54   27   28 1   
    55   27   60 1   
    56   27   61 1   
    57   28   62 1   
    58   28   63 1   
    59   29   30 2   
    60   29   31 1   
    61   31   32 ar  
    62   31   37 ar  
    63   32   33 ar  
    64   32   64 1   
    65   33   34 1   
    66   33   36 ar  
    67   34   35 1   
    68   35   65 1   
    69   35   66 1   
    70   35   67 1   
    71   36   38 ar  
    72   36   68 1   
    73   37   38 ar  
    74   37   69 1   
    75   38   39 1   
    76   39   40 1   
    77   40   70 1   
    78   40   71 1   
    79   40   72 1   
    80   41   73 1   
@<TRIPOS>SUBSTRUCTURE
     1 TND         1 TEMP              0 ****  ****    0 ROOT
