@<TRIPOS>MOLECULE
TND
   74    79     1     0     0
SMALL
bcc


@<TRIPOS>ATOM
      1 C5'        -0.1720   -0.9840    0.4560 c3        1 TND      0.123400
      2 C4'         1.2040   -0.5700   -0.0750 c3        1 TND      0.061100
      3 O4'         1.9690   -0.0420    1.0280 os        1 TND     -0.402600
      4 C3'         1.9800   -1.7440   -0.6970 c3        1 TND      0.114100
      5 O3'         2.6530   -1.3560   -1.8810 oh        1 TND     -0.621800
      6 C2'         3.0470   -2.0900    0.3750 c3        1 TND      0.075500
      7 N2'         4.3330   -2.6200   -0.1360 ny        1 TND     -0.685800
      8 C1'         3.2210   -0.7260    1.1510 c3        1 TND      0.272800
      9 N9A         3.5520   -0.9010    2.5360 na        1 TND     -0.311000
     10 C8A         2.9870   -0.2550    3.6760 cc        1 TND      0.440700
     11 N7A         3.6900   -0.4590    4.7930 nd        1 TND     -0.511100
     12 C5A         4.7890   -1.2480    4.4120 ca        1 TND     -0.222200
     13 C6A         5.9060   -1.7940    5.1450 ca        1 TND      0.789200
     14 N6A         6.0290   -1.5460    6.4740 nu        1 TND     -0.814900
     15 N1A         6.8360   -2.5500    4.4410 nb        1 TND     -0.775000
     16 C2A         6.6490   -2.7290    3.1200 ca        1 TND      0.733900
     17 N3A         5.6500   -2.2720    2.3140 nb        1 TND     -0.882000
     18 C4A         4.7280   -1.5250    2.9910 ca        1 TND      0.454800
     19 C1          7.0970   -2.0750    7.3170 c3        1 TND      0.274800
     20 C9          7.3120   -1.1970    8.5300 ca        1 TND     -0.116300
     21 C8          7.3140    0.1970    8.3760 ca        1 TND     -0.124000
     22 C7          7.5410    1.0330    9.4660 ca        1 TND     -0.130000
     23 C6          7.7830    0.4850   10.7250 ca        1 TND     -0.109000
     24 C2          6.8280   -3.5410    7.7030 c3        1 TND     -0.093400
     25 C10         7.5780   -1.7490    9.7920 ca        1 TND     -0.050300
     26 C5          7.8080   -0.8970   10.8830 ca        1 TND     -0.129000
     27 C3          7.8220   -3.9970    8.7440 c3        1 TND     -0.075400
     28 C4          7.6290   -3.2180   10.0270 c3        1 TND     -0.044100
     29 C7B         4.2540   -4.0370   -0.6460 c         1 TND      0.583700
     30 O7B         3.1880   -4.6250   -0.5070 o         1 TND     -0.440100
     31 C6B         5.4800   -4.5410   -1.2840 ca        1 TND     -0.124600
     32 C5B         6.7500   -4.1310   -0.8670 ca        1 TND     -0.155500
     33 C4B         7.8790   -4.6680   -1.5130 ca        1 TND      0.177100
     34 O2M         9.0790   -4.2070   -1.0290 os        1 TND     -0.313900
     35 C2M        10.2620   -4.7300   -1.6330 c3        1 TND      0.107200
     36 C3B         7.7490   -5.5930   -2.5590 ca        1 TND     -0.232000
     37 C1B         5.3180   -5.4710   -2.3130 ca        1 TND     -0.155500
     38 C2B         6.4650   -5.9880   -2.9500 ca        1 TND      0.177100
     39 O1M         6.1980   -6.8830   -3.9560 os        1 TND     -0.313900
     40 C1M         7.3220   -7.4690   -4.6130 c3        1 TND      0.107200
     41 O5'        -0.9770    0.1480    0.6770 oh        1 TND     -0.570800
     42 H5'1       -0.0580   -1.5910    1.3920 h1        1 TND      0.065700
     43 H5'2       -0.7200   -1.5780   -0.3260 h1        1 TND      0.065700
     44 H4'         1.0980    0.2830   -0.8040 h1        1 TND      0.109700
     45 H3'         1.3210   -2.6310   -0.8970 h1        1 TND      0.097700
     46 HO3'        1.9800   -1.1360   -2.5410 ho        1 TND      0.452000
     47 H2'         2.6030   -2.8730    1.0620 hx        1 TND      0.139700
     48 HN2'        4.6650   -2.0240   -0.9030 hn        1 TND      0.497800
     49 H1'         4.0070   -0.0790    0.6500 h2        1 TND      0.089700
     50 H8A         2.0630    0.3320    3.5810 h5        1 TND      0.097800
     51 H6A         5.3070   -1.0230    6.9240 hn        1 TND      0.471800
     52 H2A         7.4310   -3.3390    2.6140 h5        1 TND      0.060100
     53 H1          8.0620   -2.0470    6.7200 h1        1 TND      0.090700
     54 H8          7.1510    0.6500    7.3860 ha        1 TND      0.131000
     55 H7          7.5340    2.1250    9.3310 ha        1 TND      0.140000
     56 H6          7.9610    1.1420   11.5900 ha        1 TND      0.142000
     57 H21         5.7870   -3.6540    8.1070 hc        1 TND      0.055200
     58 H22         6.9130   -4.1830    6.7870 hc        1 TND      0.055200
     59 H5          8.0120   -1.3340   11.8720 ha        1 TND      0.141000
     60 H31         8.8670   -3.8560    8.3630 hc        1 TND      0.053700
     61 H32         7.6800   -5.0910    8.9440 hc        1 TND      0.053700
     62 H41         6.6700   -3.5350   10.5210 hc        1 TND      0.060700
     63 H42         8.4640   -3.4580   10.7390 hc        1 TND      0.060700
     64 H5B         6.9150   -3.4330   -0.0340 ha        1 TND      0.168000
     65 H2M1       10.3170   -5.8370   -1.4930 h1        1 TND      0.060367
     66 H2M2       10.2990   -4.4610   -2.7170 h1        1 TND      0.060367
     67 H2M3       11.0820   -4.2160   -1.0680 h1        1 TND      0.060367
     68 H3B         8.6390   -6.0020   -3.0580 ha        1 TND      0.167000
     69 H1B         4.3190   -5.8120   -2.6300 ha        1 TND      0.168000
     70 H1M1        7.9260   -6.6840   -5.1280 h1        1 TND      0.060367
     71 H1M2        7.9460   -8.0430   -3.8870 h1        1 TND      0.060367
     72 H1M3        6.8450   -8.1570   -5.3590 h1        1 TND      0.060367
     73 HO5'       -0.5890    0.6440    1.4100 ho        1 TND      0.416000
     74 H2'2        5.0450   -2.5900    0.6610 hn        1 TND      0.497800
@<TRIPOS>BOND
     1    1    2 1   
     2    1   41 1   
     3    1   42 1   
     4    1   43 1   
     5    2    3 1   
     6    2    4 1   
     7    2   44 1   
     8    3    8 1   
     9    4    5 1   
    10    4    6 1   
    11    4   45 1   
    12    5   46 1   
    13    6    7 1   
    14    6    8 1   
    15    6   47 1   
    16    7   29 1   
    17    7   48 1   
    18    7   74 1   
    19    8    9 1   
    20    8   49 1   
    21    9   10 1   
    22    9   18 1   
    23   10   11 2   
    24   10   50 1   
    25   11   12 1   
    26   12   13 ar  
    27   12   18 ar  
    28   13   14 1   
    29   13   15 ar  
    30   14   19 1   
    31   14   51 1   
    32   15   16 ar  
    33   16   17 ar  
    34   16   52 1   
    35   17   18 ar  
    36   19   20 1   
    37   19   24 1   
    38   19   53 1   
    39   20   21 ar  
    40   20   25 ar  
    41   21   22 ar  
    42   21   54 1   
    43   22   23 ar  
    44   22   55 1   
    45   23   26 ar  
    46   23   56 1   
    47   24   27 1   
    48   24   57 1   
    49   24   58 1   
    50   25   26 ar  
    51   25   28 1   
    52   26   59 1   
    53   27   28 1   
    54   27   60 1   
    55   27   61 1   
    56   28   62 1   
    57   28   63 1   
    58   29   30 2   
    59   29   31 1   
    60   31   32 ar  
    61   31   37 ar  
    62   32   33 ar  
    63   32   64 1   
    64   33   34 1   
    65   33   36 ar  
    66   34   35 1   
    67   35   65 1   
    68   35   66 1   
    69   35   67 1   
    70   36   38 ar  
    71   36   68 1   
    72   37   38 ar  
    73   37   69 1   
    74   38   39 1   
    75   39   40 1   
    76   40   70 1   
    77   40   71 1   
    78   40   72 1   
    79   41   73 1   
@<TRIPOS>SUBSTRUCTURE
     1 TND         1 TEMP              0 ****  ****    0 ROOT
