@<TRIPOS>MOLECULE
TND
   73    78     1     0     0
SMALL
bcc


@<TRIPOS>ATOM
      1 C5'        -4.9020    0.4120    1.7320 c3        1 TND      0.119400
      2 C4'        -3.9840   -0.6920    2.2600 c3        1 TND      0.058100
      3 O4'        -3.2120   -1.2190    1.1750 os        1 TND     -0.421600
      4 C3'        -3.0130   -0.1790    3.3340 c3        1 TND      0.094100
      5 O3'        -2.7920   -1.1590    4.3320 oh        1 TND     -0.590800
      6 C2'        -1.6890    0.0810    2.5560 c3        1 TND      0.078700
      7 N2'        -0.4710   -0.1380    3.2690 n         1 TND     -0.543900
      8 C1'        -1.8220   -0.8560    1.2910 c3        1 TND      0.241800
      9 N9A        -1.3670   -0.2390    0.0750 na        1 TND     -0.276000
     10 C8A        -1.7760    1.0000   -0.4870 cc        1 TND      0.411700
     11 N7A        -1.2880    1.2240   -1.7130 nd        1 TND     -0.535100
     12 C5A        -0.5320    0.0810   -2.0220 ca        1 TND     -0.231200
     13 C6A         0.2450   -0.2900   -3.1740 ca        1 TND      0.759200
     14 N6A         0.3870    0.6130   -4.2040 nh        1 TND     -0.845900
     15 N1A         0.8650   -1.5170   -3.1750 nb        1 TND     -0.791000
     16 C2A         0.7280   -2.2970   -2.0710 ca        1 TND      0.686900
     17 N3A         0.0500   -2.0750   -0.9200 nb        1 TND     -0.735000
     18 C4A        -0.5850   -0.8650   -0.9140 ca        1 TND      0.470800
     19 C1          0.9970    0.3060   -5.4840 c3        1 TND      0.268800
     20 C9         -0.0100   -0.0030   -6.5740 ca        1 TND     -0.106300
     21 C8         -1.1260   -0.7960   -6.2730 ca        1 TND     -0.115000
     22 C7         -2.0520   -1.1310   -7.2570 ca        1 TND     -0.133000
     23 C6         -1.8690   -0.6840   -8.5650 ca        1 TND     -0.123000
     24 C2          1.9330    1.4600   -5.8980 c3        1 TND     -0.084400
     25 C10         0.1820    0.4310   -7.8940 ca        1 TND     -0.062300
     26 C5         -0.7550    0.0870   -8.8790 ca        1 TND     -0.135000
     27 C3          2.4720    1.2160   -7.2870 c3        1 TND     -0.076400
     28 C4          1.3500    1.2600   -8.3010 c3        1 TND     -0.038100
     29 C7B         0.3460    0.9170    3.6570 c         1 TND      0.678700
     30 O7B         0.1010    2.0860    3.3020 o         1 TND     -0.592100
     31 C6B         1.5300    0.5760    4.4990 ca        1 TND     -0.080600
     32 C5B         2.2780   -0.5770    4.2580 ca        1 TND     -0.153500
     33 C4B         3.3930   -0.8440    5.0720 ca        1 TND      0.152600
     34 O2M         4.0660   -2.0080    4.7580 os        1 TND     -0.321400
     35 C2M         5.2330   -2.2920    5.5210 c3        1 TND      0.112700
     36 C3B         3.7600    0.0180    6.1130 ca        1 TND     -0.258000
     37 C1B         1.8760    1.4610    5.5210 ca        1 TND     -0.153500
     38 C2B         2.9910    1.1690    6.3250 ca        1 TND      0.152600
     39 O1M         3.2430    2.0960    7.3170 os        1 TND     -0.321400
     40 C1M         4.3970    1.8700    8.1180 c3        1 TND      0.112700
     41 O5'        -5.8220   -0.0960    0.7940 oh        1 TND     -0.589800
     42 H5'1       -5.5300    0.8280    2.5640 h1        1 TND      0.048700
     43 H5'2       -4.2890    1.2330    1.2710 h1        1 TND      0.048700
     44 H4'        -4.5960   -1.5600    2.6300 h1        1 TND      0.092700
     45 H3'        -3.3810    0.7710    3.8050 h1        1 TND      0.065700
     46 HO3'       -3.6230   -1.2600    4.8130 ho        1 TND      0.415000
     47 H2'        -1.7180    1.1650    2.2270 h1        1 TND      0.106700
     48 HN2'       -0.3760   -1.0150    3.7300 hn        1 TND      0.330500
     49 H1'        -1.2640   -1.8310    1.4230 h2        1 TND      0.121700
     50 H8A        -2.4150    1.6940    0.0730 h5        1 TND      0.071800
     51 H6A        -0.2130    1.4080   -4.1830 hn        1 TND      0.451800
     52 H2A         1.2570   -3.2740   -2.1280 h5        1 TND      0.052100
     53 H1          1.6400   -0.6220   -5.3740 h1        1 TND      0.099700
     54 H8         -1.2750   -1.1740   -5.2490 ha        1 TND      0.138000
     55 H7         -2.9240   -1.7500   -7.0020 ha        1 TND      0.133000
     56 H6         -2.5980   -0.9450   -9.3460 ha        1 TND      0.131000
     57 H21         1.3840    2.4370   -5.8740 hc        1 TND      0.052700
     58 H22         2.7790    1.5260   -5.1650 hc        1 TND      0.052700
     59 H5         -0.6000    0.4340   -9.9120 ha        1 TND      0.130000
     60 H31         3.2350    1.9990   -7.5380 hc        1 TND      0.047700
     61 H32         2.9860    0.2200   -7.3280 hc        1 TND      0.047700
     62 H41         1.0040    2.3220   -8.4320 hc        1 TND      0.052200
     63 H42         1.7320    0.9110   -9.2970 hc        1 TND      0.052200
     64 H5B         2.0350   -1.2710    3.4400 ha        1 TND      0.166000
     65 H2M1        5.6090   -3.2460    5.0710 h1        1 TND      0.046700
     66 H2M2        5.9890   -1.4770    5.4070 h1        1 TND      0.046700
     67 H2M3        4.9730   -2.4400    6.5970 h1        1 TND      0.046700
     68 H3B         4.6300   -0.2020    6.7450 ha        1 TND      0.147000
     69 H1B         1.2980    2.3820    5.6900 ha        1 TND      0.166000
     70 H1M1        4.4050    2.7490    8.8120 h1        1 TND      0.046700
     71 H1M2        4.2970    0.9170    8.6910 h1        1 TND      0.046700
     72 H1M3        5.3190    1.8570    7.4880 h1        1 TND      0.046700
     73 HO5'       -5.3120   -0.5510    0.1090 ho        1 TND      0.419000
@<TRIPOS>BOND
     1    1    2 1   
     2    1   41 1   
     3    1   42 1   
     4    1   43 1   
     5    2    3 1   
     6    2    4 1   
     7    2   44 1   
     8    3    8 1   
     9    4    5 1   
    10    4    6 1   
    11    4   45 1   
    12    5   46 1   
    13    6    7 1   
    14    6    8 1   
    15    6   47 1   
    16    7   29 1   
    17    7   48 1   
    18    8    9 1   
    19    8   49 1   
    20    9   10 1   
    21    9   18 1   
    22   10   11 2   
    23   10   50 1   
    24   11   12 1   
    25   12   13 ar  
    26   12   18 ar  
    27   13   14 1   
    28   13   15 ar  
    29   14   19 1   
    30   14   51 1   
    31   15   16 ar  
    32   16   17 ar  
    33   16   52 1   
    34   17   18 ar  
    35   19   20 1   
    36   19   24 1   
    37   19   53 1   
    38   20   21 ar  
    39   20   25 ar  
    40   21   22 ar  
    41   21   54 1   
    42   22   23 ar  
    43   22   55 1   
    44   23   26 ar  
    45   23   56 1   
    46   24   27 1   
    47   24   57 1   
    48   24   58 1   
    49   25   26 ar  
    50   25   28 1   
    51   26   59 1   
    52   27   28 1   
    53   27   60 1   
    54   27   61 1   
    55   28   62 1   
    56   28   63 1   
    57   29   30 2   
    58   29   31 1   
    59   31   32 ar  
    60   31   37 ar  
    61   32   33 ar  
    62   32   64 1   
    63   33   34 1   
    64   33   36 ar  
    65   34   35 1   
    66   35   65 1   
    67   35   66 1   
    68   35   67 1   
    69   36   38 ar  
    70   36   68 1   
    71   37   38 ar  
    72   37   69 1   
    73   38   39 1   
    74   39   40 1   
    75   40   70 1   
    76   40   71 1   
    77   40   72 1   
    78   41   73 1   
@<TRIPOS>SUBSTRUCTURE
     1 TND         1 TEMP              0 ****  ****    0 ROOT
