@<TRIPOS>MOLECULE
TND
   74    79     1     0     0
SMALL
bcc


@<TRIPOS>ATOM
      1 C5'        -0.1630   -0.9740    0.4370 c3        1 TND      0.123400
      2 C4'         1.2160   -0.5660   -0.0920 c3        1 TND      0.061100
      3 O4'         1.9800   -0.0370    1.0120 os        1 TND     -0.402600
      4 C3'         1.9900   -1.7440   -0.7080 c3        1 TND      0.114100
      5 O3'         2.6660   -1.3630   -1.8920 oh        1 TND     -0.621800
      6 C2'         3.0530   -2.0900    0.3670 c3        1 TND      0.075500
      7 N2'         4.3390   -2.6260   -0.1380 n4        1 TND     -0.685800
      8 C1'         3.2300   -0.7240    1.1390 c3        1 TND      0.272800
      9 N9A         3.5570   -0.8950    2.5250 na        1 TND     -0.311000
     10 C8A         2.9920   -0.2440    3.6620 cc        1 TND      0.440700
     11 N7A         3.6920   -0.4470    4.7810 nd        1 TND     -0.511100
     12 C5A         4.7890   -1.2400    4.4050 ca        1 TND     -0.222200
     13 C6A         5.9040   -1.7870    5.1430 ca        1 TND      0.789200
     14 N6A         6.0240   -1.5350    6.4710 nh        1 TND     -0.814900
     15 N1A         6.8330   -2.5470    4.4420 nb        1 TND     -0.775000
     16 C2A         6.6480   -2.7290    3.1220 ca        1 TND      0.733900
     17 N3A         5.6520   -2.2720    2.3120 nb        1 TND     -0.882000
     18 C4A         4.7310   -1.5210    2.9850 ca        1 TND      0.454800
     19 C1          7.0880   -2.0650    7.3180 c3        1 TND      0.274800
     20 C9          7.3030   -1.1850    8.5290 ca        1 TND     -0.116300
     21 C8          7.3080    0.2090    8.3730 ca        1 TND     -0.124000
     22 C7          7.5340    1.0470    9.4610 ca        1 TND     -0.130000
     23 C6          7.7730    0.5000   10.7220 ca        1 TND     -0.109000
     24 C2          6.8150   -3.5300    7.7060 c3        1 TND     -0.093400
     25 C10         7.5650   -1.7350    9.7930 ca        1 TND     -0.050300
     26 C5          7.7940   -0.8810   10.8820 ca        1 TND     -0.129000
     27 C3          7.8060   -3.9850    8.7500 c3        1 TND     -0.075400
     28 C4          7.6130   -3.2030   10.0300 c3        1 TND     -0.044100
     29 C7B         4.2570   -4.0450   -0.6440 c         1 TND      0.583700
     30 O7B         3.1890   -4.6290   -0.5040 o         1 TND     -0.440100
     31 C6B         5.4830   -4.5550   -1.2760 ca        1 TND     -0.124600
     32 C5B         6.7530   -4.1440   -0.8610 ca        1 TND     -0.155500
     33 C4B         7.8820   -4.6870   -1.5020 ca        1 TND      0.177100
     34 O2M         9.0830   -4.2240   -1.0210 os        1 TND     -0.313900
     35 C2M        10.2650   -4.7540   -1.6210 c3        1 TND      0.107200
     36 C3B         7.7510   -5.6200   -2.5410 ca        1 TND     -0.232000
     37 C1B         5.3200   -5.4930   -2.2990 ca        1 TND     -0.155500
     38 C2B         6.4670   -6.0170   -2.9310 ca        1 TND      0.177100
     39 O1M         6.1990   -6.9190   -3.9290 os        1 TND     -0.313900
     40 C1M         7.3230   -7.5120   -4.5810 c3        1 TND      0.107200
     41 O5'        -0.9640    0.1620    0.6520 oh        1 TND     -0.570800
     42 H5'1       -0.7110   -1.5680   -0.3440 h1        1 TND      0.065700
     43 H5'2       -0.0530   -1.5780    1.3750 h1        1 TND      0.065700
     44 H4'         1.1150    0.2850   -0.8240 h1        1 TND      0.109700
     45 H3'         1.3280   -2.6310   -0.9060 h1        1 TND      0.097700
     46 HO3'        1.9960   -1.1440   -2.5540 ho        1 TND      0.452000
     47 H2'         2.6050   -2.8700    1.0560 hx        1 TND      0.139700
     48 HN2'        5.0500   -2.5950    0.6600 hn        1 TND      0.498300
     49 H1'         4.0180   -0.0810    0.6370 h2        1 TND      0.089700
     50 H8A         2.0690    0.3440    3.5640 h5        1 TND      0.097800
     51 H6A         5.3020   -1.0090    6.9180 hn        1 TND      0.471800
     52 H2A         7.4300   -3.3430    2.6190 h5        1 TND      0.060100
     53 H1          8.0550   -2.0400    6.7230 h1        1 TND      0.090700
     54 H8          7.1480    0.6600    7.3820 ha        1 TND      0.131000
     55 H7          7.5300    2.1380    9.3240 ha        1 TND      0.140000
     56 H6          7.9500    1.1590   11.5860 ha        1 TND      0.142000
     57 H21         5.7740   -3.6390    8.1080 hc        1 TND      0.055200
     58 H22         6.9010   -4.1730    6.7920 hc        1 TND      0.055200
     59 H5          7.9960   -1.3160   11.8730 ha        1 TND      0.141000
     60 H31         7.6620   -5.0790    8.9530 hc        1 TND      0.053700
     61 H32         8.8530   -3.8480    8.3710 hc        1 TND      0.053700
     62 H41         8.4450   -3.4440   10.7450 hc        1 TND      0.060700
     63 H42         6.6520   -3.5180   10.5240 hc        1 TND      0.060700
     64 H5B         6.9180   -3.4390   -0.0340 ha        1 TND      0.168000
     65 H2M1       11.0850   -4.2370   -1.0590 h1        1 TND      0.060367
     66 H2M2       10.3180   -5.8590   -1.4720 h1        1 TND      0.060367
     67 H2M3       10.3030   -4.4930   -2.7060 h1        1 TND      0.060367
     68 H3B         8.6410   -6.0350   -3.0370 ha        1 TND      0.167000
     69 H1B         4.3210   -5.8350   -2.6140 ha        1 TND      0.168000
     70 H1M1        6.8450   -8.2050   -5.3220 h1        1 TND      0.060367
     71 H1M2        7.9290   -6.7320   -5.1020 h1        1 TND      0.060367
     72 H1M3        7.9450   -8.0810   -3.8490 h1        1 TND      0.060367
     73 HO5'       -0.5770    0.6590    1.3850 ho        1 TND      0.416000
     74 H2'2        4.6740   -2.0340   -0.9080 hn        1 TND      0.498300
@<TRIPOS>BOND
     1    1    2 1   
     2    1   41 1   
     3    1   42 1   
     4    1   43 1   
     5    2    3 1   
     6    2    4 1   
     7    2   44 1   
     8    3    8 1   
     9    4    5 1   
    10    4    6 1   
    11    4   45 1   
    12    5   46 1   
    13    6    7 1   
    14    6    8 1   
    15    6   47 1   
    16    7   29 1   
    17    7   48 1   
    18    7   74 1   
    19    8    9 1   
    20    8   49 1   
    21    9   10 1   
    22    9   18 1   
    23   10   11 2   
    24   10   50 1   
    25   11   12 1   
    26   12   13 ar  
    27   12   18 ar  
    28   13   14 1   
    29   13   15 ar  
    30   14   19 1   
    31   14   51 1   
    32   15   16 ar  
    33   16   17 ar  
    34   16   52 1   
    35   17   18 ar  
    36   19   20 1   
    37   19   24 1   
    38   19   53 1   
    39   20   21 ar  
    40   20   25 ar  
    41   21   22 ar  
    42   21   54 1   
    43   22   23 ar  
    44   22   55 1   
    45   23   26 ar  
    46   23   56 1   
    47   24   27 1   
    48   24   57 1   
    49   24   58 1   
    50   25   26 ar  
    51   25   28 1   
    52   26   59 1   
    53   27   28 1   
    54   27   60 1   
    55   27   61 1   
    56   28   62 1   
    57   28   63 1   
    58   29   30 2   
    59   29   31 1   
    60   31   32 ar  
    61   31   37 ar  
    62   32   33 ar  
    63   32   64 1   
    64   33   34 1   
    65   33   36 ar  
    66   34   35 1   
    67   35   65 1   
    68   35   66 1   
    69   35   67 1   
    70   36   38 ar  
    71   36   68 1   
    72   37   38 ar  
    73   37   69 1   
    74   38   39 1   
    75   39   40 1   
    76   40   70 1   
    77   40   71 1   
    78   40   72 1   
    79   41   73 1   
@<TRIPOS>SUBSTRUCTURE
     1 TND         1 TEMP              0 ****  ****    0 ROOT
