@<TRIPOS>MOLECULE
TND
   73    70     1     0     0
SMALL
bcc


@<TRIPOS>ATOM
      1 C5'        -3.4920    1.3610   -3.6020 c3        1 TND     -0.033000
      2 C4'        -2.0900    1.1460   -3.1140 c3        1 TND     -0.047000
      3 O4'        -2.0770    1.0470   -1.8240 os        1 TND     -0.283000
      4 C3'        -1.4980   -0.2840   -3.6960 c3        1 TND      0.002000
      5 O3'        -0.9600   -0.0930   -5.0680 oh        1 TND     -0.316000
      6 C2'        -0.5930   -0.6160   -2.9300 c3        1 TND     -0.030000
      7 N2'         0.7490   -0.0810   -3.4320 n         1 TND     -0.357000
      8 C1'        -0.9740    0.0630   -1.5210 c3        1 TND      0.149000
      9 N9A        -1.3900   -0.8360   -0.6850 n3        1 TND     -0.193000
     10 C8A        -1.5680    0.2410    0.1220 c1        1 TND     -0.038000
     11 N7A        -1.9380   -0.2090    1.3480 n2        1 TND     -0.111000
     12 C5A        -1.9890   -1.5720    1.3000 c1        1 TND     -0.239000
     13 C6A        -2.2930   -2.5300    2.2660 c1        1 TND      0.233000
     14 N6A        -1.9010   -1.8080    3.4550 n3        1 TND     -0.282000
     15 N1A        -2.2510   -3.8390    1.9520 n1        1 TND     -0.263000
     16 C2A        -1.9090   -4.2300    0.6830 c1        1 TND      0.024000
     17 N3A        -1.6090   -3.2900   -0.2680 n1        1 TND     -0.228000
     18 C4A        -1.6510   -1.9590    0.0470 c1        1 TND      0.073000
     19 C1         -2.6410   -2.0190    4.7320 c3        1 TND      0.067000
     20 C9         -1.5590   -2.1140    5.9210 c2        1 TND     -0.097000
     21 C8         -0.7190   -3.2070    6.0700 c2        1 TND     -0.104000
     22 C7          0.1360   -3.2940    7.1910 c1        1 TND     -0.139000
     23 C6          0.1350   -2.2520    8.1780 c1        1 TND     -0.128000
     24 C2         -3.6080   -1.0070    4.8430 c3        1 TND     -0.180000
     25 C10        -1.5590   -1.0480    6.9330 c1        1 TND     -0.048000
     26 C5         -0.7190   -1.1370    8.0310 c1        1 TND     -0.128000
     27 C3         -3.1690    0.2640    5.4200 c3        1 TND     -0.158000
     28 C4         -2.5060    0.2020    6.6870 c3        1 TND     -0.126000
     29 C7B         1.2000    1.2310   -3.0280 c2        1 TND      0.358000
     30 O7B         0.5110    1.9080   -2.2900 o         1 TND     -0.386000
     31 C6B         2.6050    1.7090   -3.4160 c2        1 TND     -0.058000
     32 C5B         3.7210    1.1830   -2.7690 c2        1 TND     -0.168000
     33 C4B         4.9870    1.6940   -3.0380 c1        1 TND      0.105000
     34 O2M         6.1100    1.2240   -2.3080 o         1 TND     -0.207000
     35 C2M         6.9130    0.2950   -3.0210 c3        1 TND     -0.078000
     36 C3B         5.1390    2.7320   -3.9540 c2        1 TND     -0.214000
     37 C1B         2.7570    2.7470   -4.3310 c1        1 TND     -0.191000
     38 C2B         4.0240    3.2580   -4.6000 c1        1 TND      0.111000
     39 O1M         4.1670    4.3760   -5.4590 os        1 TND     -0.208000
     40 C1M         4.7070    4.0580   -6.7310 c3        1 TND     -0.079000
     41 O5'        -3.9440    2.6430   -3.1910 oh        1 TND     -0.321000
     42 H5'1       -3.5100    1.3070   -4.5830 h1        1 TND      0.100000
     43 H5'2       -4.0800    0.6700   -3.2240 h1        1 TND      0.100000
     44 H4'        -1.5160    1.8880   -3.4000 h1        1 TND      0.132000
     45 H3'        -2.2080   -0.9690   -3.7010 h1        1 TND      0.135000
     46 HO3'       -1.5190   -0.4560   -5.6610 ho        1 TND      0.228000
     47 H2'        -0.5610   -1.5960   -2.8410 h1        1 TND      0.144000
     48 HN2'        1.2820   -0.6060   -3.9710 hn        1 TND      0.242000
     49 H1'        -0.1940    0.5330   -1.1510 h2        1 TND      0.152000
     50 H8A        -1.4410    1.1840   -0.1340 DU        1 TND      0.208000
     51 H6A        -1.1790   -1.2440    3.4310 hn        1 TND      0.246000
     52 H2A        -1.8780   -5.1870    0.4550 ha        1 TND      0.188000
     53 H1         -3.1090   -2.8810    4.6770 h1        1 TND      0.127000
     54 H8         -0.7180   -3.9190    5.3960 ha        1 TND      0.140000
     55 H7          0.7310   -4.0690    7.2950 ha        1 TND      0.134000
     56 H6          0.7300   -2.3140    8.9570 ha        1 TND      0.132000
     57 H21        -4.3330   -1.3530    5.4130 hc        1 TND      0.098500
     58 H22        -3.9400   -0.8190    3.9380 hc        1 TND      0.098500
     59 H5         -0.7190   -0.4250    8.7070 ha        1 TND      0.132000
     60 H31        -3.9700    0.8280    5.5340 hc        1 TND      0.085000
     61 H32        -2.5450    0.6750    4.7830 hc        1 TND      0.085000
     62 H41        -1.9650    1.0180    6.7870 hc        1 TND      0.092500
     63 H42        -3.1950    0.2030    7.3890 hc        1 TND      0.092500
     64 H5B         3.6130    0.4590   -2.1160 ha        1 TND      0.157000
     65 H2M1        7.6610    0.7690   -3.4480 h1        1 TND      0.088333
     66 H2M2        7.2640   -0.3790   -2.4000 h1        1 TND      0.088333
     67 H2M3        6.3700   -0.1460   -3.7090 h1        1 TND      0.088333
     68 H3B         6.0330    3.0930   -4.1430 ha        1 TND      0.160000
     69 H1B         1.9700    3.1180   -4.7880 ha        1 TND      0.162000
     70 H1M1        5.4650    4.6550   -6.9240 h1        1 TND      0.089333
     71 H1M2        4.0140    4.1750   -7.4200 h1        1 TND      0.089333
     72 H1M3        5.0150    3.1280   -6.7320 h1        1 TND      0.089333
     73 HO5'       -4.8240    2.7040   -3.3220 ho        1 TND      0.213000
@<TRIPOS>BOND
     1    1    2 1   
     2    1   41 1   
     3    1   42 1   
     4    1   43 1   
     5    2    3 1   
     6    2    4 1   
     7    2   44 1   
     8    3    8 1   
     9    4    5 1   
    10    4    6 1   
    11    4   45 1   
    12    5   46 1   
    13    6    7 1   
    14    6    8 1   
    15    6   47 1   
    16    7   29 1   
    17    7   48 1   
    18    8    9 1   
    19    8   49 1   
    20    9   10 1   
    21    9   18 1   
    22   10   11 1   
    23   11   12 1   
    24   12   18 1   
    25   13   14 1   
    26   13   15 1   
    27   14   19 1   
    28   14   51 1   
    29   16   17 1   
    30   16   52 1   
    31   19   20 1   
    32   19   24 1   
    33   19   53 1   
    34   20   21 1   
    35   20   25 1   
    36   21   22 1   
    37   21   54 1   
    38   22   55 1   
    39   23   26 1   
    40   23   56 1   
    41   24   27 1   
    42   24   57 1   
    43   24   58 1   
    44   25   28 1   
    45   26   59 1   
    46   27   28 1   
    47   27   60 1   
    48   27   61 1   
    49   28   62 1   
    50   28   63 1   
    51   29   30 1   
    52   29   31 1   
    53   31   32 1   
    54   31   37 1   
    55   32   33 1   
    56   32   64 1   
    57   33   36 1   
    58   34   35 1   
    59   35   65 1   
    60   35   66 1   
    61   35   67 1   
    62   36   38 1   
    63   36   68 1   
    64   37   69 1   
    65   38   39 1   
    66   39   40 1   
    67   40   70 1   
    68   40   71 1   
    69   40   72 1   
    70   41   73 1   
@<TRIPOS>SUBSTRUCTURE
     1 TND         1 TEMP              0 ****  ****    0 ROOT
