@<TRIPOS>MOLECULE
TNE
   23    24     1     0     0
SMALL
bcc


@<TRIPOS>ATOM
      1 C1          0.0060    0.0000    0.0210 c3        1 TNE      0.157500
      2 C2          1.5390    0.0260    0.0730 c3        1 TNE     -0.168400
      3 C3          2.0720   -0.0690    1.4810 c         1 TNE      0.578100
      4 O3          3.2170   -0.4830    1.6960 o         1 TNE     -0.547100
      5 C4          1.1890    0.3830    2.6170 c3        1 TNE     -0.168400
      6 C5         -0.3030    0.3150    2.2660 c3        1 TNE      0.157500
      7 C6         -0.7030   -1.1700    2.0330 c3        1 TNE     -0.112400
      8 C7         -0.4960   -1.3810    0.5320 c3        1 TNE     -0.112400
      9 N8         -0.5040    1.0170    0.9740 n3        1 TNE     -0.695600
     10 C9         -1.8690    1.4110    0.7310 c3        1 TNE      0.144100
     11 H1         -0.3470    0.2090   -1.0210 h1        1 TNE      0.069700
     12 H21         1.9460   -0.8180   -0.5420 hc        1 TNE      0.076700
     13 H22         1.9180    0.9860   -0.3700 hc        1 TNE      0.076700
     14 H41         1.3870   -0.2480    3.5220 hc        1 TNE      0.076700
     15 H42         1.4730    1.4400    2.8670 hc        1 TNE      0.076700
     16 H5         -0.9110    0.7850    3.0800 h1        1 TNE      0.069700
     17 H61        -1.7690   -1.3330    2.3210 hc        1 TNE      0.052700
     18 H62        -0.0690   -1.8570    2.6400 hc        1 TNE      0.052700
     19 H71         0.2500   -2.1830    0.3240 hc        1 TNE      0.052700
     20 H72        -1.4540   -1.6550    0.0280 hc        1 TNE      0.052700
     21 H91        -2.1700    2.1560    1.5140 h1        1 TNE      0.036033
     22 H92        -2.6000    0.5570    0.7500 h1        1 TNE      0.036033
     23 H93        -1.9230    1.9040   -0.2750 h1        1 TNE      0.036033
@<TRIPOS>BOND
     1    1    2 1   
     2    1    8 1   
     3    1    9 1   
     4    1   11 1   
     5    2    3 1   
     6    2   12 1   
     7    2   13 1   
     8    3    4 2   
     9    3    5 1   
    10    5    6 1   
    11    5   14 1   
    12    5   15 1   
    13    6    7 1   
    14    6    9 1   
    15    6   16 1   
    16    7    8 1   
    17    7   17 1   
    18    7   18 1   
    19    8   19 1   
    20    8   20 1   
    21    9   10 1   
    22   10   21 1   
    23   10   22 1   
    24   10   23 1   
@<TRIPOS>SUBSTRUCTURE
     1 TNE         1 TEMP              0 ****  ****    0 ROOT
