@<TRIPOS>MOLECULE
TNE
   23    24     1     0     0
SMALL
bcc


@<TRIPOS>ATOM
      1 C1          0.0060    0.0010    0.0210 c3        1 TNE      0.157500
      2 C2          1.5390    0.0230    0.0730 c3        1 TNE     -0.168400
      3 C3          2.0720   -0.0740    1.4810 c         1 TNE      0.578100
      4 O3          3.2160   -0.4900    1.6960 o         1 TNE     -0.547100
      5 C4          1.1900    0.3800    2.6180 c3        1 TNE     -0.168400
      6 C5         -0.3020    0.3150    2.2660 c3        1 TNE      0.157500
      7 C6         -0.7050   -1.1690    2.0320 c3        1 TNE     -0.112400
      8 C7         -0.4990   -1.3790    0.5310 c3        1 TNE     -0.112400
      9 N8         -0.5020    1.0180    0.9750 n3        1 TNE     -0.695600
     10 C9         -1.8670    1.4150    0.7320 c3        1 TNE      0.144100
     11 H1         -0.3470    0.2110   -1.0210 h1        1 TNE      0.069700
     12 H21         1.9450   -0.8210   -0.5420 hc        1 TNE      0.076700
     13 H22         1.9200    0.9830   -0.3690 hc        1 TNE      0.076700
     14 H41         1.3870   -0.2520    3.5220 hc        1 TNE      0.076700
     15 H42         1.4760    1.4360    2.8690 hc        1 TNE      0.076700
     16 H5         -0.9100    0.7860    3.0810 h1        1 TNE      0.069700
     17 H61        -1.7720   -1.3300    2.3190 hc        1 TNE      0.052700
     18 H62        -0.0730   -1.8580    2.6390 hc        1 TNE      0.052700
     19 H71         0.2450   -2.1820    0.3220 hc        1 TNE      0.052700
     20 H72        -1.4570   -1.6510    0.0270 hc        1 TNE      0.052700
     21 H91        -1.9190    1.9090   -0.2740 h1        1 TNE      0.036033
     22 H92        -2.5990    0.5630    0.7500 h1        1 TNE      0.036033
     23 H93        -2.1650    2.1600    1.5160 h1        1 TNE      0.036033
@<TRIPOS>BOND
     1    1    2 1   
     2    1    8 1   
     3    1    9 1   
     4    1   11 1   
     5    2    3 1   
     6    2   12 1   
     7    2   13 1   
     8    3    4 2   
     9    3    5 1   
    10    5    6 1   
    11    5   14 1   
    12    5   15 1   
    13    6    7 1   
    14    6    9 1   
    15    6   16 1   
    16    7    8 1   
    17    7   17 1   
    18    7   18 1   
    19    8   19 1   
    20    8   20 1   
    21    9   10 1   
    22   10   21 1   
    23   10   22 1   
    24   10   23 1   
@<TRIPOS>SUBSTRUCTURE
     1 TNE         1 TEMP              0 ****  ****    0 ROOT
