@<TRIPOS>MOLECULE
TNE
   23    24     1     0     0
SMALL
bcc


@<TRIPOS>ATOM
      1 C1         38.0500   31.0000  153.5790 c3        1 TNE      0.157500
      2 C2         36.6070   31.3390  153.1850 c3        1 TNE     -0.168400
      3 C3         35.7720   31.7740  154.3640 c         1 TNE      0.578100
      4 O3         34.7640   32.4710  154.2020 o         1 TNE     -0.547100
      5 C4         36.1760   31.3120  155.7420 c3        1 TNE     -0.168400
      6 C5         37.6700   30.9760  155.8350 c3        1 TNE      0.157500
      7 C6         38.4980   32.2720  155.6040 c3        1 TNE     -0.112400
      8 C7         38.7520   32.2880  154.0960 c3        1 TNE     -0.112400
      9 N8         38.0050   30.0540  154.7210 n3        1 TNE     -0.695600
     10 C9         39.2300   29.3200  154.9200 c3        1 TNE      0.144100
     11 H1         38.5930   30.5550  152.7070 h1        1 TNE      0.069700
     12 H21        36.1140   30.4370  152.7340 hc        1 TNE      0.076700
     13 H22        36.6130   32.1480  152.4100 hc        1 TNE      0.076700
     14 H41        35.5660   30.4010  155.9870 hc        1 TNE      0.076700
     15 H42        35.9250   32.1040  156.4940 hc        1 TNE      0.076700
     16 H5         37.8980   30.5100  156.8280 h1        1 TNE      0.069700
     17 H61        39.4560   32.2260  156.1740 hc        1 TNE      0.052700
     18 H62        37.9350   33.1740  155.9400 hc        1 TNE      0.052700
     19 H71        38.3270   33.1990  153.6130 hc        1 TNE      0.052700
     20 H72        39.8450   32.2510  153.8700 hc        1 TNE      0.052700
     21 H91        39.1070   28.6580  155.8170 h1        1 TNE      0.036033
     22 H92        40.1320   29.9740  155.0790 h1        1 TNE      0.036033
     23 H93        39.4100   28.6770  154.0180 h1        1 TNE      0.036033
@<TRIPOS>BOND
     1    1    2 1   
     2    1    8 1   
     3    1    9 1   
     4    1   11 1   
     5    2    3 1   
     6    2   12 1   
     7    2   13 1   
     8    3    4 2   
     9    3    5 1   
    10    5    6 1   
    11    5   14 1   
    12    5   15 1   
    13    6    7 1   
    14    6    9 1   
    15    6   16 1   
    16    7    8 1   
    17    7   17 1   
    18    7   18 1   
    19    8   19 1   
    20    8   20 1   
    21    9   10 1   
    22   10   21 1   
    23   10   22 1   
    24   10   23 1   
@<TRIPOS>SUBSTRUCTURE
     1 TNE         1 TEMP              0 ****  ****    0 ROOT
