@<TRIPOS>MOLECULE
TNE
   23    24     1     0     0
SMALL
bcc


@<TRIPOS>ATOM
      1 C1          0.0080    0.3110   -1.1140 c3        1 TNE      0.157500
      2 C2          1.5270    0.3110   -1.1140 c3        1 TNE     -0.168400
      3 C3          2.1740    0.3110    0.2960 c         1 TNE      0.578100
      4 O3          3.3050   -0.1220    0.4490 o         1 TNE     -0.547100
      5 C4          1.1740    0.3110    1.4820 c3        1 TNE     -0.168400
      6 C5         -0.2760    0.3110    1.0800 c3        1 TNE      0.157500
      7 C6         -0.6250   -1.1400    0.7490 c3        1 TNE     -0.112400
      8 C7         -0.4210   -1.1530   -0.8560 c3        1 TNE     -0.112400
      9 N8         -0.5570    0.8870   -0.0990 n3        1 TNE     -0.695600
     10 C9         -1.9920    0.9110   -0.2950 c3        1 TNE      0.144100
     11 H1         -0.3520    0.6410   -1.9600 h1        1 TNE      0.069700
     12 H21         1.8350   -0.4810   -1.5950 hc        1 TNE      0.076700
     13 H22         1.8350    1.1030   -1.5950 hc        1 TNE      0.076700
     14 H41         1.3430    1.1030    2.0270 hc        1 TNE      0.076700
     15 H42         1.3430   -0.4810    2.0270 hc        1 TNE      0.076700
     16 H5         -0.8460    0.6580    1.7930 h1        1 TNE      0.069700
     17 H61        -0.0080   -1.7570    1.1860 hc        1 TNE      0.052700
     18 H62        -1.5510   -1.3400    0.9860 hc        1 TNE      0.052700
     19 H71         0.2850   -1.7760   -1.1140 hc        1 TNE      0.052700
     20 H72        -1.2580   -1.3590   -1.3140 hc        1 TNE      0.052700
     21 H91        -2.3380   -0.0020   -0.2790 h1        1 TNE      0.036033
     22 H92        -2.4090    1.4300    0.4190 h1        1 TNE      0.036033
     23 H93        -2.1950    1.3210   -1.1570 h1        1 TNE      0.036033
@<TRIPOS>BOND
     1    1    2 1   
     2    1    8 1   
     3    1    9 1   
     4    1   11 1   
     5    2    3 1   
     6    2   12 1   
     7    2   13 1   
     8    3    4 2   
     9    3    5 1   
    10    5    6 1   
    11    5   14 1   
    12    5   15 1   
    13    6    7 1   
    14    6    9 1   
    15    6   16 1   
    16    7    8 1   
    17    7   17 1   
    18    7   18 1   
    19    8   19 1   
    20    8   20 1   
    21    9   10 1   
    22   10   21 1   
    23   10   22 1   
    24   10   23 1   
@<TRIPOS>SUBSTRUCTURE
     1 TNE         1 TEMP              0 ****  ****    0 ROOT
