@<TRIPOS>MOLECULE
TNE
   23    24     1     0     0
SMALL
bcc


@<TRIPOS>ATOM
      1 C1          0.0070    0.0030    0.0210 c3        1 TNE      0.157500
      2 C2          1.5400    0.0220    0.0740 c3        1 TNE     -0.168400
      3 C3          2.0710   -0.0800    1.4820 c         1 TNE      0.578100
      4 O3          3.2150   -0.5000    1.6970 o         1 TNE     -0.547100
      5 C4          1.1900    0.3730    2.6190 c3        1 TNE     -0.168400
      6 C5         -0.3020    0.3140    2.2660 c3        1 TNE      0.157500
      7 C6         -0.7090   -1.1690    2.0290 c3        1 TNE     -0.112400
      8 C7         -0.5020   -1.3760    0.5280 c3        1 TNE     -0.112400
      9 N8         -0.4990    1.0200    0.9770 n3        1 TNE     -0.695600
     10 C9         -1.8630    1.4210    0.7330 c3        1 TNE      0.144100
     11 H1         -0.3440    0.2170   -1.0210 h1        1 TNE      0.069700
     12 H21         1.9240    0.9810   -0.3650 hc        1 TNE      0.076700
     13 H22         1.9440   -0.8220   -0.5430 hc        1 TNE      0.076700
     14 H41         1.3850   -0.2610    3.5220 hc        1 TNE      0.076700
     15 H42         1.4780    1.4290    2.8730 hc        1 TNE      0.076700
     16 H5         -0.9090    0.7840    3.0820 h1        1 TNE      0.069700
     17 H61        -0.0790   -1.8610    2.6350 hc        1 TNE      0.052700
     18 H62        -1.7760   -1.3280    2.3150 hc        1 TNE      0.052700
     19 H71        -1.4610   -1.6450    0.0220 hc        1 TNE      0.052700
     20 H72         0.2400   -2.1810    0.3180 hc        1 TNE      0.052700
     21 H91        -2.5970    0.5700    0.7500 h1        1 TNE      0.036033
     22 H92        -1.9130    1.9170   -0.2710 h1        1 TNE      0.036033
     23 H93        -2.1600    2.1650    1.5190 h1        1 TNE      0.036033
@<TRIPOS>BOND
     1    1    2 1   
     2    1    8 1   
     3    1    9 1   
     4    1   11 1   
     5    2    3 1   
     6    2   12 1   
     7    2   13 1   
     8    3    4 2   
     9    3    5 1   
    10    5    6 1   
    11    5   14 1   
    12    5   15 1   
    13    6    7 1   
    14    6    9 1   
    15    6   16 1   
    16    7    8 1   
    17    7   17 1   
    18    7   18 1   
    19    8   19 1   
    20    8   20 1   
    21    9   10 1   
    22   10   21 1   
    23   10   22 1   
    24   10   23 1   
@<TRIPOS>SUBSTRUCTURE
     1 TNE         1 TEMP              0 ****  ****    0 ROOT
