@<TRIPOS>MOLECULE
TNF
   19    19     1     0     0
SMALL
bcc


@<TRIPOS>ATOM
      1 C1          0.0170   -0.1100   -0.0730 ca        1 TNF      0.312100
      2 C2          1.4460   -0.0610   -0.0240 ca        1 TNF     -0.279200
      3 C3          2.1240    0.0100    1.1930 ca        1 TNF      0.061000
      4 C4          1.3920    0.0330    2.3910 ca        1 TNF     -0.247200
      5 N4          2.1160    0.1080    3.6890 no        1 TNF      0.327200
      6 N2          2.2440   -0.0840   -1.2830 no        1 TNF      0.331700
      7 O1         -0.5210   -0.1760   -1.3040 oh        1 TNF     -0.431100
      8 O21         3.4410   -0.0380   -1.1870 o         1 TNF     -0.185750
      9 O22         1.6750   -0.1480   -2.3330 o         1 TNF     -0.185750
     10 O41         3.3150    0.1470    3.6740 o         1 TNF     -0.185500
     11 C6         -0.6910   -0.0840    1.1600 ca        1 TNF     -0.279200
     12 C5         -0.0050   -0.0130    2.3830 ca        1 TNF      0.061000
     13 O42         1.4730    0.1270    4.7020 o         1 TNF     -0.185500
     14 N6         -2.1730   -0.1310    1.2100 no        1 TNF      0.331700
     15 O61        -2.7170   -0.1070    2.2760 o         1 TNF     -0.185750
     16 O62        -2.7870   -0.1920    0.1740 o         1 TNF     -0.185750
     17 H3          3.2360    0.0470    1.2140 ha        1 TNF      0.218500
     18 H1         -1.4980   -0.2080   -1.2980 ho        1 TNF      0.489000
     19 H5         -0.5710    0.0060    3.3410 ha        1 TNF      0.218500
@<TRIPOS>BOND
     1    1    2 ar  
     2    1    7 1   
     3    1   11 ar  
     4    2    3 ar  
     5    2    6 1   
     6    3    4 ar  
     7    3   17 1   
     8    4    5 1   
     9    4   12 ar  
    10    5   10 1   
    11    5   13 1   
    12    6    8 1   
    13    6    9 1   
    14    7   18 1   
    15   11   12 ar  
    16   11   14 1   
    17   12   19 1   
    18   14   15 1   
    19   14   16 1   
@<TRIPOS>SUBSTRUCTURE
     1 TNF         1 TEMP              0 ****  ****    0 ROOT
