@<TRIPOS>MOLECULE
TNF
   19    19     1     0     0
SMALL
bcc


@<TRIPOS>ATOM
      1 C1          0.0160   -0.0910   -0.0730 ca        1 TNF      0.312100
      2 C2          1.4450   -0.0510   -0.0250 ca        1 TNF     -0.279200
      3 C3          2.1250   -0.0010    1.1930 ca        1 TNF      0.061000
      4 C4          1.3930    0.0100    2.3920 ca        1 TNF     -0.247200
      5 N4          2.1180    0.0640    3.6910 no        1 TNF      0.327200
      6 N2          2.2430   -0.0620   -1.2840 no        1 TNF      0.331700
      7 O1         -0.5230   -0.1380   -1.3050 oh        1 TNF     -0.431100
      8 O21         3.4400   -0.0270   -1.1880 o         1 TNF     -0.185750
      9 O22         1.6730   -0.1050   -2.3350 o         1 TNF     -0.185750
     10 O41         3.3170    0.0960    3.6750 o         1 TNF     -0.185500
     11 C6         -0.6910   -0.0780    1.1610 ca        1 TNF     -0.279200
     12 C5         -0.0040   -0.0280    2.3840 ca        1 TNF      0.061000
     13 O42         1.4760    0.0730    4.7040 o         1 TNF     -0.185500
     14 N6         -2.1730   -0.1170    1.2100 no        1 TNF      0.331700
     15 O61        -2.7160   -0.1040    2.2770 o         1 TNF     -0.185750
     16 O62        -2.7880   -0.1610    0.1740 o         1 TNF     -0.185750
     17 H3          3.2370    0.0300    1.2140 ha        1 TNF      0.218500
     18 H1         -1.5000   -0.1650   -1.2980 ho        1 TNF      0.489000
     19 H5         -0.5700   -0.0180    3.3420 ha        1 TNF      0.218500
@<TRIPOS>BOND
     1    1    2 ar  
     2    1    7 1   
     3    1   11 ar  
     4    2    3 ar  
     5    2    6 1   
     6    3    4 ar  
     7    3   17 1   
     8    4    5 1   
     9    4   12 ar  
    10    5   10 1   
    11    5   13 1   
    12    6    8 1   
    13    6    9 1   
    14    7   18 1   
    15   11   12 ar  
    16   11   14 1   
    17   12   19 1   
    18   14   15 1   
    19   14   16 1   
@<TRIPOS>SUBSTRUCTURE
     1 TNF         1 TEMP              0 ****  ****    0 ROOT
