@<TRIPOS>MOLECULE
TNF
   19    19     1     0     0
SMALL
bcc


@<TRIPOS>ATOM
      1 C1          1.2460   -0.0500    0.0880 ca        1 TNF      0.312100
      2 C2          0.5320    1.1800    0.0770 ca        1 TNF     -0.279200
      3 C3         -0.8720    1.1970    0.0280 ca        1 TNF      0.061000
      4 C4         -1.5770   -0.0090   -0.0090 ca        1 TNF     -0.247200
      5 N4         -3.0650    0.0130   -0.0600 no        1 TNF      0.327200
      6 N2          1.2300    2.4880    0.1150 no        1 TNF      0.331700
      7 O1          2.5820   -0.1990    0.1320 oh        1 TNF     -0.431100
      8 O21         0.5780    3.4920    0.1030 o         1 TNF     -0.185750
      9 O22         2.4350    2.5020    0.1570 o         1 TNF     -0.185750
     10 O41        -3.6210    1.0760   -0.0680 o         1 TNF     -0.185500
     11 C6          0.4890   -1.2630    0.0490 ca        1 TNF     -0.279200
     12 C5         -0.9050   -1.2420    0.0010 ca        1 TNF      0.061000
     13 O42        -3.6510   -1.0330   -0.0910 o         1 TNF     -0.185500
     14 N6          1.1800   -2.5840    0.0580 no        1 TNF      0.331700
     15 O61         0.4970   -3.5720    0.0240 o         1 TNF     -0.185750
     16 O62         2.3750   -2.6160    0.0990 o         1 TNF     -0.185750
     17 H3         -1.4190    2.1660    0.0200 ha        1 TNF      0.218500
     18 H1          3.0650    0.6500    0.1580 ho        1 TNF      0.489000
     19 H5         -1.4800   -2.1950   -0.0290 ha        1 TNF      0.218500
@<TRIPOS>BOND
     1    1    2 ar  
     2    1    7 1   
     3    1   11 ar  
     4    2    3 ar  
     5    2    6 1   
     6    3    4 ar  
     7    3   17 1   
     8    4    5 1   
     9    4   12 ar  
    10    5   10 1   
    11    5   13 1   
    12    6    8 1   
    13    6    9 1   
    14    7   18 1   
    15   11   12 ar  
    16   11   14 1   
    17   12   19 1   
    18   14   15 1   
    19   14   16 1   
@<TRIPOS>SUBSTRUCTURE
     1 TNF         1 TEMP              0 ****  ****    0 ROOT
