@<TRIPOS>MOLECULE
TNG
   20    19     1     0     0
SMALL
bcc


@<TRIPOS>ATOM
      1 O9         -4.0360   -1.1140    0.5370 o         1 TNG     -0.162750
      2 N3         -3.7460   -0.3930   -0.3660 no        1 TNG      0.382200
      3 O8         -4.4460    0.1820   -1.1290 o         1 TNG     -0.162750
      4 O7         -2.4310   -0.1850   -0.5890 os        1 TNG     -0.357500
      5 C3         -1.4660   -0.8190    0.2900 c3        1 TNG      0.118900
      6 C2         -0.1330   -0.1870   -0.1150 c3        1 TNG      0.134100
      7 O4          0.0450    0.9360    0.7810 os        1 TNG     -0.361000
      8 N2          0.5040    2.1230    0.3110 no        1 TNG      0.387200
      9 O6          0.6430    2.2370   -0.8630 o         1 TNG     -0.154000
     10 O5          0.6900    2.9090    1.1780 o         1 TNG     -0.154000
     11 C1          1.0050   -1.1730    0.1510 c3        1 TNG      0.118900
     12 O3          2.1820   -0.4820   -0.3400 os        1 TNG     -0.357500
     13 N1          3.3710   -1.1210   -0.2920 no        1 TNG      0.382200
     14 O2          3.3700   -2.2350    0.1310 o         1 TNG     -0.162750
     15 O1          4.2710   -0.4640   -0.6940 o         1 TNG     -0.162750
     16 H1         -1.7180   -0.6050    1.3620 h1        1 TNG      0.092700
     17 H2         -1.4720   -1.9220    0.0940 h1        1 TNG      0.092700
     18 H3         -0.1430    0.1420   -1.1940 h1        1 TNG      0.140700
     19 H4          1.1290   -1.3820    1.2450 h1        1 TNG      0.092700
     20 H5          0.8560   -2.1240   -0.4220 h1        1 TNG      0.092700
@<TRIPOS>BOND
     1    1    2 1   
     2    2    3 1   
     3    2    4 1   
     4    4    5 1   
     5    5    6 1   
     6    5   16 1   
     7    5   17 1   
     8    6    7 1   
     9    6   11 1   
    10    6   18 1   
    11    7    8 1   
    12    8    9 1   
    13    8   10 1   
    14   11   12 1   
    15   11   19 1   
    16   11   20 1   
    17   12   13 1   
    18   13   14 1   
    19   13   15 1   
@<TRIPOS>SUBSTRUCTURE
     1 TNG         1 TEMP              0 ****  ****    0 ROOT
