@<TRIPOS>MOLECULE
TNG
   20    19     1     0     0
SMALL
bcc


@<TRIPOS>ATOM
      1 O9          0.4400   -0.3440    0.0950 o         1 TNG     -0.162750
      2 N3          1.4740    0.2080   -0.1170 no        1 TNG      0.382200
      3 O8          2.2540    0.6720    0.6440 o         1 TNG     -0.162750
      4 O7          1.8400    0.3530   -1.4090 os        1 TNG     -0.357500
      5 C3          0.9790   -0.1890   -2.4430 c3        1 TNG      0.118900
      6 C2          1.8060   -0.0420   -3.7210 c3        1 TNG      0.134100
      7 O4          2.4990   -1.3040   -3.8750 os        1 TNG     -0.361000
      8 N2          3.8020   -1.3300   -4.2480 no        1 TNG      0.387200
      9 O6          4.3750   -0.2920   -4.3320 o         1 TNG     -0.154000
     10 O5          4.1990   -2.4320   -4.4270 o         1 TNG     -0.154000
     11 C1          0.8730    0.1200   -4.9210 c3        1 TNG      0.118900
     12 O3          1.7770    0.3210   -6.0370 os        1 TNG     -0.357500
     13 N1          1.2510    0.5480   -7.2600 no        1 TNG      0.382200
     14 O2          0.0640    0.5960   -7.3380 o         1 TNG     -0.162750
     15 O1          2.0710    0.6740   -8.1060 o         1 TNG     -0.162750
     16 H1          0.7400   -1.2630   -2.2240 h1        1 TNG      0.092700
     17 H2          0.0420    0.4240   -2.4890 h1        1 TNG      0.092700
     18 H3          2.5290    0.8210   -3.6470 h1        1 TNG      0.140700
     19 H4          0.2620   -0.8020   -5.1020 h1        1 TNG      0.092700
     20 H5          0.2140    1.0180   -4.8010 h1        1 TNG      0.092700
@<TRIPOS>BOND
     1    1    2 1   
     2    2    3 1   
     3    2    4 1   
     4    4    5 1   
     5    5    6 1   
     6    5   16 1   
     7    5   17 1   
     8    6    7 1   
     9    6   11 1   
    10    6   18 1   
    11    7    8 1   
    12    8    9 1   
    13    8   10 1   
    14   11   12 1   
    15   11   19 1   
    16   11   20 1   
    17   12   13 1   
    18   13   14 1   
    19   13   15 1   
@<TRIPOS>SUBSTRUCTURE
     1 TNG         1 TEMP              0 ****  ****    0 ROOT
