@<TRIPOS>MOLECULE
TNK
   51    53     1     0     0
SMALL
bcc


@<TRIPOS>ATOM
      1 C1         -0.4280   -0.1510    0.6800 ca        1 TNK     -0.083300
      2 C2          0.3800   -1.0030    1.4430 ca        1 TNK     -0.119500
      3 C3          0.3430   -0.9460    2.8350 ca        1 TNK     -0.129000
      4 C4         -0.4910   -0.0320    3.4770 ca        1 TNK     -0.125000
      5 C5         -1.2880    0.8300    2.7220 ca        1 TNK     -0.129000
      6 C6         -1.2570    0.7720    1.3300 ca        1 TNK     -0.119500
      7 C7         -0.6510   -1.5470   -1.3860 cc        1 TNK      0.111400
      8 N8          0.4140   -2.2840   -1.9260 n         1 TNK     -0.405000
      9 C9          0.2250   -3.6430   -2.2880 c         1 TNK      0.806500
     10 O9          1.1990   -4.3710   -2.5920 o         1 TNK     -0.667500
     11 N10        -1.0730   -4.1540   -2.3200 n         1 TNK     -0.582500
     12 C11        -2.1970   -3.3870   -1.9660 c         1 TNK      0.720700
     13 O11        -3.3140   -3.9010   -2.1480 o         1 TNK     -0.612500
     14 C12        -1.9310   -2.0470   -1.4050 cd        1 TNK     -0.241400
     15 C13        -0.3640   -0.1790   -0.8100 c3        1 TNK     -0.006900
     16 C14        -3.1190   -1.3060   -0.8770 c3        1 TNK      0.000500
     17 C15        -4.0520   -0.9120   -2.0070 c3        1 TNK     -0.095600
     18 C16        -3.8640   -2.1140    0.1710 c3        1 TNK     -0.095600
     19 C17         1.7370   -1.7160   -2.1590 c3        1 TNK      0.284800
     20 O17         2.4780   -1.5300   -0.9650 os        1 TNK     -0.422600
     21 C18         3.2100   -2.6780   -0.5270 c3        1 TNK      0.165700
     22 C19         4.4430   -2.9000   -1.3410 ca        1 TNK     -0.135300
     23 C20         4.4600   -3.8800   -2.3390 ca        1 TNK     -0.110500
     24 C21         5.6210   -4.1000   -3.0800 ca        1 TNK     -0.136500
     25 C22         6.7660   -3.3440   -2.8300 ca        1 TNK     -0.120000
     26 C23         6.7500   -2.3640   -1.8380 ca        1 TNK     -0.136500
     27 C24         5.5920   -2.1410   -1.0950 ca        1 TNK     -0.110500
     28 H2          1.0570   -1.7080    0.9330 ha        1 TNK      0.138000
     29 H3          0.9780   -1.6220    3.4270 ha        1 TNK      0.133000
     30 H4         -0.5200    0.0120    4.5750 ha        1 TNK      0.133000
     31 H5         -1.9420    1.5560    3.2250 ha        1 TNK      0.133000
     32 H6         -1.8860    1.4580    0.7420 ha        1 TNK      0.138000
     33 HN1        -1.1900   -5.0930   -2.6360 hn        1 TNK      0.353500
     34 H131       -1.1100    0.5390   -1.2520 hc        1 TNK      0.075700
     35 H132        0.6550    0.1980   -1.1010 hc        1 TNK      0.075700
     36 H14        -2.7690   -0.3590   -0.3710 hc        1 TNK      0.050700
     37 H151       -4.9200   -0.3410   -1.5990 hc        1 TNK      0.042700
     38 H152       -4.4380   -1.8230   -2.5290 hc        1 TNK      0.042700
     39 H153       -3.5190   -0.2720   -2.7490 hc        1 TNK      0.042700
     40 H161       -3.1710   -2.4290    0.9870 hc        1 TNK      0.042700
     41 H162       -4.6760   -1.4890    0.6150 hc        1 TNK      0.042700
     42 H163       -4.3240   -3.0250   -0.2820 hc        1 TNK      0.042700
     43 H171        1.6260   -0.6780   -2.5890 h2        1 TNK      0.090700
     44 H172        2.2970   -2.3880   -2.8740 h2        1 TNK      0.090700
     45 H181        2.5490   -3.5870   -0.5530 h1        1 TNK      0.065700
     46 H182        3.4720   -2.4230    0.5360 h1        1 TNK      0.065700
     47 H20         3.5520   -4.4760   -2.5380 ha        1 TNK      0.147500
     48 H21         5.6310   -4.8730   -3.8630 ha        1 TNK      0.133500
     49 H22         7.6810   -3.5210   -3.4150 ha        1 TNK      0.131000
     50 H23         7.6520   -1.7660   -1.6410 ha        1 TNK      0.133500
     51 H24         5.5770   -1.3660   -0.3140 ha        1 TNK      0.147500
@<TRIPOS>BOND
     1    1    2 ar  
     2    1    6 ar  
     3    1   15 1   
     4    2    3 ar  
     5    2   28 1   
     6    3    4 ar  
     7    3   29 1   
     8    4    5 ar  
     9    4   30 1   
    10    5    6 ar  
    11    5   31 1   
    12    6   32 1   
    13    7    8 1   
    14    7   14 2   
    15    7   15 1   
    16    8    9 1   
    17    8   19 1   
    18    9   10 2   
    19    9   11 1   
    20   11   12 1   
    21   11   33 1   
    22   12   13 2   
    23   12   14 1   
    24   14   16 1   
    25   15   34 1   
    26   15   35 1   
    27   16   17 1   
    28   16   18 1   
    29   16   36 1   
    30   17   37 1   
    31   17   38 1   
    32   17   39 1   
    33   18   40 1   
    34   18   41 1   
    35   18   42 1   
    36   19   20 1   
    37   19   43 1   
    38   19   44 1   
    39   20   21 1   
    40   21   22 1   
    41   21   45 1   
    42   21   46 1   
    43   22   23 ar  
    44   22   27 ar  
    45   23   24 ar  
    46   23   47 1   
    47   24   25 ar  
    48   24   48 1   
    49   25   26 ar  
    50   25   49 1   
    51   26   27 ar  
    52   26   50 1   
    53   27   51 1   
@<TRIPOS>SUBSTRUCTURE
     1 TNK         1 TEMP              0 ****  ****    0 ROOT
