@<TRIPOS>MOLECULE
TNK
   51    53     1     0     0
SMALL
bcc


@<TRIPOS>ATOM
      1 C1          0.1030   -0.2950    0.0830 ca        1 TNK     -0.088300
      2 C2          1.1210   -1.1780    0.4640 ca        1 TNK     -0.119000
      3 C3          1.6100   -1.1640    1.7680 ca        1 TNK     -0.128500
      4 C4          1.0960   -0.2620    2.7000 ca        1 TNK     -0.125000
      5 C5          0.0940    0.6300    2.3220 ca        1 TNK     -0.128500
      6 C6         -0.4010    0.6160    1.0190 ca        1 TNK     -0.119000
      7 C7         -0.9260   -1.6190   -1.7760 cc        1 TNK      0.111400
      8 N8         -0.1690   -2.3670   -2.6910 n         1 TNK     -0.407000
      9 C9         -0.5250   -3.7120   -2.9760 c         1 TNK      0.804500
     10 O9          0.2430   -4.4510   -3.6340 o         1 TNK     -0.660500
     11 N10        -1.7570   -4.1880   -2.5290 ns        1 TNK     -0.582500
     12 C11        -2.6400   -3.4020   -1.7690 c         1 TNK      0.720700
     13 O11        -3.7620   -3.8810   -1.5290 o         1 TNK     -0.611500
     14 C12        -2.1380   -2.0860   -1.3240 cd        1 TNK     -0.239400
     15 C13        -0.3970   -0.2780   -1.3220 c3        1 TNK     -0.004900
     16 C14        -3.0160   -1.3310   -0.3770 c3        1 TNK      0.000500
     17 C15        -4.2900   -0.8820   -1.0690 c3        1 TNK     -0.095600
     18 C16        -3.3420   -2.1500    0.8590 c3        1 TNK     -0.095600
     19 C17         0.9930   -1.8380   -3.3910 c3        1 TNK      0.291800
     20 O17         2.1630   -1.7790   -2.5900 os        1 TNK     -0.427600
     21 C18         2.8650   -3.0280   -2.5100 c3        1 TNK      0.167700
     22 C19         4.0500   -2.8540   -1.6210 ca        1 TNK     -0.095300
     23 C20         4.5740   -3.9780   -0.9710 ca        1 TNK     -0.115000
     24 C21         5.7050   -3.8550   -0.1660 ca        1 TNK     -0.131500
     25 C22         6.3160   -2.6110   -0.0020 ca        1 TNK     -0.127000
     26 C23         5.7930   -1.4890   -0.6450 ca        1 TNK     -0.131500
     27 C24         4.6650   -1.6090   -1.4550 ca        1 TNK     -0.115000
     28 H2          1.5460   -1.8720   -0.2810 ha        1 TNK      0.140000
     29 H3          2.4080   -1.8630    2.0600 ha        1 TNK      0.134500
     30 H4          1.4830   -0.2530    3.7300 ha        1 TNK      0.133000
     31 H5         -0.3090    1.3480    3.0520 ha        1 TNK      0.134500
     32 H6         -1.1890    1.3270    0.7270 ha        1 TNK      0.140000
     33 HN1        -2.0160   -5.1150   -2.7930 hn        1 TNK      0.353500
     34 H131       -1.2280    0.4720   -1.4380 hc        1 TNK      0.073200
     35 H132        0.4520    0.0830   -1.9660 hc        1 TNK      0.073200
     36 H14        -2.4710   -0.4090   -0.0220 hc        1 TNK      0.051700
     37 H151       -4.9220   -0.3010   -0.3550 hc        1 TNK      0.042867
     38 H152       -4.8730   -1.7670   -1.4240 hc        1 TNK      0.042867
     39 H153       -4.0510   -0.2340   -1.9460 hc        1 TNK      0.042867
     40 H161       -2.4060   -2.5060    1.3500 hc        1 TNK      0.042867
     41 H162       -3.9080   -1.5180    1.5860 hc        1 TNK      0.042867
     42 H163       -3.9700   -3.0350    0.5960 hc        1 TNK      0.042867
     43 H171        0.8020   -0.7640   -3.6820 h2        1 TNK      0.086700
     44 H172        1.1720   -2.4700   -4.3100 h2        1 TNK      0.086700
     45 H181        3.1980   -3.3210   -3.5440 h1        1 TNK      0.054700
     46 H182        2.1730   -3.8210   -2.1150 h1        1 TNK      0.054700
     47 H20         4.0920   -4.9590   -1.0970 ha        1 TNK      0.140000
     48 H21         6.1160   -4.7400    0.3400 ha        1 TNK      0.133000
     49 H22         7.2080   -2.5160    0.6340 ha        1 TNK      0.132000
     50 H23         6.2710   -0.5070   -0.5150 ha        1 TNK      0.133000
     51 H24         4.2460   -0.7250   -1.9610 ha        1 TNK      0.140000
@<TRIPOS>BOND
     1    1    2 ar  
     2    1    6 ar  
     3    1   15 1   
     4    2    3 ar  
     5    2   28 1   
     6    3    4 ar  
     7    3   29 1   
     8    4    5 ar  
     9    4   30 1   
    10    5    6 ar  
    11    5   31 1   
    12    6   32 1   
    13    7    8 1   
    14    7   14 2   
    15    7   15 1   
    16    8    9 1   
    17    8   19 1   
    18    9   10 2   
    19    9   11 1   
    20   11   12 1   
    21   11   33 1   
    22   12   13 2   
    23   12   14 1   
    24   14   16 1   
    25   15   34 1   
    26   15   35 1   
    27   16   17 1   
    28   16   18 1   
    29   16   36 1   
    30   17   37 1   
    31   17   38 1   
    32   17   39 1   
    33   18   40 1   
    34   18   41 1   
    35   18   42 1   
    36   19   20 1   
    37   19   43 1   
    38   19   44 1   
    39   20   21 1   
    40   21   22 1   
    41   21   45 1   
    42   21   46 1   
    43   22   23 ar  
    44   22   27 ar  
    45   23   24 ar  
    46   23   47 1   
    47   24   25 ar  
    48   24   48 1   
    49   25   26 ar  
    50   25   49 1   
    51   26   27 ar  
    52   26   50 1   
    53   27   51 1   
@<TRIPOS>SUBSTRUCTURE
     1 TNK         1 TEMP              0 ****  ****    0 ROOT
