@<TRIPOS>MOLECULE
TNK
   51    53     1     0     0
SMALL
bcc


@<TRIPOS>ATOM
      1 C1          2.3790    0.3320    1.2630 ca        1 TNK     -0.083300
      2 C2          2.5020   -0.7260    0.3540 ca        1 TNK     -0.119500
      3 C3          3.6220   -1.5540    0.3880 ca        1 TNK     -0.129000
      4 C4          4.6320   -1.3290    1.3230 ca        1 TNK     -0.125000
      5 C5          4.5220   -0.2680    2.2210 ca        1 TNK     -0.129000
      6 C6          3.4010    0.5600    2.1930 ca        1 TNK     -0.119500
      7 C7         -0.1170    0.5200    1.3300 cc        1 TNK      0.111400
      8 N8         -0.9200    0.3910    0.1870 n         1 TNK     -0.405000
      9 C9         -2.0600   -0.4540    0.2130 c         1 TNK      0.806500
     10 O9         -2.6820   -0.7330   -0.8390 o         1 TNK     -0.667500
     11 N10        -2.4940   -0.9570    1.4400 n         1 TNK     -0.582500
     12 C11        -1.8210   -0.6940    2.6460 c         1 TNK      0.720700
     13 O11        -2.3610   -1.0870    3.6940 o         1 TNK     -0.612500
     14 C12        -0.5320    0.0200    2.5400 cd        1 TNK     -0.241400
     15 C13         1.2030    1.2470    1.2060 c3        1 TNK     -0.006900
     16 C14         0.2570    0.1470    3.8050 c3        1 TNK      0.000500
     17 C15        -0.4470    1.0680    4.7860 c3        1 TNK     -0.095600
     18 C16         0.5210   -1.2060    4.4410 c3        1 TNK     -0.095600
     19 C17        -0.6570    1.1060   -1.0560 c3        1 TNK      0.284800
     20 O17         0.4430    0.5760   -1.7780 os        1 TNK     -0.422600
     21 C18         0.1230   -0.5160   -2.6450 c3        1 TNK      0.165700
     22 C19        -0.5630   -0.0590   -3.8910 ca        1 TNK     -0.135300
     23 C20        -1.9500   -0.1920   -4.0190 ca        1 TNK     -0.110500
     24 C21        -2.5840    0.2140   -5.1940 ca        1 TNK     -0.136500
     25 C22        -1.8390    0.7550   -6.2410 ca        1 TNK     -0.120000
     26 C23        -0.4560    0.8930   -6.1140 ca        1 TNK     -0.136500
     27 C24         0.1810    0.4880   -4.9420 ca        1 TNK     -0.110500
     28 H2          1.7140   -0.8870   -0.4000 ha        1 TNK      0.138000
     29 H3          3.7090   -2.3860   -0.3270 ha        1 TNK      0.133000
     30 H4          5.5150   -1.9840    1.3490 ha        1 TNK      0.133000
     31 H5          5.3200   -0.0830    2.9550 ha        1 TNK      0.133000
     32 H6          3.3240    1.3970    2.9030 ha        1 TNK      0.138000
     33 HN1        -3.3320   -1.4980    1.4460 hn        1 TNK      0.353500
     34 H131        1.2820    1.8210    0.2410 hc        1 TNK      0.075700
     35 H132        1.2510    2.0070    2.0340 hc        1 TNK      0.075700
     36 H14         1.2650    0.5990    3.5690 hc        1 TNK      0.050700
     37 H151        0.1660    1.1700    5.7130 hc        1 TNK      0.042700
     38 H152       -0.5900    2.0800    4.3380 hc        1 TNK      0.042700
     39 H153       -1.4460    0.6510    5.0620 hc        1 TNK      0.042700
     40 H161       -0.4310   -1.6730    4.7920 hc        1 TNK      0.042700
     41 H162        1.0110   -1.8920    3.7100 hc        1 TNK      0.042700
     42 H163        1.1990   -1.0780    5.3200 hc        1 TNK      0.042700
     43 H171       -1.5930    1.0870   -1.6890 h2        1 TNK      0.090700
     44 H172       -0.3560    2.1670   -0.8190 h2        1 TNK      0.090700
     45 H181        1.1310   -0.9570   -2.8810 h1        1 TNK      0.065700
     46 H182       -0.5080   -1.2680   -2.0980 h1        1 TNK      0.065700
     47 H20        -2.5390   -0.6170   -3.1880 ha        1 TNK      0.147500
     48 H21        -3.6740    0.1050   -5.2910 ha        1 TNK      0.133500
     49 H22        -2.3400    1.0730   -7.1670 ha        1 TNK      0.131000
     50 H23         0.1330    1.3210   -6.9380 ha        1 TNK      0.133500
     51 H24         1.2710    0.5990   -4.8380 ha        1 TNK      0.147500
@<TRIPOS>BOND
     1    1    2 ar  
     2    1    6 ar  
     3    1   15 1   
     4    2    3 ar  
     5    2   28 1   
     6    3    4 ar  
     7    3   29 1   
     8    4    5 ar  
     9    4   30 1   
    10    5    6 ar  
    11    5   31 1   
    12    6   32 1   
    13    7    8 1   
    14    7   14 2   
    15    7   15 1   
    16    8    9 1   
    17    8   19 1   
    18    9   10 2   
    19    9   11 1   
    20   11   12 1   
    21   11   33 1   
    22   12   13 2   
    23   12   14 1   
    24   14   16 1   
    25   15   34 1   
    26   15   35 1   
    27   16   17 1   
    28   16   18 1   
    29   16   36 1   
    30   17   37 1   
    31   17   38 1   
    32   17   39 1   
    33   18   40 1   
    34   18   41 1   
    35   18   42 1   
    36   19   20 1   
    37   19   43 1   
    38   19   44 1   
    39   20   21 1   
    40   21   22 1   
    41   21   45 1   
    42   21   46 1   
    43   22   23 ar  
    44   22   27 ar  
    45   23   24 ar  
    46   23   47 1   
    47   24   25 ar  
    48   24   48 1   
    49   25   26 ar  
    50   25   49 1   
    51   26   27 ar  
    52   26   50 1   
    53   27   51 1   
@<TRIPOS>SUBSTRUCTURE
     1 TNK         1 TEMP              0 ****  ****    0 ROOT
