@<TRIPOS>MOLECULE
TNK
   51    53     1     0     0
SMALL
bcc


@<TRIPOS>ATOM
      1 C1          0.1040   -0.2990    0.0910 ca        1 TNK     -0.088300
      2 C2          1.1190   -1.1850    0.4680 ca        1 TNK     -0.119000
      3 C3          1.6070   -1.1780    1.7740 ca        1 TNK     -0.128500
      4 C4          1.0920   -0.2810    2.7100 ca        1 TNK     -0.125000
      5 C5          0.0910    0.6150    2.3340 ca        1 TNK     -0.128500
      6 C6         -0.4010    0.6080    1.0300 ca        1 TNK     -0.119000
      7 C7         -0.9250   -1.6120   -1.7770 cc        1 TNK      0.111400
      8 N8         -0.1660   -2.3560   -2.6940 n         1 TNK     -0.407000
      9 C9         -0.5230   -3.6990   -2.9860 c         1 TNK      0.804500
     10 O9          0.2450   -4.4360   -3.6460 o         1 TNK     -0.660500
     11 N10        -1.7580   -4.1760   -2.5440 n         1 TNK     -0.582500
     12 C11        -2.6410   -3.3920   -1.7820 c         1 TNK      0.720700
     13 O11        -3.7640   -3.8700   -1.5460 o         1 TNK     -0.611500
     14 C12        -2.1370   -2.0790   -1.3300 cd        1 TNK     -0.239400
     15 C13        -0.3940   -0.2740   -1.3150 c3        1 TNK     -0.004900
     16 C14        -3.0160   -1.3280   -0.3800 c3        1 TNK      0.000500
     17 C15        -4.2880   -0.8730   -1.0730 c3        1 TNK     -0.095600
     18 C16        -3.3470   -2.1520    0.8510 c3        1 TNK     -0.095600
     19 C17         0.9980   -1.8250   -3.3890 c3        1 TNK      0.291800
     20 O17         2.1660   -1.7720   -2.5860 os        1 TNK     -0.427600
     21 C18         2.8660   -3.0220   -2.5110 c3        1 TNK      0.167700
     22 C19         4.0510   -2.8540   -1.6210 ca        1 TNK     -0.095300
     23 C20         4.5730   -3.9830   -0.9760 ca        1 TNK     -0.115000
     24 C21         5.7030   -3.8650   -0.1700 ca        1 TNK     -0.131500
     25 C22         6.3150   -2.6230    0.0020 ca        1 TNK     -0.127000
     26 C23         5.7950   -1.4980   -0.6350 ca        1 TNK     -0.131500
     27 C24         4.6670   -1.6110   -1.4470 ca        1 TNK     -0.115000
     28 H2          1.5460   -1.8760   -0.2790 ha        1 TNK      0.140000
     29 H3          2.4030   -1.8800    2.0630 ha        1 TNK      0.134500
     30 H4          1.4770   -0.2770    3.7400 ha        1 TNK      0.133000
     31 H5         -0.3120    1.3290    3.0670 ha        1 TNK      0.134500
     32 H6         -1.1880    1.3220    0.7410 ha        1 TNK      0.140000
     33 HN1        -2.0170   -5.1010   -2.8130 hn        1 TNK      0.353500
     34 H131       -1.2240    0.4780   -1.4290 hc        1 TNK      0.073200
     35 H132        0.4560    0.0890   -1.9560 hc        1 TNK      0.073200
     36 H14        -2.4710   -0.4080   -0.0190 hc        1 TNK      0.051700
     37 H151       -4.9210   -0.2940   -0.3580 hc        1 TNK      0.042867
     38 H152       -4.0460   -0.2210   -1.9460 hc        1 TNK      0.042867
     39 H153       -4.8720   -1.7550   -1.4330 hc        1 TNK      0.042867
     40 H161       -3.9760   -3.0350    0.5810 hc        1 TNK      0.042867
     41 H162       -3.9130   -1.5230    1.5800 hc        1 TNK      0.042867
     42 H163       -2.4120   -2.5130    1.3420 hc        1 TNK      0.042867
     43 H171        0.8090   -0.7500   -3.6750 h2        1 TNK      0.086700
     44 H172        1.1770   -2.4530   -4.3110 h2        1 TNK      0.086700
     45 H181        3.2000   -3.3110   -3.5470 h1        1 TNK      0.054700
     46 H182        2.1730   -3.8160   -2.1210 h1        1 TNK      0.054700
     47 H20         4.0900   -4.9630   -1.1080 ha        1 TNK      0.140000
     48 H21         6.1120   -4.7550    0.3320 ha        1 TNK      0.133000
     49 H22         7.2070   -2.5330    0.6400 ha        1 TNK      0.132000
     50 H23         6.2740   -0.5170   -0.4990 ha        1 TNK      0.133000
     51 H24         4.2500   -0.7250   -1.9490 ha        1 TNK      0.140000
@<TRIPOS>BOND
     1    1    2 ar  
     2    1    6 ar  
     3    1   15 1   
     4    2    3 ar  
     5    2   28 1   
     6    3    4 ar  
     7    3   29 1   
     8    4    5 ar  
     9    4   30 1   
    10    5    6 ar  
    11    5   31 1   
    12    6   32 1   
    13    7    8 1   
    14    7   14 2   
    15    7   15 1   
    16    8    9 1   
    17    8   19 1   
    18    9   10 2   
    19    9   11 1   
    20   11   12 1   
    21   11   33 1   
    22   12   13 2   
    23   12   14 1   
    24   14   16 1   
    25   15   34 1   
    26   15   35 1   
    27   16   17 1   
    28   16   18 1   
    29   16   36 1   
    30   17   37 1   
    31   17   38 1   
    32   17   39 1   
    33   18   40 1   
    34   18   41 1   
    35   18   42 1   
    36   19   20 1   
    37   19   43 1   
    38   19   44 1   
    39   20   21 1   
    40   21   22 1   
    41   21   45 1   
    42   21   46 1   
    43   22   23 ar  
    44   22   27 ar  
    45   23   24 ar  
    46   23   47 1   
    47   24   25 ar  
    48   24   48 1   
    49   25   26 ar  
    50   25   49 1   
    51   26   27 ar  
    52   26   50 1   
    53   27   51 1   
@<TRIPOS>SUBSTRUCTURE
     1 TNK         1 TEMP              0 ****  ****    0 ROOT
