@<TRIPOS>MOLECULE
TNL
   21    21     1     0     0
SMALL
bcc


@<TRIPOS>ATOM
      1 C1         -0.0280    0.0160   -0.0500 ca        1 TNL      0.107700
      2 C7         -0.7670    0.0830   -1.3300 c3        1 TNL     -0.095800
      3 C2          1.3860   -0.0120   -0.0080 ca        1 TNL     -0.206200
      4 N2          2.2010   -0.0770   -1.2590 no        1 TNL      0.318200
      5 O21         3.3190    0.3590   -1.2240 o         1 TNL     -0.182500
      6 O22         1.7320   -0.5750   -2.2430 o         1 TNL     -0.182500
      7 C3          2.0990    0.0110    1.2000 ca        1 TNL      0.020000
      8 C4          1.3890    0.0270    2.4070 ca        1 TNL     -0.206200
      9 N4          2.1340    0.0550    3.6990 no        1 TNL      0.323200
     10 O41         1.5060    0.0640    4.7200 o         1 TNL     -0.183000
     11 O42         3.3330    0.0660    3.6660 o         1 TNL     -0.183000
     12 C5         -0.0110    0.0090    2.4170 ca        1 TNL      0.020000
     13 C6         -0.7000   -0.0130    1.1960 ca        1 TNL     -0.206200
     14 N6         -2.1910   -0.0800    1.2750 no        1 TNL      0.318200
     15 O61        -2.7200    0.3550    2.2610 o         1 TNL     -0.182500
     16 O62        -2.8070   -0.5790    0.3760 o         1 TNL     -0.182500
     17 H7C1       -1.7480    0.6120   -1.2270 hc        1 TNL      0.091700
     18 H7C2       -0.9720   -0.9610   -1.6880 hc        1 TNL      0.091700
     19 H7C3       -0.1880    0.6140   -2.1270 hc        1 TNL      0.091700
     20 H3          3.2100    0.0190    1.2030 ha        1 TNL      0.214000
     21 H5         -0.5640    0.0170    3.3810 ha        1 TNL      0.214000
@<TRIPOS>BOND
     1    1    2 1   
     2    1    3 ar  
     3    1   13 ar  
     4    2   17 1   
     5    2   18 1   
     6    2   19 1   
     7    3    4 1   
     8    3    7 ar  
     9    4    5 1   
    10    4    6 1   
    11    7    8 ar  
    12    7   20 1   
    13    8    9 1   
    14    8   12 ar  
    15    9   10 1   
    16    9   11 1   
    17   12   13 ar  
    18   12   21 1   
    19   13   14 1   
    20   14   15 1   
    21   14   16 1   
@<TRIPOS>SUBSTRUCTURE
     1 TNL         1 TEMP              0 ****  ****    0 ROOT
