@<TRIPOS>MOLECULE
TNL
   21    21     1     0     0
SMALL
bcc


@<TRIPOS>ATOM
      1 C1         -0.0690    0.0410   -1.2820 ca        1 TNL      0.107700
      2 C7         -0.1220    0.1420   -2.7560 c3        1 TNL     -0.096800
      3 C2          1.1730   -0.0110   -0.6030 ca        1 TNL     -0.205700
      4 N2          2.4670   -0.0530   -1.3510 no        1 TNL      0.317700
      5 O21         3.4610    0.2850   -0.7700 o         1 TNL     -0.182750
      6 O22         2.4800   -0.4330   -2.4880 o         1 TNL     -0.182750
      7 C3          1.2600   -0.0330    0.7970 ca        1 TNL      0.020500
      8 C4          0.0800   -0.0260    1.5500 ca        1 TNL     -0.206200
      9 N4          0.1570   -0.0440    3.0390 no        1 TNL      0.323200
     10 O41        -0.8670   -0.0460    3.6640 o         1 TNL     -0.182500
     11 O42         1.2400   -0.0580    3.5550 o         1 TNL     -0.182500
     12 C5         -1.1720   -0.0100    0.9240 ca        1 TNL      0.020500
     13 C6         -1.2310    0.0050   -0.4780 ca        1 TNL     -0.205700
     14 N6         -2.6010   -0.0250   -1.0790 no        1 TNL      0.317700
     15 O61        -3.4940    0.4870   -0.4630 o         1 TNL     -0.182750
     16 O62        -2.7700   -0.5740   -2.1310 o         1 TNL     -0.182750
     17 H7C1        0.0830   -0.8680   -3.2020 hc        1 TNL      0.092033
     18 H7C2       -1.1100    0.4970   -3.1410 hc        1 TNL      0.092033
     19 H7C3        0.6590    0.8490   -3.1410 hc        1 TNL      0.092033
     20 H3          2.2490   -0.0500    1.3040 ha        1 TNL      0.214000
     21 H5         -2.1020   -0.0040    1.5310 ha        1 TNL      0.214000
@<TRIPOS>BOND
     1    1    2 1   
     2    1    3 ar  
     3    1   13 ar  
     4    2   17 1   
     5    2   18 1   
     6    2   19 1   
     7    3    4 1   
     8    3    7 ar  
     9    4    5 1   
    10    4    6 1   
    11    7    8 ar  
    12    7   20 1   
    13    8    9 1   
    14    8   12 ar  
    15    9   10 1   
    16    9   11 1   
    17   12   13 ar  
    18   12   21 1   
    19   13   14 1   
    20   14   15 1   
    21   14   16 1   
@<TRIPOS>SUBSTRUCTURE
     1 TNL         1 TEMP              0 ****  ****    0 ROOT
