@<TRIPOS>MOLECULE
TNL
   21    21     1     0     0
SMALL
bcc


@<TRIPOS>ATOM
      1 C1         -0.0370    0.0120   -0.0460 ca        1 TNL      0.107700
      2 C7         -0.7590    0.0750   -1.3350 c3        1 TNL     -0.096800
      3 C2          1.3780   -0.0210   -0.0070 ca        1 TNL     -0.205700
      4 N2          2.1880   -0.0820   -1.2630 no        1 TNL      0.317700
      5 O21         3.3340    0.2710   -1.2080 o         1 TNL     -0.182750
      6 O22         1.6860   -0.4920   -2.2710 o         1 TNL     -0.182750
      7 C3          2.0940   -0.0060    1.1980 ca        1 TNL      0.020500
      8 C4          1.3880    0.0200    2.4070 ca        1 TNL     -0.206200
      9 N4          2.1360    0.0420    3.6970 no        1 TNL      0.323200
     10 O41         1.5110    0.0560    4.7200 o         1 TNL     -0.182500
     11 O42         3.3350    0.0420    3.6610 o         1 TNL     -0.182500
     12 C5         -0.0120    0.0200    2.4210 ca        1 TNL      0.020500
     13 C6         -0.7050   -0.0030    1.2010 ca        1 TNL     -0.205700
     14 N6         -2.1970   -0.0490    1.2920 no        1 TNL      0.317700
     15 O61        -2.7160    0.4790    2.2360 o         1 TNL     -0.182750
     16 O62        -2.8210   -0.6260    0.4470 o         1 TNL     -0.182750
     17 H7C1       -1.8180    0.4190   -1.2350 hc        1 TNL      0.092033
     18 H7C2       -0.7670   -0.9470   -1.8020 hc        1 TNL      0.092033
     19 H7C3       -0.2480    0.7710   -2.0500 hc        1 TNL      0.092033
     20 H3          3.2060   -0.0090    1.1980 ha        1 TNL      0.214000
     21 H5         -0.5620    0.0410    3.3850 ha        1 TNL      0.214000
@<TRIPOS>BOND
     1    1    2 1   
     2    1    3 ar  
     3    1   13 ar  
     4    2   17 1   
     5    2   18 1   
     6    2   19 1   
     7    3    4 1   
     8    3    7 ar  
     9    4    5 1   
    10    4    6 1   
    11    7    8 ar  
    12    7   20 1   
    13    8    9 1   
    14    8   12 ar  
    15    9   10 1   
    16    9   11 1   
    17   12   13 ar  
    18   12   21 1   
    19   13   14 1   
    20   14   15 1   
    21   14   16 1   
@<TRIPOS>SUBSTRUCTURE
     1 TNL         1 TEMP              0 ****  ****    0 ROOT
