@<TRIPOS>MOLECULE
TNL
   21    21     1     0     0
SMALL
bcc


@<TRIPOS>ATOM
      1 C1         -0.0380    0.0080   -0.0450 ca        1 TNL      0.107700
      2 C7         -0.7610    0.0650   -1.3340 c3        1 TNL     -0.096800
      3 C2          1.3780   -0.0180   -0.0080 ca        1 TNL     -0.205700
      4 N2          2.1870   -0.0770   -1.2640 no        1 TNL      0.317700
      5 O21         3.3310    0.2830   -1.2110 o         1 TNL     -0.182750
      6 O22         1.6870   -0.4920   -2.2710 o         1 TNL     -0.182750
      7 C3          2.0950    0.0030    1.1970 ca        1 TNL      0.020500
      8 C4          1.3890    0.0270    2.4060 ca        1 TNL     -0.206200
      9 N4          2.1380    0.0550    3.6950 no        1 TNL      0.323200
     10 O41         1.5130    0.0680    4.7190 o         1 TNL     -0.182500
     11 O42         3.3370    0.0620    3.6590 o         1 TNL     -0.182500
     12 C5         -0.0110    0.0200    2.4210 ca        1 TNL      0.020500
     13 C6         -0.7040   -0.0080    1.2020 ca        1 TNL     -0.205700
     14 N6         -2.1960   -0.0620    1.2940 no        1 TNL      0.317700
     15 O61        -2.7180    0.4650    2.2380 o         1 TNL     -0.182750
     16 O62        -2.8180   -0.6420    0.4490 o         1 TNL     -0.182750
     17 H7C1       -0.2540    0.7620   -2.0510 hc        1 TNL      0.092033
     18 H7C2       -1.8210    0.4060   -1.2340 hc        1 TNL      0.092033
     19 H7C3       -0.7650   -0.9580   -1.7990 hc        1 TNL      0.092033
     20 H3          3.2060    0.0050    1.1970 ha        1 TNL      0.214000
     21 H5         -0.5610    0.0400    3.3860 ha        1 TNL      0.214000
@<TRIPOS>BOND
     1    1    2 1   
     2    1    3 ar  
     3    1   13 ar  
     4    2   17 1   
     5    2   18 1   
     6    2   19 1   
     7    3    4 1   
     8    3    7 ar  
     9    4    5 1   
    10    4    6 1   
    11    7    8 ar  
    12    7   20 1   
    13    8    9 1   
    14    8   12 ar  
    15    9   10 1   
    16    9   11 1   
    17   12   13 ar  
    18   12   21 1   
    19   13   14 1   
    20   14   15 1   
    21   14   16 1   
@<TRIPOS>SUBSTRUCTURE
     1 TNL         1 TEMP              0 ****  ****    0 ROOT
