@<TRIPOS>MOLECULE
TNM
   35    36     1     0     0
SMALL
bcc


@<TRIPOS>ATOM
      1 PA         -1.3870   -1.4530   -0.4970 p5        1 TNM      1.636300
      2 O1A        -0.3580   -2.0850   -1.3430 o         1 TNM     -0.935300
      3 O2A        -1.3650   -2.3470    0.8700 oh        1 TNM     -0.781400
      4 O3A        -2.8250   -1.3180   -0.9360 os        1 TNM     -0.760800
      5 PB         -4.6040   -0.9520   -1.4270 p5        1 TNM      1.411900
      6 O1B        -4.3670   -0.2450   -2.7210 o         1 TNM     -0.920167
      7 O2B        -5.2070   -2.3160   -1.5050 o         1 TNM     -0.920167
      8 O3B        -5.0010   -0.1000   -0.2660 o         1 TNM     -0.920167
      9 C9'        -0.8580    0.0810    0.0500 c3        1 TNM     -0.142800
     10 O9'         0.0820   -0.2070    1.0700 os        1 TNM     -0.412600
     11 C8'        -0.2800    1.9930    2.0990 c3        1 TNM     -0.115100
     12 C7'         0.6970    0.9000    1.7220 c3        1 TNM      0.141100
     13 C6'         1.8480    1.4470    0.8480 c3        1 TNM      0.035300
     14 N9          2.8430    2.1710    1.5830 nh        1 TNM     -0.240200
     15 C4          3.6160    3.2210    1.0630 ca        1 TNM      0.370800
     16 N3          3.6330    3.8540   -0.1370 nb        1 TNM     -0.714000
     17 C2          4.5900    4.8150   -0.2260 ca        1 TNM      0.568900
     18 N1          5.5050    5.2250    0.6860 nb        1 TNM     -0.784000
     19 C6          5.4800    4.6060    1.9110 ca        1 TNM      0.554200
     20 N6          6.3520    5.0490    2.9480 nh        1 TNM     -0.894500
     21 C5          4.5540    3.5630    2.1660 ca        1 TNM     -0.125200
     22 N7          4.3170    2.7280    3.2530 ne        1 TNM     -0.693800
     23 C8          3.3030    1.8980    2.9030 c1        1 TNM      0.074400
     24 H9'        -0.3760    0.6750   -0.7630 h1        1 TNM      0.065200
     25 H9'A       -1.7120    0.6820    0.4540 h1        1 TNM      0.065200
     26 H8'         0.2220    2.7190    2.7810 hc        1 TNM      0.037700
     27 H8'A       -1.1650    1.5510    2.6160 hc        1 TNM      0.037700
     28 H8'B       -0.6370    2.5370    1.1920 hc        1 TNM      0.037700
     29 H7'         1.1310    0.4290    2.6540 h1        1 TNM      0.087700
     30 H6'         2.3330    0.5640    0.3380 h1        1 TNM      0.047700
     31 H6'A        1.4170    2.1090    0.0450 h1        1 TNM      0.047700
     32 H2          4.6310    5.3430   -1.1980 h5        1 TNM      0.004100
     33 HN6         7.2690    5.2480    2.6020 hn        1 TNM      0.356800
     34 HN6A        6.3960    4.3580    3.6720 hn        1 TNM      0.356800
     35 H8         -0.4790   -2.5520    1.1420 ho        1 TNM      0.423000
@<TRIPOS>BOND
     1    1    2 2   
     2    1    3 1   
     3    1    4 1   
     4    1    9 1   
     5    3   35 1   
     6    4    5 1   
     7    5    6 1   
     8    5    7 1   
     9    5    8 1   
    10    9   10 1   
    11    9   24 1   
    12    9   25 1   
    13   10   12 1   
    14   11   12 1   
    15   11   26 1   
    16   11   27 1   
    17   11   28 1   
    18   12   13 1   
    19   12   29 1   
    20   13   14 1   
    21   13   30 1   
    22   13   31 1   
    23   14   15 1   
    24   14   23 2   
    25   15   16 ar  
    26   15   21 ar  
    27   16   17 ar  
    28   17   18 ar  
    29   17   32 1   
    30   18   19 ar  
    31   19   20 1   
    32   19   21 ar  
    33   20   33 1   
    34   20   34 1   
    35   21   22 1   
    36   22   23 2   
@<TRIPOS>SUBSTRUCTURE
     1 TNM         1 TEMP              0 ****  ****    0 ROOT
