@<TRIPOS>MOLECULE
TNM
   35    36     1     0     0
SMALL
bcc


@<TRIPOS>ATOM
      1 PA         -1.4920   -0.6990   -1.3770 p5        1 TNM      1.635300
      2 O1A        -1.8920    0.2690   -2.4160 o         1 TNM     -0.933300
      3 O2A        -0.1190   -1.3130   -2.0190 oh        1 TNM     -0.793400
      4 O3A        -2.3850   -1.8580   -0.9950 os        1 TNM     -0.766800
      5 PB         -3.5070   -3.2160   -0.3590 p5        1 TNM      1.412900
      6 O1B        -3.8020   -3.9950   -1.5990 o         1 TNM     -0.921167
      7 O2B        -2.5990   -3.8570    0.6400 o         1 TNM     -0.921167
      8 O3B        -4.6130   -2.3750    0.1920 o         1 TNM     -0.921167
      9 C9'        -0.9570   -0.0100    0.0830 c3        1 TNM     -0.127800
     10 O9'        -0.1010    1.0640   -0.2580 os        1 TNM     -0.401600
     11 C8'        -0.6020    2.4100    1.7120 c3        1 TNM     -0.127100
     12 C7'         0.4670    1.7460    0.8680 c3        1 TNM      0.131100
     13 C6'         1.4180    2.7910    0.2310 c3        1 TNM      0.062300
     14 N9          2.2720    3.4880    1.1420 nh        1 TNM     -0.245200
     15 C4          3.6330    3.2220    1.3600 ca        1 TNM      0.373800
     16 N3          4.4920    2.3040    0.8510 nb        1 TNM     -0.711000
     17 C2          5.7470    2.3960    1.3630 ca        1 TNM      0.571900
     18 N1          6.2550    3.2530    2.2830 nb        1 TNM     -0.784000
     19 C6          5.4000    4.2040    2.7830 ca        1 TNM      0.557200
     20 N6          5.8890    5.1950    3.6830 nh        1 TNM     -0.895500
     21 C5          4.0450    4.2360    2.3660 ca        1 TNM     -0.126200
     22 N7          2.9530    5.0320    2.7000 ne        1 TNM     -0.692800
     23 C8          1.9010    4.5880    1.9720 c1        1 TNM      0.070400
     24 H9'        -0.4090   -0.7610    0.7090 h1        1 TNM      0.064700
     25 H9'A       -1.8210    0.3550    0.6940 h1        1 TNM      0.064700
     26 H8'        -1.0990    1.6590    2.3710 hc        1 TNM      0.043033
     27 H8'A       -1.3770    2.8680    1.0510 hc        1 TNM      0.043033
     28 H8'B       -0.1480    3.2120    2.3450 hc        1 TNM      0.043033
     29 H7'         1.0480    1.0070    1.4850 h1        1 TNM      0.034700
     30 H6'         0.7740    3.5540   -0.2910 h1        1 TNM      0.057200
     31 H6'A        2.0400    2.2560   -0.5410 h1        1 TNM      0.057200
     32 H2          6.4650    1.6480    0.9750 h5        1 TNM      0.006100
     33 HN6         5.1220    5.6320    4.1550 hn        1 TNM      0.357800
     34 HN6A        6.5310    4.8100    4.3470 hn        1 TNM      0.357800
     35 H8          0.0750   -0.9180   -2.8620 ho        1 TNM      0.425000
@<TRIPOS>BOND
     1    1    2 2   
     2    1    3 1   
     3    1    4 1   
     4    1    9 1   
     5    3   35 1   
     6    4    5 1   
     7    5    6 1   
     8    5    7 1   
     9    5    8 1   
    10    9   10 1   
    11    9   24 1   
    12    9   25 1   
    13   10   12 1   
    14   11   12 1   
    15   11   26 1   
    16   11   27 1   
    17   11   28 1   
    18   12   13 1   
    19   12   29 1   
    20   13   14 1   
    21   13   30 1   
    22   13   31 1   
    23   14   15 1   
    24   14   23 2   
    25   15   16 ar  
    26   15   21 ar  
    27   16   17 ar  
    28   17   18 ar  
    29   17   32 1   
    30   18   19 ar  
    31   19   20 1   
    32   19   21 ar  
    33   20   33 1   
    34   20   34 1   
    35   21   22 1   
    36   22   23 2   
@<TRIPOS>SUBSTRUCTURE
     1 TNM         1 TEMP              0 ****  ****    0 ROOT
