@<TRIPOS>MOLECULE
TNM
   35    36     1     0     0
SMALL
bcc


@<TRIPOS>ATOM
      1 PA         -1.9340   -0.2380   -1.2230 p5        1 TNM      1.629300
      2 O1A        -2.4900    0.9160   -1.9460 o         1 TNM     -0.904300
      3 O2A        -0.8540   -1.0280   -2.1430 oh        1 TNM     -0.823400
      4 O3A        -2.8430   -1.3890   -0.8030 os        1 TNM     -0.791800
      5 PB         -3.5520   -3.0700   -0.4270 p5        1 TNM      1.414900
      6 O1B        -2.5140   -3.8190   -1.2090 o         1 TNM     -0.926167
      7 O2B        -3.4400   -3.1100    1.0620 o         1 TNM     -0.926167
      8 O3B        -4.9330   -3.0370   -0.9930 o         1 TNM     -0.926167
      9 C9'        -1.0450    0.1720    0.1730 c3        1 TNM     -0.124800
     10 O9'        -0.2920    1.3300   -0.1290 os        1 TNM     -0.393600
     11 C8'        -0.4040    2.3370    2.0860 c3        1 TNM     -0.126100
     12 C7'         0.4860    1.8240    0.9710 c3        1 TNM      0.128100
     13 C6'         1.3340    2.9630    0.3500 c3        1 TNM      0.062300
     14 N9          2.3360    3.5250    1.2020 nh        1 TNM     -0.245200
     15 C4          3.7030    3.2060    1.1880 ca        1 TNM      0.373800
     16 N3          4.4460    2.3440    0.4500 nb        1 TNM     -0.710000
     17 C2          5.7630    2.3440    0.7840 ca        1 TNM      0.570900
     18 N1          6.4270    3.0650    1.7200 nb        1 TNM     -0.784000
     19 C6          5.6870    3.9600    2.4540 ca        1 TNM      0.556200
     20 N6          6.3350    4.8170    3.3910 nv        1 TNM     -0.895500
     21 C5          4.2900    4.0730    2.2440 ca        1 TNM     -0.126200
     22 N7          3.2860    4.8390    2.8290 ne        1 TNM     -0.693800
     23 C8          2.1260    4.5130    2.2100 c1        1 TNM      0.070400
     24 H9'        -0.3640   -0.6610    0.4820 h1        1 TNM      0.058200
     25 H9'A       -1.7360    0.3640    1.0330 h1        1 TNM      0.058200
     26 H8'         0.1660    3.0390    2.7420 hc        1 TNM      0.041700
     27 H8'A       -1.2790    2.8780    1.6530 hc        1 TNM      0.041700
     28 H8'B       -0.7830    1.4870    2.7030 hc        1 TNM      0.041700
     29 H7'         1.1510    1.0000    1.3490 h1        1 TNM      0.033700
     30 H6'         1.8130    2.5570   -0.5840 h1        1 TNM      0.058700
     31 H6'A        0.6240    3.7900    0.0620 h1        1 TNM      0.058700
     32 H2          6.3910    1.6390    0.2060 h5        1 TNM      0.006100
     33 HN6         7.0480    4.3360    3.9030 hn        1 TNM      0.357800
     34 HN6A        5.6580    5.2050    4.0190 hn        1 TNM      0.357800
     35 H8         -0.9990   -1.9750   -2.1690 ho        1 TNM      0.476000
@<TRIPOS>BOND
     1    1    2 2   
     2    1    3 1   
     3    1    4 1   
     4    1    9 1   
     5    3   35 1   
     6    4    5 1   
     7    5    6 1   
     8    5    7 1   
     9    5    8 1   
    10    9   10 1   
    11    9   24 1   
    12    9   25 1   
    13   10   12 1   
    14   11   12 1   
    15   11   26 1   
    16   11   27 1   
    17   11   28 1   
    18   12   13 1   
    19   12   29 1   
    20   13   14 1   
    21   13   30 1   
    22   13   31 1   
    23   14   15 1   
    24   14   23 2   
    25   15   16 ar  
    26   15   21 ar  
    27   16   17 ar  
    28   17   18 ar  
    29   17   32 1   
    30   18   19 ar  
    31   19   20 1   
    32   19   21 ar  
    33   20   33 1   
    34   20   34 1   
    35   21   22 1   
    36   22   23 2   
@<TRIPOS>SUBSTRUCTURE
     1 TNM         1 TEMP              0 ****  ****    0 ROOT
