@<TRIPOS>MOLECULE
TNM
   35    36     1     0     0
SMALL
bcc


@<TRIPOS>ATOM
      1 PA         -2.9280    1.7680   -1.0690 p5        1 TNM      1.629300
      2 O1A        -2.6040    2.7970   -2.0690 o         1 TNM     -0.904300
      3 O2A        -3.2000    0.3360   -1.7830 oh        1 TNM     -0.823400
      4 O3A        -4.1840    1.9010   -0.2130 os        1 TNM     -0.791800
      5 PB         -5.7400    1.5630    0.7540 p5        1 TNM      1.414900
      6 O1B        -5.9610    0.2040    0.1600 o         1 TNM     -0.926167
      7 O2B        -5.2320    1.6170    2.1570 o         1 TNM     -0.926167
      8 O3B        -6.6860    2.6430    0.3430 o         1 TNM     -0.926167
      9 C9'        -1.6640    1.4350    0.0270 c3        1 TNM     -0.124800
     10 O9'        -0.4540    1.4480   -0.7040 os        1 TNM     -0.393600
     11 C8'         0.9470    2.3610    1.0660 c3        1 TNM     -0.126100
     12 C7'         0.7140    1.2190    0.0960 c3        1 TNM      0.128100
     13 C6'         1.8630    1.1080   -0.9390 c3        1 TNM      0.062300
     14 N9          3.1320    0.7080   -0.4150 nh        1 TNM     -0.245200
     15 C4          3.6690   -0.5880   -0.4560 ca        1 TNM      0.373800
     16 N3          3.2080   -1.7670   -0.9430 nb        1 TNM     -0.710000
     17 C2          4.0680   -2.8020   -0.7550 ca        1 TNM      0.570900
     18 N1          5.2920   -2.8270   -0.1710 nb        1 TNM     -0.784000
     19 C6          5.7780   -1.6320    0.3010 ca        1 TNM      0.556200
     20 N6          7.0940   -1.5660    0.8430 nh        1 TNM     -0.895500
     21 C5          4.9960   -0.4540    0.2000 ca        1 TNM     -0.126200
     22 N7          5.1870    0.8660    0.5990 ne        1 TNM     -0.693800
     23 C8          4.0800    1.5550    0.2340 c1        1 TNM      0.070400
     24 H9'        -1.6410    2.2030    0.8420 h1        1 TNM      0.058200
     25 H9'A       -1.8060    0.4410    0.5220 h1        1 TNM      0.058200
     26 H8'         0.2840    2.2550    1.9580 hc        1 TNM      0.041700
     27 H8'A        2.0130    2.3710    1.4010 hc        1 TNM      0.041700
     28 H8'B        0.7170    3.3330    0.5680 hc        1 TNM      0.041700
     29 H7'         0.5930    0.2510    0.6550 h1        1 TNM      0.033700
     30 H6'         1.5330    0.3810   -1.7330 h1        1 TNM      0.058700
     31 H6'A        1.9890    2.1250   -1.4090 h1        1 TNM      0.058700
     32 H2          3.7110   -3.7800   -1.1310 h5        1 TNM      0.006100
     33 HN6         7.3020   -2.3620    1.4120 hn        1 TNM      0.357800
     34 HN6A        7.2000   -0.7230    1.3730 hn        1 TNM      0.357800
     35 H8         -4.0070   -0.0880   -1.4870 ho        1 TNM      0.476000
@<TRIPOS>BOND
     1    1    2 2   
     2    1    3 1   
     3    1    4 1   
     4    1    9 1   
     5    3   35 1   
     6    4    5 1   
     7    5    6 1   
     8    5    7 1   
     9    5    8 1   
    10    9   10 1   
    11    9   24 1   
    12    9   25 1   
    13   10   12 1   
    14   11   12 1   
    15   11   26 1   
    16   11   27 1   
    17   11   28 1   
    18   12   13 1   
    19   12   29 1   
    20   13   14 1   
    21   13   30 1   
    22   13   31 1   
    23   14   15 1   
    24   14   23 2   
    25   15   16 ar  
    26   15   21 ar  
    27   16   17 ar  
    28   17   18 ar  
    29   17   32 1   
    30   18   19 ar  
    31   19   20 1   
    32   19   21 ar  
    33   20   33 1   
    34   20   34 1   
    35   21   22 1   
    36   22   23 2   
@<TRIPOS>SUBSTRUCTURE
     1 TNM         1 TEMP              0 ****  ****    0 ROOT
