@<TRIPOS>MOLECULE
TNP
   38    40     1     0     0
SMALL
bcc


@<TRIPOS>ATOM
      1 N1          0.0600    0.1340   -0.0190 nb        1 TNP     -0.685000
      2 C2          1.3790    0.2040    0.0280 ca        1 TNP      0.434200
      3 C3          2.1360    0.1520    1.2410 ca        1 TNP     -0.137600
      4 C4          1.4300    0.0300    2.4220 ca        1 TNP     -0.093000
      5 C5         -0.7320   -0.1060    3.6400 ca        1 TNP     -0.012300
      6 C6         -2.0960    0.0480    3.6170 ca        1 TNP     -0.069300
      7 C7         -4.2240    0.0940    2.3690 ca        1 TNP     -0.022000
      8 C8         -4.9350    0.0420    1.1780 ca        1 TNP     -0.092300
      9 C9         -4.2080   -0.1020   -0.0180 ca        1 TNP     -0.031300
     10 N10        -2.8500   -0.1620   -0.0550 na        1 TNP      0.059900
     11 C11        -2.1120   -0.0450    1.1220 ca        1 TNP     -0.010600
     12 C12        -0.6500    0.0070    1.1510 ca        1 TNP      0.368600
     13 C13         0.0110   -0.0430    2.4110 ca        1 TNP     -0.095300
     14 C14        -2.8110    0.0470    2.3670 ca        1 TNP     -0.034000
     15 C15         3.6080    0.2380    1.1920 c3        1 TNP     -0.070800
     16 C16         0.0100   -0.3180    4.9070 c3        1 TNP     -0.077800
     17 C17        -2.8800    0.2120    4.8690 c3        1 TNP     -0.071800
     18 C18        -6.4110    0.1280    1.1340 c3        1 TNP     -0.069800
     19 C19        -2.2490   -0.3940   -1.3650 c3        1 TNP     -0.015400
     20 H2          1.8990    0.3130   -0.9440 h4        1 TNP      0.048100
     21 H4          1.9710    0.0090    3.3830 ha        1 TNP      0.166000
     22 H7         -4.7780    0.1610    3.3230 ha        1 TNP      0.183000
     23 H9         -4.7500   -0.1830   -0.9850 h4        1 TNP      0.201000
     24 H151        3.9250    1.1940    0.7030 hc        1 TNP      0.068367
     25 H152        4.0550    0.2000    2.2160 hc        1 TNP      0.068367
     26 H153        4.0240   -0.6130    0.5930 hc        1 TNP      0.068367
     27 H161        0.8630   -1.0270    4.7550 hc        1 TNP      0.069033
     28 H162        0.4130    0.6540    5.2880 hc        1 TNP      0.069033
     29 H163       -0.6450   -0.7650    5.6970 hc        1 TNP      0.069033
     30 H171       -3.6140    1.0510    4.7680 hc        1 TNP      0.065033
     31 H172       -3.4330   -0.7300    5.1130 hc        1 TNP      0.065033
     32 H173       -2.2230    0.4680    5.7380 hc        1 TNP      0.065033
     33 H181       -6.7260    1.1940    0.9920 hc        1 TNP      0.075700
     34 H182       -6.8590   -0.2450    2.0890 hc        1 TNP      0.075700
     35 H183       -6.8270   -0.4760    0.2890 hc        1 TNP      0.075700
     36 H191       -1.5350   -1.2590   -1.3080 h1        1 TNP      0.098367
     37 H192       -3.0510   -0.6470   -2.1120 h1        1 TNP      0.098367
     38 H193       -1.7170    0.5350   -1.7090 h1        1 TNP      0.098367
@<TRIPOS>BOND
     1    1    2 ar  
     2    1   12 ar  
     3    2    3 ar  
     4    2   20 1   
     5    3    4 ar  
     6    3   15 1   
     7    4   13 ar  
     8    4   21 1   
     9    5    6 ar  
    10    5   13 ar  
    11    5   16 1   
    12    6   14 ar  
    13    6   17 1   
    14    7    8 ar  
    15    7   14 ar  
    16    7   22 1   
    17    8    9 ar  
    18    8   18 1   
    19    9   10 1   
    20    9   23 1   
    21   10   11 2   
    22   10   19 1   
    23   11   12 ar  
    24   11   14 ar  
    25   12   13 ar  
    26   15   24 1   
    27   15   25 1   
    28   15   26 1   
    29   16   27 1   
    30   16   28 1   
    31   16   29 1   
    32   17   30 1   
    33   17   31 1   
    34   17   32 1   
    35   18   33 1   
    36   18   34 1   
    37   18   35 1   
    38   19   36 1   
    39   19   37 1   
    40   19   38 1   
@<TRIPOS>SUBSTRUCTURE
     1 TNP         1 TEMP              0 ****  ****    0 ROOT
