@<TRIPOS>MOLECULE
TNP
   38    32     1     0     0
SMALL
bcc


@<TRIPOS>ATOM
      1 N1          1.5170    0.0470   -1.8380 n1        1 TNP     -0.484800
      2 C2          2.8920    0.0470   -1.8380 c1        1 TNP      0.352300
      3 C3          3.5910    0.0470   -0.6310 c1        1 TNP     -0.048100
      4 C4          2.9050    0.0470    0.5600 c1        1 TNP      0.000000
      5 C5          0.7960    0.0470    1.7880 c1        1 TNP     -0.006600
      6 C6         -0.5980    0.0470    1.7850 c1        1 TNP     -0.006600
      7 C7         -2.7020    0.0470    0.5490 c1        1 TNP      0.000000
      8 C8         -3.3850    0.0470   -0.6380 c1        1 TNP     -0.048100
      9 C9         -2.6860    0.0470   -1.8460 c1        1 TNP      0.376300
     10 N10        -1.3120    0.0470   -1.8450 n1        1 TNP     -0.516300
     11 C11        -0.6170    0.0470   -0.6420 cg        1 TNP      0.027000
     12 C12         0.8220    0.0470   -0.6390 cg        1 TNP      0.027000
     13 C13         1.5100    0.0470    0.5590 c1        1 TNP     -0.032000
     14 C14        -1.3080    0.0470    0.5510 c1        1 TNP     -0.032000
     15 C15         5.1070    0.0610   -0.7890 c3        1 TNP     -0.104500
     16 C16         1.5970    0.1400    3.0850 c3        1 TNP     -0.109000
     17 C17        -1.3180   -0.1080    3.1230 c3        1 TNP     -0.109000
     18 C18        -4.9130    0.0770   -0.7000 c3        1 TNP     -0.104500
     19 C19        -0.9960   -0.3180   -3.1980 c3        1 TNP      0.186400
     20 H2          3.3790    0.0470   -2.6840 ha        1 TNP      0.127500
     21 H4          3.3930    0.0470    1.4050 ha        1 TNP      0.117000
     22 H7         -3.1920    0.0470    1.3940 ha        1 TNP      0.117000
     23 H9         -3.1730    0.0470   -2.6920 ha        1 TNP      0.143500
     24 H151        5.3870   -0.7190   -1.3040 hc        1 TNP      0.071867
     25 H152        5.5260    0.0360    0.0930 hc        1 TNP      0.071867
     26 H153        5.3780    0.8740   -1.2550 hc        1 TNP      0.071867
     27 H161        2.2260    0.8830    3.0260 hc        1 TNP      0.067033
     28 H162        0.9880    0.2870    3.8330 hc        1 TNP      0.067033
     29 H163        2.0880   -0.6920    3.2240 hc        1 TNP      0.067033
     30 H171       -0.7550   -0.6160    3.7380 hc        1 TNP      0.067033
     31 H172       -1.4980    0.7740    3.5000 hc        1 TNP      0.067033
     32 H173       -2.1610   -0.5810    2.9870 hc        1 TNP      0.067033
     33 H181       -5.2030    0.8680   -1.1940 hc        1 TNP      0.071867
     34 H182       -5.2750    0.1090    0.2060 hc        1 TNP      0.071867
     35 H183       -5.2360   -0.7250   -1.1530 hc        1 TNP      0.071867
     36 H191       -0.2440   -0.9390   -3.2010 h1        1 TNP      0.098367
     37 H192       -1.7720   -0.7440   -3.6100 h1        1 TNP      0.098367
     38 H193       -0.7580    0.4830   -3.7040 h1        1 TNP      0.098367
@<TRIPOS>BOND
     1    1    2 3   
     2    2   20 1   
     3    3    4 3   
     4    3   15 1   
     5    4   21 1   
     6    5    6 3   
     7    5   16 1   
     8    6   17 1   
     9    7    8 3   
    10    7   22 1   
    11    8   18 1   
    12    9   10 3   
    13    9   23 1   
    14   10   19 1   
    15   11   12 1   
    16   11   14 3   
    17   12   13 3   
    18   15   24 1   
    19   15   25 1   
    20   15   26 1   
    21   16   27 1   
    22   16   28 1   
    23   16   29 1   
    24   17   30 1   
    25   17   31 1   
    26   17   32 1   
    27   18   33 1   
    28   18   34 1   
    29   18   35 1   
    30   19   36 1   
    31   19   37 1   
    32   19   38 1   
@<TRIPOS>SUBSTRUCTURE
     1 TNP         1 TEMP              0 ****  ****    0 ROOT
