@<TRIPOS>MOLECULE
TNP
   38    40     1     0     0
SMALL
bcc


@<TRIPOS>ATOM
      1 N1         -1.4670   -1.7570   -0.1410 nb        1 TNP     -0.685000
      2 C2         -2.7880   -1.7570   -0.1970 ca        1 TNP      0.434200
      3 C3         -3.5870   -0.5730   -0.1280 ca        1 TNP     -0.137600
      4 C4         -2.9230    0.6320   -0.0020 ca        1 TNP     -0.093000
      5 C5         -0.8040    1.9250    0.1240 ca        1 TNP     -0.012300
      6 C6          0.5580    1.9540   -0.0420 ca        1 TNP     -0.069300
      7 C7          2.7290    0.7840   -0.1150 ca        1 TNP     -0.022000
      8 C8          3.4830   -0.3810   -0.0770 ca        1 TNP     -0.092300
      9 C9          2.8000   -1.6040    0.0560 ca        1 TNP     -0.031300
     10 N10         1.4460   -1.6910    0.1240 na        1 TNP      0.059900
     11 C11         0.6640   -0.5410    0.0270 ca        1 TNP     -0.010600
     12 C12        -0.7980   -0.5640   -0.0110 ca        1 TNP      0.368600
     13 C13        -1.5030    0.6710    0.0570 ca        1 TNP     -0.095300
     14 C14         1.3180    0.7300   -0.0580 ca        1 TNP     -0.033000
     15 C15        -5.0570   -0.6740   -0.1990 c3        1 TNP     -0.070800
     16 C16        -1.5890    3.1640    0.3530 c3        1 TNP     -0.077800
     17 C17         1.2950    3.2340   -0.2020 c3        1 TNP     -0.071800
     18 C18         4.9610   -0.3700   -0.1430 c3        1 TNP     -0.069800
     19 C19         0.8940   -3.0260    0.3380 c3        1 TNP     -0.015400
     20 H2         -3.2740   -2.7470   -0.3080 h4        1 TNP      0.048100
     21 H4         -3.4970    1.5720    0.0320 ha        1 TNP      0.166000
     22 H7          3.2480    1.7580   -0.1800 ha        1 TNP      0.183000
     23 H9          3.3780   -2.5520    0.1180 h4        1 TNP      0.201000
     24 H151       -5.4430   -1.2950    0.6500 hc        1 TNP      0.068367
     25 H152       -5.5400    0.3330   -0.1480 hc        1 TNP      0.068367
     26 H153       -5.3650   -1.1650   -1.1570 hc        1 TNP      0.068367
     27 H161       -2.0160    3.5380   -0.6120 hc        1 TNP      0.069033
     28 H162       -2.4290    2.9760    1.0690 hc        1 TNP      0.069033
     29 H163       -0.9590    3.9730    0.8010 hc        1 TNP      0.069033
     30 H171        1.8470    3.4900    0.7380 hc        1 TNP      0.065033
     31 H172        2.0250    3.1660   -1.0480 hc        1 TNP      0.065033
     32 H173        0.6050    4.0810   -0.4440 hc        1 TNP      0.065033
     33 H181        5.3910   -0.4010    0.8920 hc        1 TNP      0.075367
     34 H182        5.3440   -1.2560   -0.7090 hc        1 TNP      0.075367
     35 H183        5.3300    0.5570   -0.6480 hc        1 TNP      0.075367
     36 H191        0.1880   -3.0100    1.2110 h1        1 TNP      0.098367
     37 H192        0.3650   -3.3720   -0.5910 h1        1 TNP      0.098367
     38 H193        1.7250   -3.7480    0.5690 h1        1 TNP      0.098367
@<TRIPOS>BOND
     1    1    2 ar  
     2    1   12 ar  
     3    2    3 ar  
     4    2   20 1   
     5    3    4 ar  
     6    3   15 1   
     7    4   13 ar  
     8    4   21 1   
     9    5    6 ar  
    10    5   13 ar  
    11    5   16 1   
    12    6   14 ar  
    13    6   17 1   
    14    7    8 ar  
    15    7   14 ar  
    16    7   22 1   
    17    8    9 ar  
    18    8   18 1   
    19    9   10 1   
    20    9   23 1   
    21   10   11 2   
    22   10   19 1   
    23   11   12 ar  
    24   11   14 ar  
    25   12   13 ar  
    26   15   24 1   
    27   15   25 1   
    28   15   26 1   
    29   16   27 1   
    30   16   28 1   
    31   16   29 1   
    32   17   30 1   
    33   17   31 1   
    34   17   32 1   
    35   18   33 1   
    36   18   34 1   
    37   18   35 1   
    38   19   36 1   
    39   19   37 1   
    40   19   38 1   
@<TRIPOS>SUBSTRUCTURE
     1 TNP         1 TEMP              0 ****  ****    0 ROOT
