@<TRIPOS>MOLECULE
TNP
   38    40     1     0     0
SMALL
bcc


@<TRIPOS>ATOM
      1 N1          0.0600    0.1400   -0.0180 nb        1 TNP     -0.685000
      2 C2          1.3800    0.2060    0.0290 ca        1 TNP      0.434200
      3 C3          2.1360    0.1460    1.2410 ca        1 TNP     -0.137600
      4 C4          1.4300    0.0190    2.4220 ca        1 TNP     -0.093000
      5 C5         -0.7330   -0.1180    3.6390 ca        1 TNP     -0.012300
      6 C6         -2.0960    0.0400    3.6180 ca        1 TNP     -0.069300
      7 C7         -4.2240    0.0980    2.3700 ca        1 TNP     -0.022000
      8 C8         -4.9350    0.0550    1.1790 ca        1 TNP     -0.092300
      9 C9         -4.2080   -0.0850   -0.0180 ca        1 TNP     -0.031300
     10 N10        -2.8510   -0.1480   -0.0550 na        1 TNP      0.059900
     11 C11        -2.1120   -0.0390    1.1220 ca        1 TNP     -0.010600
     12 C12        -0.6500    0.0090    1.1510 ca        1 TNP      0.368600
     13 C13         0.0100   -0.0500    2.4100 ca        1 TNP     -0.095300
     14 C14        -2.8110    0.0480    2.3680 ca        1 TNP     -0.034000
     15 C15         3.6090    0.2280    1.1920 c3        1 TNP     -0.070800
     16 C16         0.0090   -0.3390    4.9060 c3        1 TNP     -0.077800
     17 C17        -2.8790    0.1990    4.8700 c3        1 TNP     -0.071800
     18 C18        -6.4100    0.1450    1.1350 c3        1 TNP     -0.069800
     19 C19        -2.2500   -0.3740   -1.3670 c3        1 TNP     -0.015400
     20 H2          1.9000    0.3190   -0.9430 h4        1 TNP      0.048100
     21 H4          1.9710   -0.0090    3.3820 ha        1 TNP      0.166000
     22 H7         -4.7780    0.1620    3.3240 ha        1 TNP      0.183000
     23 H9         -4.7510   -0.1590   -0.9860 h4        1 TNP      0.201000
     24 H151        3.9280    1.1870    0.7100 hc        1 TNP      0.068367
     25 H152        4.0550    0.1820    2.2170 hc        1 TNP      0.068367
     26 H153        4.0230   -0.6200    0.5880 hc        1 TNP      0.068367
     27 H161        0.8600   -1.0490    4.7500 hc        1 TNP      0.069033
     28 H162        0.4150    0.6300    5.2920 hc        1 TNP      0.069033
     29 H163       -0.6470   -0.7890    5.6920 hc        1 TNP      0.069033
     30 H171       -3.6110    1.0400    4.7740 hc        1 TNP      0.065033
     31 H172       -3.4350   -0.7430    5.1090 hc        1 TNP      0.065033
     32 H173       -2.2220    0.4480    5.7400 hc        1 TNP      0.065033
     33 H181       -6.7230    1.2120    0.9930 hc        1 TNP      0.075367
     34 H182       -6.8600   -0.2280    2.0890 hc        1 TNP      0.075367
     35 H183       -6.8280   -0.4580    0.2900 hc        1 TNP      0.075367
     36 H191       -1.5380   -1.2410   -1.3150 h1        1 TNP      0.098367
     37 H192       -3.0530   -0.6210   -2.1150 h1        1 TNP      0.098367
     38 H193       -1.7160    0.5550   -1.7060 h1        1 TNP      0.098367
@<TRIPOS>BOND
     1    1    2 ar  
     2    1   12 ar  
     3    2    3 ar  
     4    2   20 1   
     5    3    4 ar  
     6    3   15 1   
     7    4   13 ar  
     8    4   21 1   
     9    5    6 ar  
    10    5   13 ar  
    11    5   16 1   
    12    6   14 ar  
    13    6   17 1   
    14    7    8 ar  
    15    7   14 ar  
    16    7   22 1   
    17    8    9 ar  
    18    8   18 1   
    19    9   10 1   
    20    9   23 1   
    21   10   11 2   
    22   10   19 1   
    23   11   12 ar  
    24   11   14 ar  
    25   12   13 ar  
    26   15   24 1   
    27   15   25 1   
    28   15   26 1   
    29   16   27 1   
    30   16   28 1   
    31   16   29 1   
    32   17   30 1   
    33   17   31 1   
    34   17   32 1   
    35   18   33 1   
    36   18   34 1   
    37   18   35 1   
    38   19   36 1   
    39   19   37 1   
    40   19   38 1   
@<TRIPOS>SUBSTRUCTURE
     1 TNP         1 TEMP              0 ****  ****    0 ROOT
