@<TRIPOS>MOLECULE
TNR
   40    40     1     0     0
SMALL
bcc


@<TRIPOS>ATOM
      1 OXT         1.6900    1.1140    4.3470 o         1 TNR     -0.829300
      2 C           2.3760    0.4710    3.5090 c         1 TNR      0.895600
      3 O           3.4740   -0.1030    3.7500 o         1 TNR     -0.829300
      4 CA          1.8340    0.3980    2.0370 c3        1 TNR     -0.027500
      5 N           2.5250   -0.5690    1.1940 n3        1 TNR     -0.909800
      6 CB          0.3220    0.1860    2.1020 c3        1 TNR      0.145400
      7 O1         -0.3230    0.5550    0.8760 os        1 TNR     -0.458600
      8 C1         -0.4030   -0.4520   -0.0980 c3        1 TNR      0.318900
      9 C2         -0.0270    0.1400   -1.4910 c3        1 TNR      0.044700
     10 N2          1.3330    0.6080   -1.5100 n         1 TNR     -0.529900
     11 C7          2.2800    0.0510   -2.3500 c         1 TNR      0.667100
     12 C8          3.7170    0.4480   -2.1220 c3        1 TNR     -0.172100
     13 O7          1.9560   -0.7100   -3.2890 o         1 TNR     -0.648100
     14 C3         -1.0470    1.2500   -1.8570 c3        1 TNR      0.109100
     15 O3         -0.8220    1.7740   -3.1470 oh        1 TNR     -0.586800
     16 C4         -2.4790    0.6890   -1.7610 c3        1 TNR      0.083100
     17 O4         -2.7030   -0.2780   -2.7730 oh        1 TNR     -0.604800
     18 C5         -2.7130    0.1260   -0.3560 c3        1 TNR      0.069100
     19 O5         -1.7530   -0.8970   -0.0790 os        1 TNR     -0.459600
     20 C6         -4.0820   -0.5470   -0.2380 c3        1 TNR      0.142400
     21 O6         -4.3530   -0.9570    1.0850 oh        1 TNR     -0.606800
     22 HCA         2.0210    1.4150    1.5820 h1        1 TNR      0.050700
     23 H           3.5120   -0.4620    1.3690 hn        1 TNR      0.338300
     24 H2          2.2860   -1.4940    1.5060 hn        1 TNR      0.338300
     25 HB2        -0.1050    0.9070    2.8540 h1        1 TNR      0.066700
     26 HB3         0.0530   -0.8640    2.3830 h1        1 TNR      0.066700
     27 HC1         0.1970   -1.3740    0.1360 h2        1 TNR      0.099700
     28 HC2        -0.1350   -0.6930   -2.2510 h1        1 TNR      0.081700
     29 HN2         1.6420    1.0570   -0.6740 hn        1 TNR      0.337500
     30 HC81        4.3540   -0.0430   -2.8960 hc        1 TNR      0.066367
     31 HC82        3.8350    1.5560   -2.1990 hc        1 TNR      0.066367
     32 HC83        4.0480    0.1170   -1.1060 hc        1 TNR      0.066367
     33 HC3        -0.9350    2.1260   -1.1590 h1        1 TNR      0.099700
     34 HO3        -0.8980    1.0370   -3.7680 ho        1 TNR      0.409000
     35 HC4        -3.2180    1.5060   -1.9900 h1        1 TNR      0.084700
     36 HO4        -2.2480   -1.0860   -2.4990 ho        1 TNR      0.410000
     37 HC5        -2.6090    0.9470    0.4060 h1        1 TNR      0.088700
     38 HC61       -4.8900    0.1870   -0.4940 h1        1 TNR      0.048700
     39 HC62       -4.1320   -1.4280   -0.9320 h1        1 TNR      0.048700
     40 HO6        -3.5710   -1.4310    1.4020 ho        1 TNR      0.419000
@<TRIPOS>BOND
     1    1    2 1   
     2    2    3 1   
     3    2    4 1   
     4    4    5 1   
     5    4    6 1   
     6    4   22 1   
     7    5   23 1   
     8    5   24 1   
     9    6    7 1   
    10    6   25 1   
    11    6   26 1   
    12    7    8 1   
    13    8    9 1   
    14    8   19 1   
    15    8   27 1   
    16    9   10 1   
    17    9   14 1   
    18    9   28 1   
    19   10   11 1   
    20   10   29 1   
    21   11   12 1   
    22   11   13 2   
    23   12   30 1   
    24   12   31 1   
    25   12   32 1   
    26   14   15 1   
    27   14   16 1   
    28   14   33 1   
    29   15   34 1   
    30   16   17 1   
    31   16   18 1   
    32   16   35 1   
    33   17   36 1   
    34   18   19 1   
    35   18   20 1   
    36   18   37 1   
    37   20   21 1   
    38   20   38 1   
    39   20   39 1   
    40   21   40 1   
@<TRIPOS>SUBSTRUCTURE
     1 TNR         1 TEMP              0 ****  ****    0 ROOT
