@<TRIPOS>MOLECULE
TNS
   47    48     1     0     0
SMALL
bcc


@<TRIPOS>ATOM
      1 O22         1.1950   -1.6190   -0.3730 o         1 TNS     -0.849300
      2 C20         1.3190   -0.3680   -0.2240 c         1 TNS      0.908600
      3 O21         0.8580    0.2760    0.7610 o         1 TNS     -0.849300
      4 C19         2.0930    0.4230   -1.2950 c3        1 TNS     -0.197400
      5 C18         1.6990   -0.0210   -2.6820 c3        1 TNS     -0.065400
      6 C17         2.5990    0.5770   -3.7440 c3        1 TNS     -0.110400
      7 C16         2.1610    0.1010   -5.1270 c3        1 TNS      0.193800
      8 N15         2.9460    0.5690   -6.2530 nh        1 TNS     -0.658000
      9 C23         4.2230   -0.0690   -6.4470 c3        1 TNS      0.190100
     10 C14         2.7990    1.8770   -6.7140 ca        1 TNS      0.206600
     11 C13         1.7930    2.7470   -6.2130 ca        1 TNS     -0.207500
     12 C12         1.6000    4.0020   -6.7640 ca        1 TNS     -0.069000
     13 C9          3.6110    2.3660   -7.7740 ca        1 TNS     -0.207500
     14 C10         3.4090    3.6310   -8.3040 ca        1 TNS     -0.069000
     15 C11         2.4060    4.4760   -7.8140 ca        1 TNS     -0.160800
     16 C8          2.1320    5.7800   -8.3780 ce        1 TNS     -0.026200
     17 C7          2.9710    6.6660   -8.9390 cf        1 TNS     -0.180200
     18 C3          4.4150    6.6030   -9.0660 ca        1 TNS      0.017200
     19 C2          5.0210    7.1510  -10.2100 ca        1 TNS     -0.142000
     20 C4          5.2300    6.0710   -8.0550 ca        1 TNS     -0.142000
     21 C5          6.6160    6.0820   -8.1730 ca        1 TNS     -0.067000
     22 C6          7.2020    6.6300   -9.3270 ca        1 TNS     -0.191200
     23 C1          6.4030    7.1640  -10.3510 ca        1 TNS     -0.067000
     24 N24         8.6780    6.6470   -9.4660 no        1 TNS      0.314200
     25 O26         9.3570    6.1910   -8.5850 o         1 TNS     -0.219500
     26 O25         9.1670    7.1200  -10.4600 o         1 TNS     -0.219500
     27 H191        3.1850    0.2430   -1.1290 hc        1 TNS      0.021700
     28 H192        1.9000    1.5160   -1.1630 hc        1 TNS      0.021700
     29 H181        0.6360    0.2760   -2.8810 hc        1 TNS      0.047200
     30 H182        1.7430   -1.1430   -2.7230 hc        1 TNS      0.047200
     31 H171        2.5590    1.6960   -3.6900 hc        1 TNS      0.036200
     32 H172        3.6610    0.2720   -3.5550 hc        1 TNS      0.036200
     33 H161        1.0870    0.3940   -5.3010 h1        1 TNS      0.055700
     34 H162        2.1980   -1.0270   -5.1460 h1        1 TNS      0.055700
     35 H231        4.3040   -0.9770   -5.7930 h1        1 TNS      0.037700
     36 H232        5.0800    0.6180   -6.2070 h1        1 TNS      0.037700
     37 H233        4.3140   -0.3910   -7.5200 h1        1 TNS      0.037700
     38 H13         1.1570    2.4390   -5.3690 ha        1 TNS      0.143000
     39 H12         0.8050    4.6490   -6.3590 ha        1 TNS      0.128000
     40 H9          4.4090    1.7380   -8.1980 ha        1 TNS      0.143000
     41 H10         4.0490    3.9750   -9.1320 ha        1 TNS      0.128000
     42 H8          1.0590    6.0600   -8.3350 ha        1 TNS      0.122000
     43 H7          2.5370    7.5910   -9.3660 ha        1 TNS      0.125000
     44 H2          4.3910    7.5740  -11.0080 ha        1 TNS      0.155000
     45 H4          4.7610    5.6330   -7.1570 ha        1 TNS      0.155000
     46 H5          7.2480    5.6650   -7.3710 ha        1 TNS      0.166500
     47 H1          6.8700    7.5900  -11.2550 ha        1 TNS      0.166500
@<TRIPOS>BOND
     1    1    2 1   
     2    2    3 1   
     3    2    4 1   
     4    4    5 1   
     5    4   27 1   
     6    4   28 1   
     7    5    6 1   
     8    5   29 1   
     9    5   30 1   
    10    6    7 1   
    11    6   31 1   
    12    6   32 1   
    13    7    8 1   
    14    7   33 1   
    15    7   34 1   
    16    8    9 1   
    17    8   10 1   
    18    9   35 1   
    19    9   36 1   
    20    9   37 1   
    21   10   11 ar  
    22   10   13 ar  
    23   11   12 ar  
    24   11   38 1   
    25   12   15 ar  
    26   12   39 1   
    27   13   14 ar  
    28   13   40 1   
    29   14   15 ar  
    30   14   41 1   
    31   15   16 1   
    32   16   17 2   
    33   16   42 1   
    34   17   18 1   
    35   17   43 1   
    36   18   19 ar  
    37   18   20 ar  
    38   19   23 ar  
    39   19   44 1   
    40   20   21 ar  
    41   20   45 1   
    42   21   22 ar  
    43   21   46 1   
    44   22   23 ar  
    45   22   24 1   
    46   23   47 1   
    47   24   25 1   
    48   24   26 1   
@<TRIPOS>SUBSTRUCTURE
     1 TNS         1 TEMP              0 ****  ****    0 ROOT
