@<TRIPOS>MOLECULE
TNS
   47    48     1     0     0
SMALL
bcc


@<TRIPOS>ATOM
      1 O22         1.0360   -1.5930   -0.4190 o         1 TNS     -0.849300
      2 C20         1.1460   -0.3410   -0.2740 c         1 TNS      0.908600
      3 O21         0.6500    0.3060    0.6920 o         1 TNS     -0.849300
      4 C19         1.9490    0.4480   -1.3260 c3        1 TNS     -0.197400
      5 C18         1.6030   -0.0080   -2.7210 c3        1 TNS     -0.065400
      6 C17         2.5320    0.5900   -3.7580 c3        1 TNS     -0.110400
      7 C16         2.1420    0.1010   -5.1510 c3        1 TNS      0.193800
      8 N15         2.9600    0.5660   -6.2550 nh        1 TNS     -0.658000
      9 C23         4.2470   -0.0650   -6.4020 c3        1 TNS      0.190100
     10 C14         2.8200    1.8690   -6.7300 ca        1 TNS      0.206600
     11 C13         1.7920    2.7370   -6.2680 ca        1 TNS     -0.207500
     12 C12         1.6090    3.9860   -6.8350 ca        1 TNS     -0.069000
     13 C9          3.6620    2.3560   -7.7660 ca        1 TNS     -0.207500
     14 C10         3.4690    3.6150   -8.3130 ca        1 TNS     -0.069000
     15 C11         2.4440    4.4570   -7.8620 ca        1 TNS     -0.160800
     16 C8          2.1800    5.7560   -8.4440 ce        1 TNS     -0.026200
     17 C7          3.0300    6.6430   -8.9850 cf        1 TNS     -0.180200
     18 C3          4.4780    6.5890   -9.0660 ca        1 TNS      0.017200
     19 C2          5.1170    7.1320  -10.1960 ca        1 TNS     -0.142000
     20 C4          5.2650    6.0710   -8.0250 ca        1 TNS     -0.142000
     21 C5          6.6530    6.0900   -8.1010 ca        1 TNS     -0.067000
     22 C6          7.2720    6.6320   -9.2390 ca        1 TNS     -0.191200
     23 C1          6.5020    7.1530  -10.2930 ca        1 TNS     -0.067000
     24 N24         8.7510    6.6580   -9.3320 no        1 TNS      0.314200
     25 O26         9.4060    6.2130   -8.4270 o         1 TNS     -0.219500
     26 O25         9.2680    7.1260  -10.3140 o         1 TNS     -0.219500
     27 H191        3.0370    0.2770   -1.1240 hc        1 TNS      0.021700
     28 H192        1.7440    1.5410   -1.2080 hc        1 TNS      0.021700
     29 H181        0.5450    0.2800   -2.9560 hc        1 TNS      0.047200
     30 H182        1.6560   -1.1300   -2.7530 hc        1 TNS      0.047200
     31 H171        2.4830    1.7090   -3.7130 hc        1 TNS      0.036200
     32 H172        3.5900    0.2930   -3.5330 hc        1 TNS      0.036200
     33 H161        1.0720    0.3860   -5.3610 h1        1 TNS      0.055700
     34 H162        2.1870   -1.0270   -5.1610 h1        1 TNS      0.055700
     35 H231        4.3130   -0.9670   -5.7390 h1        1 TNS      0.037700
     36 H232        5.0910    0.6300   -6.1410 h1        1 TNS      0.037700
     37 H233        4.3740   -0.3940   -7.4690 h1        1 TNS      0.037700
     38 H13         1.1320    2.4300   -5.4420 ha        1 TNS      0.143000
     39 H12         0.7970    4.6300   -6.4600 ha        1 TNS      0.128000
     40 H9          4.4770    1.7310   -8.1610 ha        1 TNS      0.143000
     41 H10         4.1320    3.9580   -9.1230 ha        1 TNS      0.128000
     42 H8          1.1040    6.0280   -8.4370 ha        1 TNS      0.122000
     43 H7          2.6040    7.5610   -9.4330 ha        1 TNS      0.125000
     44 H2          4.5100    7.5430  -11.0160 ha        1 TNS      0.155000
     45 H4          4.7700    5.6370   -7.1400 ha        1 TNS      0.155000
     46 H5          7.2620    5.6830   -7.2750 ha        1 TNS      0.166500
     47 H1          6.9940    7.5740  -11.1850 ha        1 TNS      0.166500
@<TRIPOS>BOND
     1    1    2 1   
     2    2    3 1   
     3    2    4 1   
     4    4    5 1   
     5    4   27 1   
     6    4   28 1   
     7    5    6 1   
     8    5   29 1   
     9    5   30 1   
    10    6    7 1   
    11    6   31 1   
    12    6   32 1   
    13    7    8 1   
    14    7   33 1   
    15    7   34 1   
    16    8    9 1   
    17    8   10 1   
    18    9   35 1   
    19    9   36 1   
    20    9   37 1   
    21   10   11 ar  
    22   10   13 ar  
    23   11   12 ar  
    24   11   38 1   
    25   12   15 ar  
    26   12   39 1   
    27   13   14 ar  
    28   13   40 1   
    29   14   15 ar  
    30   14   41 1   
    31   15   16 1   
    32   16   17 2   
    33   16   42 1   
    34   17   18 1   
    35   17   43 1   
    36   18   19 ar  
    37   18   20 ar  
    38   19   23 ar  
    39   19   44 1   
    40   20   21 ar  
    41   20   45 1   
    42   21   22 ar  
    43   21   46 1   
    44   22   23 ar  
    45   22   24 1   
    46   23   47 1   
    47   24   25 1   
    48   24   26 1   
@<TRIPOS>SUBSTRUCTURE
     1 TNS         1 TEMP              0 ****  ****    0 ROOT
