@<TRIPOS>MOLECULE
TNS
   47    48     1     0     0
SMALL
bcc


@<TRIPOS>ATOM
      1 O22        -6.2200    8.3340   -4.1930 o         1 TNS     -0.848800
      2 C20        -5.1640    8.7140   -4.7780 c         1 TNS      0.908600
      3 O21        -5.1210    9.6520   -5.6230 o         1 TNS     -0.848800
      4 C19        -3.8400    8.0070   -4.4290 c3        1 TNS     -0.197400
      5 C18        -4.0330    6.5130   -4.3390 c3        1 TNS     -0.066400
      6 C17        -2.8260    5.8230   -3.7400 c3        1 TNS     -0.110400
      7 C16        -3.0700    4.3170   -3.6630 c3        1 TNS      0.192800
      8 N15        -2.0300    3.5260   -3.0320 nh        1 TNS     -0.655000
      9 C23        -1.9780    3.5830   -1.5930 c3        1 TNS      0.190100
     10 C14        -0.8460    3.2510   -3.7130 ca        1 TNS      0.210600
     11 C13        -0.6720    3.5670   -5.0880 ca        1 TNS     -0.209000
     12 C12         0.4750    3.1920   -5.7670 ca        1 TNS     -0.063000
     13 C9          0.2180    2.5620   -3.0680 ca        1 TNS     -0.209000
     14 C10         1.3560    2.1940   -3.7650 ca        1 TNS     -0.063000
     15 C11         1.5130    2.4970   -5.1280 ca        1 TNS     -0.155800
     16 C8          2.7210    2.0860   -5.8070 ce        1 TNS     -0.020200
     17 C7          3.0810    2.4520   -7.0520 cf        1 TNS     -0.185200
     18 C3          4.2970    2.0240   -7.7140 ca        1 TNS      0.026200
     19 C2          5.0250    0.8980   -7.2940 ca        1 TNS     -0.149500
     20 C4          4.7620    2.7530   -8.8250 ca        1 TNS     -0.149500
     21 C5          5.9210    2.3820   -9.4920 ca        1 TNS     -0.062000
     22 C6          6.6380    1.2560   -9.0520 ca        1 TNS     -0.197200
     23 C1          6.1880    0.5100   -7.9500 ca        1 TNS     -0.062000
     24 N24         7.8770    0.8510   -9.7560 no        1 TNS      0.315200
     25 O26         8.2520    1.4940  -10.7010 o         1 TNS     -0.220500
     26 O25         8.4830   -0.1140   -9.3690 o         1 TNS     -0.220500
     27 H191       -3.4900    8.4090   -3.4450 hc        1 TNS      0.021200
     28 H192       -3.0690    8.2580   -5.1980 hc        1 TNS      0.021200
     29 H181       -4.2320    6.1000   -5.3630 hc        1 TNS      0.047200
     30 H182       -4.9460    6.3090   -3.7160 hc        1 TNS      0.047200
     31 H171       -2.6300    6.2300   -2.7130 hc        1 TNS      0.036700
     32 H172       -1.9170    6.0340   -4.3620 hc        1 TNS      0.036700
     33 H161       -3.2410    3.9120   -4.7010 h1        1 TNS      0.056200
     34 H162       -4.0200    4.1360   -3.0810 h1        1 TNS      0.056200
     35 H231       -2.9080    4.0640   -1.1920 h1        1 TNS      0.038033
     36 H232       -1.0910    4.1680   -1.2250 h1        1 TNS      0.038033
     37 H233       -1.9100    2.5380   -1.1850 h1        1 TNS      0.038033
     38 H13        -1.4450    4.1320   -5.6320 ha        1 TNS      0.142000
     39 H12         0.5650    3.4520   -6.8340 ha        1 TNS      0.124500
     40 H9          0.1470    2.3030   -2.0010 ha        1 TNS      0.142000
     41 H10         2.1580    1.6560   -3.2350 ha        1 TNS      0.124500
     42 H8          3.3820    1.4280   -5.2120 ha        1 TNS      0.116000
     43 H7          2.4490    3.1370   -7.6430 ha        1 TNS      0.137000
     44 H2          4.6710    0.3020   -6.4390 ha        1 TNS      0.148000
     45 H4          4.1990    3.6350   -9.1680 ha        1 TNS      0.148000
     46 H5          6.2790    2.9640  -10.3590 ha        1 TNS      0.165000
     47 H1          6.7510   -0.3760   -7.6120 ha        1 TNS      0.165000
@<TRIPOS>BOND
     1    1    2 1   
     2    2    3 1   
     3    2    4 1   
     4    4    5 1   
     5    4   27 1   
     6    4   28 1   
     7    5    6 1   
     8    5   29 1   
     9    5   30 1   
    10    6    7 1   
    11    6   31 1   
    12    6   32 1   
    13    7    8 1   
    14    7   33 1   
    15    7   34 1   
    16    8    9 1   
    17    8   10 1   
    18    9   35 1   
    19    9   36 1   
    20    9   37 1   
    21   10   11 ar  
    22   10   13 ar  
    23   11   12 ar  
    24   11   38 1   
    25   12   15 ar  
    26   12   39 1   
    27   13   14 ar  
    28   13   40 1   
    29   14   15 ar  
    30   14   41 1   
    31   15   16 1   
    32   16   17 2   
    33   16   42 1   
    34   17   18 1   
    35   17   43 1   
    36   18   19 ar  
    37   18   20 ar  
    38   19   23 ar  
    39   19   44 1   
    40   20   21 ar  
    41   20   45 1   
    42   21   22 ar  
    43   21   46 1   
    44   22   23 ar  
    45   22   24 1   
    46   23   47 1   
    47   24   25 1   
    48   24   26 1   
@<TRIPOS>SUBSTRUCTURE
     1 TNS         1 TEMP              0 ****  ****    0 ROOT
