@<TRIPOS>MOLECULE
TNS
   47    48     1     0     0
SMALL
bcc


@<TRIPOS>ATOM
      1 O22        -0.1120    0.2700   -0.5730 o         1 TNS     -0.849300
      2 C20         1.0960    0.0440   -0.2720 c         1 TNS      0.908600
      3 O21         1.4720   -0.4350    0.8360 o         1 TNS     -0.849300
      4 C19         2.1830    0.3910   -1.3060 c3        1 TNS     -0.197400
      5 C18         1.7740   -0.0520   -2.6890 c3        1 TNS     -0.066400
      6 C17         2.6920    0.5050   -3.7570 c3        1 TNS     -0.110400
      7 C16         2.2360    0.0320   -5.1350 c3        1 TNS      0.192800
      8 N15         2.9970    0.5140   -6.2720 nh        1 TNS     -0.657000
      9 C23         4.2800   -0.1040   -6.4870 c3        1 TNS      0.191100
     10 C14         2.8320    1.8280   -6.7140 ca        1 TNS      0.203600
     11 C13         1.8300    2.6850   -6.1840 ca        1 TNS     -0.205500
     12 C12         1.6180    3.9450   -6.7150 ca        1 TNS     -0.070000
     13 C9          3.6200    2.3350   -7.7830 ca        1 TNS     -0.205500
     14 C10         3.4000    3.6050   -8.2930 ca        1 TNS     -0.070000
     15 C11         2.4010    4.4370   -7.7740 ca        1 TNS     -0.159800
     16 C8          2.1090    5.7470   -8.3160 ce        1 TNS     -0.026200
     17 C7          2.9330    6.6450   -8.8790 cf        1 TNS     -0.180200
     18 C3          4.3750    6.5920   -9.0320 ca        1 TNS      0.018200
     19 C2          4.9590    7.1570  -10.1800 ca        1 TNS     -0.142000
     20 C4          5.2100    6.0530   -8.0410 ca        1 TNS     -0.142000
     21 C5          6.5930    6.0720   -8.1830 ca        1 TNS     -0.067000
     22 C6          7.1570    6.6360   -9.3400 ca        1 TNS     -0.192200
     23 C1          6.3380    7.1780  -10.3440 ca        1 TNS     -0.067000
     24 N24         8.6300    6.6620   -9.5050 no        1 TNS      0.314200
     25 O26         9.3270    6.1970   -8.6420 o         1 TNS     -0.219500
     26 O25         9.0990    7.1490  -10.5010 o         1 TNS     -0.219500
     27 H191        2.3320    1.5000   -1.2850 hc        1 TNS      0.021700
     28 H192        3.1480   -0.0910   -1.0100 hc        1 TNS      0.021700
     29 H181        0.7180    0.2870   -2.8720 hc        1 TNS      0.046700
     30 H182        1.7760   -1.1720   -2.7390 hc        1 TNS      0.046700
     31 H171        2.6860    1.6260   -3.7120 hc        1 TNS      0.036200
     32 H172        3.7450    0.1690   -3.5680 hc        1 TNS      0.036200
     33 H161        1.1560    0.3170   -5.2880 h1        1 TNS      0.055700
     34 H162        2.2830   -1.0950   -5.1630 h1        1 TNS      0.055700
     35 H231        4.3810   -1.0170   -5.8430 h1        1 TNS      0.036367
     36 H232        4.3630   -0.4140   -7.5630 h1        1 TNS      0.036367
     37 H233        5.1310    0.5920   -6.2500 h1        1 TNS      0.036367
     38 H13         1.2110    2.3620   -5.3310 ha        1 TNS      0.144500
     39 H12         0.8270    4.5810   -6.2870 ha        1 TNS      0.128500
     40 H9          4.4130    1.7180   -8.2300 ha        1 TNS      0.144500
     41 H10         4.0210    3.9640   -9.1300 ha        1 TNS      0.128500
     42 H8          1.0350    6.0190   -8.2500 ha        1 TNS      0.122000
     43 H7          2.4870    7.5730   -9.2870 ha        1 TNS      0.125000
     44 H2          4.3130    7.5860  -10.9610 ha        1 TNS      0.155500
     45 H4          4.7580    5.6020   -7.1410 ha        1 TNS      0.155500
     46 H5          7.2410    5.6480   -7.3970 ha        1 TNS      0.166500
     47 H1          6.7870    7.6180  -11.2510 ha        1 TNS      0.166500
@<TRIPOS>BOND
     1    1    2 1   
     2    2    3 1   
     3    2    4 1   
     4    4    5 1   
     5    4   27 1   
     6    4   28 1   
     7    5    6 1   
     8    5   29 1   
     9    5   30 1   
    10    6    7 1   
    11    6   31 1   
    12    6   32 1   
    13    7    8 1   
    14    7   33 1   
    15    7   34 1   
    16    8    9 1   
    17    8   10 1   
    18    9   35 1   
    19    9   36 1   
    20    9   37 1   
    21   10   11 ar  
    22   10   13 ar  
    23   11   12 ar  
    24   11   38 1   
    25   12   15 ar  
    26   12   39 1   
    27   13   14 ar  
    28   13   40 1   
    29   14   15 ar  
    30   14   41 1   
    31   15   16 1   
    32   16   17 2   
    33   16   42 1   
    34   17   18 1   
    35   17   43 1   
    36   18   19 ar  
    37   18   20 ar  
    38   19   23 ar  
    39   19   44 1   
    40   20   21 ar  
    41   20   45 1   
    42   21   22 ar  
    43   21   46 1   
    44   22   23 ar  
    45   22   24 1   
    46   23   47 1   
    47   24   25 1   
    48   24   26 1   
@<TRIPOS>SUBSTRUCTURE
     1 TNS         1 TEMP              0 ****  ****    0 ROOT
