@<TRIPOS>MOLECULE
TNT
   45    46     1     0     0
SMALL
bcc


@<TRIPOS>ATOM
      1 C1         -0.2170   -0.3430    0.8340 ca        1 TNT      0.191100
      2 C2          1.0570   -0.8000    0.4180 ca        1 TNT     -0.175500
      3 C3          2.1740   -0.4750    1.1700 ca        1 TNT     -0.051500
      4 C4          2.0410    0.2990    2.3350 ca        1 TNT     -0.310900
      5 C5          0.7800    0.7480    2.7420 ca        1 TNT     -0.051500
      6 C6         -0.3520    0.4290    1.9970 ca        1 TNT     -0.175500
      7 C7          3.2350    0.6960    3.1020 ce        1 TNT      0.596800
      8 N1          3.7710    1.8350    3.3160 n2        1 TNT     -0.708100
      9 N2          3.9140   -0.4910    3.7390 nz        1 TNT     -0.825600
     10 C1'        -6.8830   -0.3430   -1.8870 ca        1 TNT      0.191100
     11 C2'        -7.5020   -0.7950   -3.0770 ca        1 TNT     -0.175500
     12 C3'        -8.8250   -0.4730   -3.3200 ca        1 TNT     -0.051500
     13 C4'        -9.5480    0.2960   -2.3920 ca        1 TNT     -0.310900
     14 C5'        -8.9320    0.7410   -1.2160 ca        1 TNT     -0.051500
     15 C6'        -7.6020    0.4240   -0.9580 ca        1 TNT     -0.175500
     16 C7'       -10.9380    0.6920   -2.6780 ce        1 TNT      0.596800
     17 N1'       -11.4730    1.8300   -2.8940 n2        1 TNT     -0.708100
     18 N2'       -11.8670   -0.4980   -2.7040 nz        1 TNT     -0.825600
     19 CA         -2.5550   -0.2170    0.3310 c3        1 TNT      0.129400
     20 O1         -1.2460   -0.7250    0.0170 os        1 TNT     -0.306900
     21 CB         -3.4450   -0.7380   -0.7840 c3        1 TNT     -0.098400
     22 CA'        -4.8610   -0.2180   -0.6090 c3        1 TNT      0.129400
     23 O1'        -5.5750   -0.7230   -1.7520 os        1 TNT     -0.306900
     24 H2          1.1410   -1.4000   -0.5020 ha        1 TNT      0.172000
     25 H3          3.1670   -0.8080    0.8280 ha        1 TNT      0.148500
     26 H5          0.6720    1.3610    3.6520 ha        1 TNT      0.148500
     27 H6         -1.3380    0.7890    2.3280 ha        1 TNT      0.172000
     28 HN1         3.3590    2.6460    2.9010 hn        1 TNT      0.490400
     29 HN2         4.0930   -1.1880    3.0080 hn        1 TNT      0.470800
     30 HN3         4.8000   -0.2340    4.1940 hn        1 TNT      0.470800
     31 H2'        -6.9160   -1.3910   -3.7960 ha        1 TNT      0.172000
     32 H3'        -9.2950   -0.8020   -4.2610 ha        1 TNT      0.148500
     33 H5'        -9.4940    1.3490   -0.4880 ha        1 TNT      0.148500
     34 H6'        -7.1300    0.7800   -0.0300 ha        1 TNT      0.172000
     35 HN'1      -10.8910    2.6420   -2.8980 hn        1 TNT      0.490400
     36 HN'2      -11.8990   -0.9020   -1.7620 hn        1 TNT      0.470800
     37 HN'3      -12.8180   -0.2410   -2.9980 hn        1 TNT      0.470800
     38 HA1        -2.5270    0.9040    0.3470 h1        1 TNT      0.052950
     39 HA2        -2.8740   -0.6100    1.3320 h1        1 TNT      0.052950
     40 HB1        -3.0390   -0.4100   -1.7790 hc        1 TNT      0.088200
     41 HB2        -3.4450   -1.8590   -0.7810 hc        1 TNT      0.088200
     42 HA'1       -5.3340   -0.6160    0.3270 h1        1 TNT      0.052950
     43 HA'2       -4.8930    0.9020   -0.6130 h1        1 TNT      0.052950
     44 H23         3.2780   -0.8900    4.4370 hn        1 TNT      0.470800
     45 H2'3      -11.4810   -1.1900   -3.3550 hn        1 TNT      0.470800
@<TRIPOS>BOND
     1    1    2 ar  
     2    1    6 ar  
     3    1   20 1   
     4    2    3 ar  
     5    2   24 1   
     6    3    4 ar  
     7    3   25 1   
     8    4    5 ar  
     9    4    7 1   
    10    5    6 ar  
    11    5   26 1   
    12    6   27 1   
    13    7    8 2   
    14    7    9 1   
    15    8   28 1   
    16    9   29 1   
    17    9   30 1   
    18    9   44 1   
    19   10   11 ar  
    20   10   15 ar  
    21   10   23 1   
    22   11   12 ar  
    23   11   31 1   
    24   12   13 ar  
    25   12   32 1   
    26   13   14 ar  
    27   13   16 1   
    28   14   15 ar  
    29   14   33 1   
    30   15   34 1   
    31   16   17 2   
    32   16   18 1   
    33   17   35 1   
    34   18   36 1   
    35   18   37 1   
    36   18   45 1   
    37   19   20 1   
    38   19   21 1   
    39   19   38 1   
    40   19   39 1   
    41   21   22 1   
    42   21   40 1   
    43   21   41 1   
    44   22   23 1   
    45   22   42 1   
    46   22   43 1   
@<TRIPOS>SUBSTRUCTURE
     1 TNT         1 TEMP              0 ****  ****    0 ROOT
