@<TRIPOS>MOLECULE
TNT
   43    44     1     0     0
SMALL
bcc


@<TRIPOS>ATOM
      1 C1         -0.6060   -0.1380    3.6050 ca        1 TNT      0.138600
      2 C2         -1.5060   -0.3430    4.6700 ca        1 TNT     -0.187500
      3 C3         -1.0540   -0.2050    5.9760 ca        1 TNT     -0.068000
      4 C4          0.2830    0.1290    6.2330 ca        1 TNT     -0.205900
      5 C5          1.1660    0.3300    5.1710 ca        1 TNT     -0.068000
      6 C6          0.7290    0.2000    3.8530 ca        1 TNT     -0.187500
      7 C7          0.7370    0.2920    7.6490 ce        1 TNT      0.647800
      8 N1          0.1290    1.0310    8.5310 n2        1 TNT     -0.831100
      9 N2          1.9420   -0.3800    7.9540 nh        1 TNT     -0.925300
     10 C1'        -0.5750   -0.1330   -3.5960 ca        1 TNT      0.138600
     11 C2'        -1.4760   -0.2880   -4.6680 ca        1 TNT     -0.187500
     12 C3'        -1.0180   -0.1320   -5.9700 ca        1 TNT     -0.068000
     13 C4'         0.3300    0.1660   -6.2140 ca        1 TNT     -0.205900
     14 C5'         1.2140    0.3280   -5.1450 ca        1 TNT     -0.068000
     15 C6'         0.7690    0.1770   -3.8320 ca        1 TNT     -0.187500
     16 C7'         0.8080    0.3310   -7.6220 ce        1 TNT      0.647800
     17 N1'         0.1450    1.1190   -8.4150 n2        1 TNT     -0.831100
     18 N2'         2.0070   -0.3610   -7.9110 nh        1 TNT     -0.925300
     19 CA         -0.2770   -0.0710    1.2440 c3        1 TNT      0.130400
     20 O1         -1.1580   -0.3010    2.3510 os        1 TNT     -0.325400
     21 CB         -1.1210   -0.2920    0.0020 c3        1 TNT     -0.093400
     22 CA'        -0.2630   -0.0850   -1.2330 c3        1 TNT      0.130400
     23 O1'        -1.1320   -0.3200   -2.3470 os        1 TNT     -0.325400
     24 H2         -2.5500   -0.6080    4.4530 ha        1 TNT      0.146250
     25 H3         -1.7530   -0.3630    6.8120 ha        1 TNT      0.147000
     26 H5          2.2160    0.6000    5.3700 ha        1 TNT      0.147000
     27 H6          1.4370    0.3670    3.0300 ha        1 TNT      0.146250
     28 HN1        -0.6510    1.5360    8.1710 hn        1 TNT      0.388400
     29 HN2         2.1750   -0.4160    8.9230 hn        1 TNT      0.396800
     30 HN3         2.0200   -1.2620    7.4970 hn        1 TNT      0.396800
     31 H2'        -2.5290   -0.5230   -4.4600 ha        1 TNT      0.146250
     32 H3'        -1.7200   -0.2340   -6.8120 ha        1 TNT      0.147000
     33 H5'         2.2690    0.5870   -5.3300 ha        1 TNT      0.147000
     34 H6'         1.4780    0.3100   -3.0030 ha        1 TNT      0.146250
     35 HN'1        0.4890    1.2040   -9.3480 hn        1 TNT      0.388400
     36 HN'2        2.1940   -0.5450   -8.8700 hn        1 TNT      0.396800
     37 HN'3        2.2160   -1.1180   -7.3040 hn        1 TNT      0.396800
     38 HA1         0.1150    0.9790    1.2880 h1        1 TNT      0.041700
     39 HA2         0.5780   -0.7970    1.2890 h1        1 TNT      0.041700
     40 HB1        -1.5460   -1.3290    0.0050 hc        1 TNT      0.076200
     41 HB2        -1.9860    0.4200   -0.0070 hc        1 TNT      0.076200
     42 HA'1        0.1360    0.9620   -1.2790 h1        1 TNT      0.041700
     43 HA'2        0.5880   -0.8160   -1.2630 h1        1 TNT      0.041700
@<TRIPOS>BOND
     1    1    2 ar  
     2    1    6 ar  
     3    1   20 1   
     4    2    3 ar  
     5    2   24 1   
     6    3    4 ar  
     7    3   25 1   
     8    4    5 ar  
     9    4    7 1   
    10    5    6 ar  
    11    5   26 1   
    12    6   27 1   
    13    7    8 2   
    14    7    9 1   
    15    8   28 1   
    16    9   29 1   
    17    9   30 1   
    18   10   11 ar  
    19   10   15 ar  
    20   10   23 1   
    21   11   12 ar  
    22   11   31 1   
    23   12   13 ar  
    24   12   32 1   
    25   13   14 ar  
    26   13   16 1   
    27   14   15 ar  
    28   14   33 1   
    29   15   34 1   
    30   16   17 2   
    31   16   18 1   
    32   17   35 1   
    33   18   36 1   
    34   18   37 1   
    35   19   20 1   
    36   19   21 1   
    37   19   38 1   
    38   19   39 1   
    39   21   22 1   
    40   21   40 1   
    41   21   41 1   
    42   22   23 1   
    43   22   42 1   
    44   22   43 1   
@<TRIPOS>SUBSTRUCTURE
     1 TNT         1 TEMP              0 ****  ****    0 ROOT
