@<TRIPOS>MOLECULE
TNT
   45    46     1     0     0
SMALL
bcc


@<TRIPOS>ATOM
      1 C1         -0.1700   -0.0110    0.7240 ca        1 TNT      0.191100
      2 C2          1.1480   -0.0700    0.2110 ca        1 TNT     -0.175500
      3 C3          2.2170   -0.1290    1.0880 ca        1 TNT     -0.051500
      4 C4          1.9940   -0.1280    2.4750 ca        1 TNT     -0.310900
      5 C5          0.6900   -0.0700    2.9790 ca        1 TNT     -0.051500
      6 C6         -0.3950   -0.0100    2.1090 ca        1 TNT     -0.175500
      7 C7          3.1280   -0.2500    3.4090 ce        1 TNT      0.597300
      8 N1          3.4630   -1.1710    4.2270 n2        1 TNT     -0.708100
      9 N2          4.0280    0.9610    3.3610 n4        1 TNT     -0.825600
     10 C1'        -6.8490    0.0790   -1.9820 ca        1 TNT      0.191100
     11 C2'        -7.4420    0.2530   -3.2560 ca        1 TNT     -0.175500
     12 C3'        -8.8210    0.2620   -3.3680 ca        1 TNT     -0.051500
     13 C4'        -9.6250    0.0990   -2.2270 ca        1 TNT     -0.310900
     14 C5'        -9.0350   -0.0720   -0.9690 ca        1 TNT     -0.051500
     15 C6'        -7.6490   -0.0840   -0.8410 ca        1 TNT     -0.175500
     16 C7'       -11.0930    0.1680   -2.3370 ce        1 TNT      0.597300
     17 N1'       -11.9430    1.0070   -1.8870 n2        1 TNT     -0.708100
     18 N2'       -11.6520   -0.9890   -3.1290 n4        1 TNT     -0.825600
     19 CA         -2.5110    0.0360    0.2200 c3        1 TNT      0.129400
     20 O1         -1.1450    0.0450   -0.2340 os        1 TNT     -0.306900
     21 CB         -3.3370    0.0620   -1.0540 c3        1 TNT     -0.098400
     22 CA'        -4.8160   -0.0160   -0.7190 c3        1 TNT      0.129400
     23 O1'        -5.4810    0.0850   -1.9910 os        1 TNT     -0.306900
     24 H2          1.3020   -0.0770   -0.8810 ha        1 TNT      0.172000
     25 H3          3.2400   -0.2040    0.6850 ha        1 TNT      0.148500
     26 H5          0.5100   -0.0750    4.0660 ha        1 TNT      0.148500
     27 H6         -1.4160    0.0340    2.5170 ha        1 TNT      0.172000
     28 HN1         2.9000   -1.9950    4.2800 hn        1 TNT      0.490400
     29 HN2         3.4980    1.7700    3.7000 hn        1 TNT      0.470800
     30 HN3         4.8710    0.8400    3.9380 hn        1 TNT      0.470800
     31 H2'        -6.7940    0.3870   -4.1370 ha        1 TNT      0.172000
     32 H3'        -9.2790    0.4270   -4.3570 ha        1 TNT      0.148500
     33 H5'        -9.6620   -0.1940   -0.0700 ha        1 TNT      0.148500
     34 H6'        -7.1980   -0.2180    0.1540 ha        1 TNT      0.172000
     35 HN'1      -11.6120    1.7950   -1.3680 hn        1 TNT      0.490400
     36 HN'2      -11.4700   -1.8530   -2.6090 hn        1 TNT      0.470800
     37 HN'3      -12.6630   -0.8950   -3.2910 hn        1 TNT      0.470800
     38 HA1        -2.6980    0.9430    0.8520 h1        1 TNT      0.052700
     39 HA2        -2.6990   -0.8960    0.8160 h1        1 TNT      0.052700
     40 HB1        -3.1240    1.0020   -1.6280 hc        1 TNT      0.088700
     41 HB2        -3.0490   -0.7990   -1.7130 hc        1 TNT      0.088700
     42 HA'1       -5.0800   -0.9950   -0.2390 h1        1 TNT      0.052700
     43 HA'2       -5.1360    0.8350   -0.0630 h1        1 TNT      0.052700
     44 H23         4.2990    1.1190    2.3850 hn        1 TNT      0.470800
     45 H2'3      -11.1610   -1.0270   -4.0280 hn        1 TNT      0.470800
@<TRIPOS>BOND
     1    1    2 ar  
     2    1    6 ar  
     3    1   20 1   
     4    2    3 ar  
     5    2   24 1   
     6    3    4 ar  
     7    3   25 1   
     8    4    5 ar  
     9    4    7 1   
    10    5    6 ar  
    11    5   26 1   
    12    6   27 1   
    13    7    8 2   
    14    7    9 1   
    15    8   28 1   
    16    9   29 1   
    17    9   30 1   
    18    9   44 1   
    19   10   11 ar  
    20   10   15 ar  
    21   10   23 1   
    22   11   12 ar  
    23   11   31 1   
    24   12   13 ar  
    25   12   32 1   
    26   13   14 ar  
    27   13   16 1   
    28   14   15 ar  
    29   14   33 1   
    30   15   34 1   
    31   16   17 2   
    32   16   18 1   
    33   17   35 1   
    34   18   36 1   
    35   18   37 1   
    36   18   45 1   
    37   19   20 1   
    38   19   21 1   
    39   19   38 1   
    40   19   39 1   
    41   21   22 1   
    42   21   40 1   
    43   21   41 1   
    44   22   23 1   
    45   22   42 1   
    46   22   43 1   
@<TRIPOS>SUBSTRUCTURE
     1 TNT         1 TEMP              0 ****  ****    0 ROOT
