@<TRIPOS>MOLECULE
TNT
   45    46     1     0     0
SMALL
bcc


@<TRIPOS>ATOM
      1 C1         -0.1690   -0.0250    0.7230 ca        1 TNT      0.191100
      2 C2          1.1470   -0.1280    0.2130 ca        1 TNT     -0.175500
      3 C3          2.2160   -0.1610    1.0920 ca        1 TNT     -0.051500
      4 C4          1.9940   -0.0900    2.4780 ca        1 TNT     -0.310900
      5 C5          0.6910    0.0110    2.9780 ca        1 TNT     -0.051500
      6 C6         -0.3940    0.0450    2.1070 ca        1 TNT     -0.175500
      7 C7          3.1270   -0.1850    3.4170 ce        1 TNT      0.597800
      8 N1          3.4490   -1.0700    4.2770 n2        1 TNT     -0.708100
      9 N2          4.0450    1.0080    3.3110 n4        1 TNT     -0.825600
     10 C1'        -6.8490    0.0350   -1.9830 ca        1 TNT      0.191100
     11 C2'        -7.4400    0.1550   -3.2640 ca        1 TNT     -0.175500
     12 C3'        -8.8190    0.1810   -3.3770 ca        1 TNT     -0.051500
     13 C4'        -9.6240    0.0850   -2.2290 ca        1 TNT     -0.310900
     14 C5'        -9.0370   -0.0330   -0.9640 ca        1 TNT     -0.051500
     15 C6'        -7.6510   -0.0600   -0.8350 ca        1 TNT     -0.175500
     16 C7'       -11.0910    0.1720   -2.3420 ce        1 TNT      0.597800
     17 N1'       -11.9280    1.0450   -1.9340 n2        1 TNT     -0.708100
     18 N2'       -11.6680   -1.0130   -3.0780 n4        1 TNT     -0.825600
     19 CA         -2.5100    0.0320    0.2190 c3        1 TNT      0.129400
     20 O1         -1.1450   -0.0000   -0.2350 os        1 TNT     -0.306900
     21 CB         -3.3370    0.0090   -1.0550 c3        1 TNT     -0.098400
     22 CA'        -4.8170   -0.0300   -0.7170 c3        1 TNT      0.129400
     23 O1'        -5.4810    0.0190   -1.9920 os        1 TNT     -0.306900
     24 H2          1.2990   -0.1890   -0.8760 ha        1 TNT      0.172000
     25 H3          3.2370   -0.2700    0.6930 ha        1 TNT      0.148500
     26 H5          0.5130    0.0600    4.0650 ha        1 TNT      0.148500
     27 H6         -1.4130    0.1230    2.5130 ha        1 TNT      0.172000
     28 HN1         2.8730   -1.8830    4.3700 hn        1 TNT      0.490400
     29 HN2         3.5270    1.8410    3.6100 hn        1 TNT      0.470800
     30 HN3         4.3170    1.1160    2.3280 hn        1 TNT      0.470800
     31 H2'        -6.7910    0.2360   -4.1510 ha        1 TNT      0.172000
     32 H3'        -9.2750    0.3030   -4.3720 ha        1 TNT      0.148500
     33 H5'        -9.6650   -0.1010   -0.0610 ha        1 TNT      0.148500
     34 H6'        -7.2010   -0.1520    0.1650 ha        1 TNT      0.172000
     35 HN'1      -11.5850    1.8520   -1.4540 hn        1 TNT      0.490400
     36 HN'2      -11.1790   -1.1030   -3.9740 hn        1 TNT      0.470800
     37 HN'3      -12.6780   -0.9120   -3.2450 hn        1 TNT      0.470800
     38 HA1        -2.7110   -0.8670    0.8580 h1        1 TNT      0.052700
     39 HA2        -2.6840    0.9710    0.8060 h1        1 TNT      0.052700
     40 HB1        -3.1100    0.9170   -1.6740 hc        1 TNT      0.088700
     41 HB2        -3.0630   -0.8870   -1.6720 hc        1 TNT      0.088700
     42 HA'1       -5.0950   -0.9800   -0.1900 h1        1 TNT      0.052700
     43 HA'2       -5.1240    0.8570   -0.1030 h1        1 TNT      0.052700
     44 H23         4.8870    0.9030    3.8920 hn        1 TNT      0.470800
     45 H2'3      -11.4990   -1.8540   -2.5160 hn        1 TNT      0.470800
@<TRIPOS>BOND
     1    1    2 ar  
     2    1    6 ar  
     3    1   20 1   
     4    2    3 ar  
     5    2   24 1   
     6    3    4 ar  
     7    3   25 1   
     8    4    5 ar  
     9    4    7 1   
    10    5    6 ar  
    11    5   26 1   
    12    6   27 1   
    13    7    8 2   
    14    7    9 1   
    15    8   28 1   
    16    9   29 1   
    17    9   30 1   
    18    9   44 1   
    19   10   11 ar  
    20   10   15 ar  
    21   10   23 1   
    22   11   12 ar  
    23   11   31 1   
    24   12   13 ar  
    25   12   32 1   
    26   13   14 ar  
    27   13   16 1   
    28   14   15 ar  
    29   14   33 1   
    30   15   34 1   
    31   16   17 2   
    32   16   18 1   
    33   17   35 1   
    34   18   36 1   
    35   18   37 1   
    36   18   45 1   
    37   19   20 1   
    38   19   21 1   
    39   19   38 1   
    40   19   39 1   
    41   21   22 1   
    42   21   40 1   
    43   21   41 1   
    44   22   23 1   
    45   22   42 1   
    46   22   43 1   
@<TRIPOS>SUBSTRUCTURE
     1 TNT         1 TEMP              0 ****  ****    0 ROOT
