@<TRIPOS>MOLECULE
TNT
   43    36     1     0     0
SMALL
bcc


@<TRIPOS>ATOM
      1 C1          3.3640   -1.0520    0.7700 c1        1 TNT      0.093500
      2 C2          3.3860    0.3030    0.4360 c1        1 TNT     -0.132000
      3 C3          4.2030    1.1840    1.1470 c1        1 TNT     -0.132000
      4 C4          4.9990    0.7070    2.1950 c1        1 TNT     -0.150500
      5 C5          4.9770   -0.6390    2.5270 c1        1 TNT     -0.062000
      6 C6          4.1570   -1.5230    1.8120 c1        1 TNT     -0.188000
      7 C7          5.8640    1.6830    3.0100 c2        1 TNT      0.119000
      8 N1          5.3890    2.2330    4.0720 n1        1 TNT     -0.304000
      9 N2          7.1960    1.9790    2.5890 n3        1 TNT     -0.331500
     10 C1'        -2.8640   -0.7500   -1.9280 c1        1 TNT      0.093500
     11 C2'        -4.1040   -1.3690   -1.7480 c1        1 TNT     -0.132000
     12 C3'        -5.2690   -0.6020   -1.7170 c1        1 TNT     -0.132000
     13 C4'        -5.1970    0.7790   -1.8650 c1        1 TNT     -0.150500
     14 C5'        -3.9570    1.4000   -2.0440 c1        1 TNT     -0.062000
     15 C6'        -2.7930    0.6360   -2.0760 c1        1 TNT     -0.188000
     16 C7'        -6.4600    1.6100   -1.8420 c2        1 TNT      0.119000
     17 N1'        -7.1130    1.8720   -2.9870 n1        1 TNT     -0.304000
     18 N2'        -6.9450    2.1050   -0.6330 n3        1 TNT     -0.331500
     19 CA          1.1850   -2.0430    0.3200 c3        1 TNT     -0.020000
     20 O1          2.5850   -1.9890   -0.0330 os        1 TNT     -0.207500
     21 CB          0.3440   -2.3170   -0.9500 c3        1 TNT     -0.203000
     22 CA'        -1.0750   -1.8210   -0.7350 c3        1 TNT     -0.020000
     23 O1'        -1.6830   -1.5370   -2.0140 os        1 TNT     -0.207500
     24 H2          2.8310    0.6350   -0.2940 ha        1 TNT      0.144250
     25 H3          4.2190    2.1480    0.9100 ha        1 TNT      0.144250
     26 H5          5.5420   -0.9760    3.2700 ha        1 TNT      0.152000
     27 H6          4.1410   -2.4870    2.0490 ha        1 TNT      0.147000
     28 HN1         4.5510    2.0470    4.3370 DU        1 TNT      0.149500
     29 HN2         7.5220    1.6150    1.8160 hn        1 TNT      0.192500
     30 HN3         7.7170    2.5730    3.0790 hn        1 TNT      0.192500
     31 H2'        -4.1560   -2.3450   -1.6440 ha        1 TNT      0.144250
     32 H3'        -6.1510   -1.0430   -1.5900 ha        1 TNT      0.144250
     33 H5'        -3.9070    2.3690   -2.1470 ha        1 TNT      0.152000
     34 H6'        -1.9060    1.0810   -2.2050 ha        1 TNT      0.147000
     35 HN'1       -6.7950    1.5480   -3.7790 DU        1 TNT      0.149500
     36 HN'2       -7.6090    2.7150   -0.6290 hn        1 TNT      0.192500
     37 HN'3       -6.5570    1.8520    0.1490 hn        1 TNT      0.192500
     38 HA1         0.9130   -1.1860    0.7140 h1        1 TNT      0.090000
     39 HA2         1.0400   -2.7560    0.9650 h1        1 TNT      0.090000
     40 HB1         0.3280   -3.2650   -1.1260 hc        1 TNT      0.113000
     41 HB2         0.7470   -1.8440   -1.7220 hc        1 TNT      0.113000
     42 HA'1       -1.6050   -2.5240   -0.2620 h1        1 TNT      0.090000
     43 HA'2       -1.0580   -1.0070   -0.1950 h1        1 TNT      0.090000
@<TRIPOS>BOND
     1    1    6 1   
     2    1   20 1   
     3    2    3 1   
     4    2   24 1   
     5    3   25 1   
     6    4    5 1   
     7    4    7 1   
     8    5   26 1   
     9    6   27 1   
    10    7    8 1   
    11    7    9 1   
    12    9   29 1   
    13    9   30 1   
    14   10   15 1   
    15   10   23 1   
    16   11   12 1   
    17   11   31 1   
    18   12   32 1   
    19   13   14 1   
    20   13   16 1   
    21   14   33 1   
    22   15   34 1   
    23   16   17 1   
    24   16   18 1   
    25   18   36 1   
    26   18   37 1   
    27   19   20 1   
    28   19   21 1   
    29   19   38 1   
    30   19   39 1   
    31   21   22 1   
    32   21   40 1   
    33   21   41 1   
    34   22   23 1   
    35   22   42 1   
    36   22   43 1   
@<TRIPOS>SUBSTRUCTURE
     1 TNT         1 TEMP              0 ****  ****    0 ROOT
