@<TRIPOS>MOLECULE
TNY
   43    43     1     0     0
SMALL
bcc


@<TRIPOS>ATOM
      1 C           2.5870    0.8610    0.9890 c         1 TNY      0.878600
      2 N           2.5850    1.9890   -1.2850 n3        1 TNY     -0.891800
      3 O           3.2930   -0.0530    0.4650 o         1 TNY     -0.844300
      4 C1         -0.4840    0.2370    0.6240 c3        1 TNY      0.304900
      5 C2         -0.4540   -1.1520   -0.0760 c3        1 TNY      0.054700
      6 N2          0.8820   -1.5430   -0.4370 n         1 TNY     -0.542900
      7 C3         -1.4390   -1.1410   -1.2710 c3        1 TNY      0.110100
      8 O3         -1.5090   -2.3810   -1.9380 oh        1 TNY     -0.595800
      9 C4         -2.8390   -0.7290   -0.7720 c3        1 TNY      0.087100
     10 O4         -3.4040   -1.7110    0.0780 oh        1 TNY     -0.599800
     11 C5         -2.7390    0.6380   -0.0840 c3        1 TNY      0.066100
     12 O5         -1.8090    0.5810    1.0020 os        1 TNY     -0.458600
     13 C6         -4.0720    1.0570    0.5370 c3        1 TNY      0.142400
     14 O6         -3.9990    2.3440    1.1140 oh        1 TNY     -0.612800
     15 C7          1.2910   -2.8550   -0.3050 c         1 TNY      0.669100
     16 O7          0.4580   -3.7760   -0.1310 o         1 TNY     -0.673100
     17 C8          2.7690   -3.1270   -0.4280 c3        1 TNY     -0.178100
     18 CA          2.1760    2.0790    0.1070 c3        1 TNY      0.008500
     19 CB          0.6640    2.3190    0.2890 c3        1 TNY      0.152100
     20 OG1        -0.0780    1.2280   -0.2920 os        1 TNY     -0.455600
     21 CG2         0.1830    3.5760   -0.4100 c3        1 TNY     -0.091100
     22 OXT         2.1680    0.8270    2.1800 o         1 TNY     -0.844300
     23 H           3.4580    1.4880   -1.3170 hn        1 TNY      0.341300
     24 H2          1.9110    1.4370   -1.7860 hn        1 TNY      0.341300
     25 H1          0.1140    0.2390    1.5860 h2        1 TNY      0.151700
     26 H9         -0.8540   -1.9010    0.6780 h1        1 TNY      0.065700
     27 HN2         1.5830   -0.8230   -0.4380 hn        1 TNY      0.361500
     28 H3         -1.0960   -0.4030   -2.0500 h1        1 TNY      0.089700
     29 HO3        -1.4670   -3.0780   -1.2650 ho        1 TNY      0.426000
     30 H4         -3.5480   -0.6820   -1.6440 h1        1 TNY      0.080700
     31 HO4        -2.9090   -1.6860    0.9080 ho        1 TNY      0.408000
     32 H5         -2.3890    1.4100   -0.8240 h1        1 TNY      0.077700
     33 H6         -4.8570    1.1310   -0.2600 h1        1 TNY      0.048200
     34 H6A        -4.3830    0.3050    1.3110 h1        1 TNY      0.048200
     35 HO6        -3.2090    2.3590    1.6710 ho        1 TNY      0.419000
     36 H8          3.0600   -3.1030   -1.5060 hc        1 TNY      0.073033
     37 H8A         3.3640   -2.3520    0.1250 hc        1 TNY      0.073033
     38 H8B         2.9850   -4.1390   -0.0120 hc        1 TNY      0.073033
     39 HA          2.7040    2.9790    0.5410 h1        1 TNY      0.056700
     40 HB          0.4600    2.3800    1.3950 h1        1 TNY      0.073700
     41 HG21        0.2700    3.4690   -1.5170 hc        1 TNY      0.035367
     42 HG22       -0.8870    3.7700   -0.1570 hc        1 TNY      0.035367
     43 HG23        0.8040    4.4410   -0.0790 hc        1 TNY      0.035367
@<TRIPOS>BOND
     1    1    3 1   
     2    1   18 1   
     3    1   22 1   
     4    2   18 1   
     5    2   23 1   
     6    2   24 1   
     7    4    5 1   
     8    4   12 1   
     9    4   20 1   
    10    4   25 1   
    11    5    6 1   
    12    5    7 1   
    13    5   26 1   
    14    6   15 1   
    15    6   27 1   
    16    7    8 1   
    17    7    9 1   
    18    7   28 1   
    19    8   29 1   
    20    9   10 1   
    21    9   11 1   
    22    9   30 1   
    23   10   31 1   
    24   11   12 1   
    25   11   13 1   
    26   11   32 1   
    27   13   14 1   
    28   13   33 1   
    29   13   34 1   
    30   14   35 1   
    31   15   16 2   
    32   15   17 1   
    33   17   36 1   
    34   17   37 1   
    35   17   38 1   
    36   18   19 1   
    37   18   39 1   
    38   19   20 1   
    39   19   21 1   
    40   19   40 1   
    41   21   41 1   
    42   21   42 1   
    43   21   43 1   
@<TRIPOS>SUBSTRUCTURE
     1 TNY         1 TEMP              0 ****  ****    0 ROOT
