@<TRIPOS>MOLECULE
TO1
   35    35     1     0     0
SMALL
bcc


@<TRIPOS>ATOM
      1 C           0.9450   -0.3360   -1.3100 c1        1 TO1      0.129000
      2 N           0.1290   -0.3590   -2.4590 n3        1 TO1     -0.225000
      3 O           2.1600    0.1170   -1.5440 oh        1 TO1     -0.218000
      4 C2         -1.2080   -0.8790   -2.3360 c2        1 TO1      0.173000
      5 N2         -1.8840   -1.3770   -1.2650 n3        1 TO1     -0.139000
      6 O2         -0.6410   -0.7000    1.3710 oh        1 TO1     -0.366000
      7 C3         -3.1830   -1.8610   -1.4310 c1        1 TO1      0.097000
      8 N3         -3.7960   -1.8510   -2.6430 n2        1 TO1     -0.217000
      9 O3         -0.2150    0.3780    4.1240 oh        1 TO1     -0.301000
     10 C4         -3.1450   -1.3510   -3.7130 c2        1 TO1      0.077000
     11 N4         -0.3910   -1.6620   -6.6990 n1        1 TO1      0.043000
     12 C5         -1.8440   -0.8260   -3.6340 c2        1 TO1     -0.287000
     13 N5         -3.8340   -1.3700   -5.0280 n4        1 TO1     -0.033000
     14 C6         -0.8800   -0.2030   -4.6010 c3        1 TO1     -0.079000
     15 C7          0.3980    0.0220   -3.7430 c1        1 TO1      0.169000
     16 C8         -0.6160   -1.0160   -5.7590 c1        1 TO1     -0.165000
     17 C9         -0.2390   -1.4340    2.5140 c3        1 TO1     -0.060000
     18 C10         0.5990   -0.5870    3.4820 c3        1 TO1      0.039000
     19 C11         1.7620    0.0710    2.8130 c2        1 TO1     -0.295000
     20 C12         2.4980   -0.5200    1.8630 c2        1 TO1     -0.039000
     21 H           2.6680    0.0880   -0.6990 ho        1 TO1      0.322000
     22 HO2         0.1570   -0.3190    0.9730 ho        1 TO1      0.210000
     23 H3         -1.4720   -1.4050   -0.3380 hn        1 TO1      0.330000
     24 HO3        -0.6540    0.8900    3.4330 ho        1 TO1      0.206000
     25 HO4         3.8180    0.8730    1.6720 ho        1 TO1      0.237000
     26 HN5        -3.1360   -1.3570   -5.7810 hn        1 TO1      0.274000
     27 HN5A       -4.4430   -0.5450   -5.1010 hn        1 TO1      0.274000
     28 H7         -1.2200    0.8280   -4.9260 hc        1 TO1      0.185000
     29 H9          0.3370   -2.3440    2.2000 h1        1 TO1      0.106500
     30 H10        -1.2020   -1.7370    3.0090 h1        1 TO1      0.106500
     31 H11         0.9640   -1.2420    4.3280 h1        1 TO1      0.145000
     32 H12         1.9910    1.0850    3.1830 ha        1 TO1      0.158000
     33 H12A        2.3550   -1.5440    1.4760 h4        1 TO1      0.164000
     34 O4          3.5360    0.0790    1.1920 oh        1 TO1     -0.293000
     35 H53        -4.4160   -2.2170   -5.1090 hn        1 TO1      0.274000
@<TRIPOS>BOND
     1    1    2 1   
     2    1    3 1   
     3    2    4 1   
     4    2   15 1   
     5    3   21 1   
     6    4    5 1   
     7    4   12 1   
     8    5    7 1   
     9    5   23 1   
    10    6   17 1   
    11    6   22 1   
    12    7    8 1   
    13    8   10 1   
    14    9   18 1   
    15    9   24 1   
    16   10   12 1   
    17   10   13 1   
    18   11   16 1   
    19   12   14 1   
    20   13   26 1   
    21   13   27 1   
    22   13   35 1   
    23   14   15 1   
    24   14   16 1   
    25   14   28 1   
    26   17   18 1   
    27   17   29 1   
    28   17   30 1   
    29   18   19 1   
    30   18   31 1   
    31   19   20 1   
    32   19   32 1   
    33   20   33 1   
    34   20   34 1   
    35   25   34 1   
@<TRIPOS>SUBSTRUCTURE
     1 TO1         1 TEMP              0 ****  ****    0 ROOT
