@<TRIPOS>MOLECULE
TO1
   34    34     1     0     0
SMALL
bcc


@<TRIPOS>ATOM
      1 C           0.8550   -0.2940   -1.3050 c1        1 TO1      0.094000
      2 N           0.0630   -0.3790   -2.4440 n3        1 TO1     -0.216000
      3 O           2.1030    0.0910   -1.5530 oh        1 TO1     -0.237000
      4 C2         -1.3150   -0.8210   -2.3260 c2        1 TO1      0.141000
      5 N2         -2.0490   -1.1690   -1.2320 n7        1 TO1     -0.181000
      6 O2         -0.6870   -0.5000    1.4450 oh        1 TO1     -0.343000
      7 C3         -3.3810   -1.5720   -1.4190 c1        1 TO1     -0.009000
      8 N3         -3.9590   -1.6300   -2.6160 n2        1 TO1     -0.288000
      9 O3         -0.0780    0.4300    4.1580 oh        1 TO1     -0.315000
     10 C4         -3.2580   -1.2800   -3.7530 c2        1 TO1      0.257000
     11 N4         -0.3770   -2.0810   -6.5330 n1        1 TO1     -0.026000
     12 C5         -1.8910   -0.8560   -3.6250 c2        1 TO1     -0.349000
     13 N5         -3.8460   -1.3040   -4.9880 n8        1 TO1     -0.347000
     14 C6         -0.8720   -0.3860   -4.6180 c3        1 TO1     -0.058000
     15 C7          0.3840   -0.1300   -3.7490 c1        1 TO1      0.105000
     16 C8         -0.5960   -1.3270   -5.6750 c1        1 TO1     -0.118000
     17 C9         -0.2410   -1.3290    2.4980 c3        1 TO1     -0.057000
     18 C10         0.6650   -0.5640    3.4730 c3        1 TO1      0.040000
     19 C11         1.8510    0.0500    2.8040 c2        1 TO1     -0.299000
     20 C12         2.5330   -0.5400    1.8140 c2        1 TO1     -0.034000
     21 H           2.5750    0.0970   -0.6950 ho        1 TO1      0.290000
     22 HO2         0.0920   -0.2460    0.9240 ho        1 TO1      0.214000
     23 H3         -1.6720   -1.1310   -0.3050 hn        1 TO1      0.286000
     24 HO3        -0.5570    0.9370    3.4880 ho        1 TO1      0.212000
     25 HO4         3.8760    0.8280    1.6270 ho        1 TO1      0.226000
     26 HN5        -3.2790   -1.1930   -5.7910 hn        1 TO1      0.240000
     27 HN5A       -4.7650   -1.6620   -5.0940 hn        1 TO1      0.240000
     28 H7         -1.1710    0.6070   -5.0700 hc        1 TO1      0.167000
     29 H9          0.2930   -2.2290    2.0970 h1        1 TO1      0.101500
     30 H10        -1.1820   -1.6460    3.0260 h1        1 TO1      0.101500
     31 H11         1.0100   -1.2620    4.2910 h1        1 TO1      0.129000
     32 H12         2.1420    1.0350    3.2030 ha        1 TO1      0.149000
     33 H12A        2.3170   -1.5280    1.3730 h4        1 TO1      0.168000
     34 O4          3.6080    0.0190    1.1660 oh        1 TO1     -0.282000
@<TRIPOS>BOND
     1    1    2 1   
     2    1    3 1   
     3    2    4 1   
     4    2   15 1   
     5    3   21 1   
     6    4    5 1   
     7    4   12 1   
     8    5    7 1   
     9    5   23 1   
    10    6   17 1   
    11    6   22 1   
    12    7    8 1   
    13    8   10 1   
    14    9   18 1   
    15    9   24 1   
    16   10   12 1   
    17   10   13 1   
    18   11   16 1   
    19   12   14 1   
    20   13   26 1   
    21   13   27 1   
    22   14   15 1   
    23   14   16 1   
    24   14   28 1   
    25   17   18 1   
    26   17   29 1   
    27   17   30 1   
    28   18   19 1   
    29   18   31 1   
    30   19   20 1   
    31   19   32 1   
    32   20   33 1   
    33   20   34 1   
    34   25   34 1   
@<TRIPOS>SUBSTRUCTURE
     1 TO1         1 TEMP              0 ****  ****    0 ROOT
