@<TRIPOS>MOLECULE
TO1
   34    36     1     0     0
SMALL
bcc


@<TRIPOS>ATOM
      1 C           1.2460   -1.2260    0.0030 c3        1 TO1      0.239800
      2 N           0.0080   -0.5120   -0.2170 na        1 TO1     -0.182100
      3 O           2.0600   -0.5600    0.9810 os        1 TO1     -0.407600
      4 C2         -1.2080   -0.7850    0.4420 ca        1 TO1      0.498800
      5 N2         -1.5070   -1.8150    1.2920 nb        1 TO1     -0.737000
      6 O2          2.5480   -2.7090   -1.3050 oh        1 TO1     -0.581800
      7 C3         -2.7870   -1.7870    1.7280 ca        1 TO1      0.691900
      8 N3         -3.7840   -0.9070    1.4480 nb        1 TO1     -0.789000
      9 O3          4.4680   -0.9590   -1.4500 oh        1 TO1     -0.595800
     10 C4         -3.4890    0.1250    0.5860 ca        1 TO1      0.751200
     11 N4         -2.4310    3.2050   -2.0080 n1        1 TO1     -0.375800
     12 C5         -2.1660    0.2310    0.0480 ca        1 TO1     -0.365400
     13 N5         -4.4600    1.0250    0.2290 nh        1 TO1     -0.961500
     14 C6         -1.4720    1.1280   -0.8440 cc        1 TO1     -0.010900
     15 C7         -0.1610    0.6580   -0.9670 cd        1 TO1     -0.071100
     16 C8         -1.9980    2.2620   -1.4780 cg        1 TO1      0.222500
     17 C9          2.1160   -1.3670   -1.2890 c3        1 TO1      0.125100
     18 C10         3.2500   -0.3330   -1.1020 c3        1 TO1      0.082100
     19 C11         3.1820    0.0920    0.3740 c3        1 TO1      0.052100
     20 C12         3.0260    1.6040    0.5430 c3        1 TO1      0.119400
     21 H           1.0090   -2.2390    0.4520 h2        1 TO1      0.152700
     22 HO2         3.3810   -2.7520   -1.7950 ho        1 TO1      0.437000
     23 H3         -3.0700   -2.6060    2.4260 h5        1 TO1      0.056100
     24 HO3         5.1840   -0.4230   -1.0870 ho        1 TO1      0.425000
     25 HO4         2.4200    1.4790    2.3710 ho        1 TO1      0.419000
     26 HN5        -5.3560    0.9900    0.6490 hn        1 TO1      0.446300
     27 HN5A       -4.2050    1.8170   -0.3040 hn        1 TO1      0.446300
     28 H7          0.6650    1.0670   -1.5540 h4        1 TO1      0.175000
     29 H9          1.5410   -1.1570   -2.2310 h1        1 TO1      0.070700
     30 H10         3.0870    0.5510   -1.7790 h1        1 TO1      0.055700
     31 H11         4.0790   -0.2690    0.9510 h1        1 TO1      0.094700
     32 H12         2.0490    1.9410    0.1030 h1        1 TO1      0.050700
     33 H12A        3.8770    2.1400    0.0430 h1        1 TO1      0.050700
     34 O4          3.1060    1.9730    1.9000 oh        1 TO1     -0.587800
@<TRIPOS>BOND
     1    1    2 1   
     2    1    3 1   
     3    1   17 1   
     4    1   21 1   
     5    2    4 1   
     6    2   15 1   
     7    3   19 1   
     8    4    5 ar  
     9    4   12 ar  
    10    5    7 ar  
    11    6   17 1   
    12    6   22 1   
    13    7    8 ar  
    14    7   23 1   
    15    8   10 ar  
    16    9   18 1   
    17    9   24 1   
    18   10   12 ar  
    19   10   13 1   
    20   11   16 3   
    21   12   14 1   
    22   13   26 1   
    23   13   27 1   
    24   14   15 2   
    25   14   16 1   
    26   15   28 1   
    27   17   18 1   
    28   17   29 1   
    29   18   19 1   
    30   18   30 1   
    31   19   20 1   
    32   19   31 1   
    33   20   32 1   
    34   20   33 1   
    35   20   34 1   
    36   25   34 1   
@<TRIPOS>SUBSTRUCTURE
     1 TO1         1 TEMP              0 ****  ****    0 ROOT
