@<TRIPOS>MOLECULE
TO1
   34    34     1     0     0
SMALL
bcc


@<TRIPOS>ATOM
      1 C           0.8700   -0.2900   -1.2900 c1        1 TO1      0.094000
      2 N           0.0900   -0.3670   -2.4370 n3        1 TO1     -0.216000
      3 O           2.1210    0.0980   -1.5220 oh        1 TO1     -0.237000
      4 C2         -1.2890   -0.8100   -2.3370 c2        1 TO1      0.141000
      5 N2         -2.0340   -1.1660   -1.2530 n3        1 TO1     -0.181000
      6 O2         -0.6980   -0.5200    1.4430 oh        1 TO1     -0.343000
      7 C3         -3.3640   -1.5680   -1.4560 c1        1 TO1     -0.009000
      8 N3         -3.9290   -1.6170   -2.6600 n2        1 TO1     -0.288000
      9 O3         -0.1140    0.3800    4.1720 oh        1 TO1     -0.315000
     10 C4         -3.2170   -1.2590   -3.7870 c2        1 TO1      0.257000
     11 N4         -0.3080   -2.0380   -6.5430 n1        1 TO1     -0.026000
     12 C5         -1.8520   -0.8350   -3.6410 c2        1 TO1     -0.349000
     13 N5         -3.7930   -1.2740   -5.0270 n3        1 TO1     -0.347000
     14 C6         -0.8230   -0.3580   -4.6210 c3        1 TO1     -0.058000
     15 C7          0.4240   -0.1070   -3.7370 c1        1 TO1      0.105000
     16 C8         -0.5360   -1.2900   -5.6820 c1        1 TO1     -0.118000
     17 C9         -0.2630   -1.3610    2.4910 c3        1 TO1     -0.057000
     18 C10         0.6350   -0.6080    3.4830 c3        1 TO1      0.040000
     19 C11         1.8270    0.0130    2.8320 c2        1 TO1     -0.299000
     20 C12         2.5180   -0.5660    1.8410 c2        1 TO1     -0.034000
     21 H           2.5850    0.0970   -0.6600 ho        1 TO1      0.290000
     22 HO2         0.0860   -0.2610    0.9320 ho        1 TO1      0.214000
     23 H3         -1.6670   -1.1350   -0.3220 hn        1 TO1      0.286000
     24 HO3        -0.5860    0.8950    3.5030 ho        1 TO1      0.212000
     25 HO4         3.8640    0.8020    1.6830 ho        1 TO1      0.226000
     26 HN5        -3.2180   -1.1560   -5.8240 hn        1 TO1      0.240000
     27 HN5A       -4.7110   -1.6310   -5.1450 hn        1 TO1      0.240000
     28 H7         -1.1170    0.6390   -5.0680 hc        1 TO1      0.167000
     29 H9          0.2740   -2.2570    2.0850 h1        1 TO1      0.101500
     30 H10        -1.2090   -1.6830    3.0070 h1        1 TO1      0.101500
     31 H11         0.9710   -1.3150    4.2970 h1        1 TO1      0.129000
     32 H12         2.1160    0.9930    3.2450 ha        1 TO1      0.149000
     33 H12A        2.3050   -1.5500    1.3870 h4        1 TO1      0.168000
     34 O4          3.5990   -0.0010    1.2100 oh        1 TO1     -0.282000
@<TRIPOS>BOND
     1    1    2 1   
     2    1    3 1   
     3    2    4 1   
     4    2   15 1   
     5    3   21 1   
     6    4    5 1   
     7    4   12 1   
     8    5    7 1   
     9    5   23 1   
    10    6   17 1   
    11    6   22 1   
    12    7    8 1   
    13    8   10 1   
    14    9   18 1   
    15    9   24 1   
    16   10   12 1   
    17   10   13 1   
    18   11   16 1   
    19   12   14 1   
    20   13   26 1   
    21   13   27 1   
    22   14   15 1   
    23   14   16 1   
    24   14   28 1   
    25   17   18 1   
    26   17   29 1   
    27   17   30 1   
    28   18   19 1   
    29   18   31 1   
    30   19   20 1   
    31   19   32 1   
    32   20   33 1   
    33   20   34 1   
    34   25   34 1   
@<TRIPOS>SUBSTRUCTURE
     1 TO1         1 TEMP              0 ****  ****    0 ROOT
