@<TRIPOS>MOLECULE
TO2
   46    47     1     0     0
SMALL
bcc


@<TRIPOS>ATOM
      1 CAA         1.9560    2.8230    2.4270 c3        1 TO2      0.110700
      2 CAB        -5.3770    0.5100   -2.0110 c3        1 TO2      0.109700
      3 CAC        -1.6250    2.6070    1.2600 c3        1 TO2      0.105700
      4 OAE        -0.2780   -3.6270    0.4210 oh        1 TO2     -0.596800
      5 CAF         3.7880    2.3650   -1.3360 ca        1 TO2     -0.126000
      6 CAG         3.7970    1.0940   -1.9020 ca        1 TO2     -0.125000
      7 CAH         3.0840    2.6070   -0.1550 ca        1 TO2     -0.168000
      8 CAI         3.1110    0.0430   -1.2910 ca        1 TO2     -0.170000
      9 CAJ        -2.2500   -1.9640   -0.6880 ca        1 TO2     -0.118000
     10 CAK        -3.3090   -1.1720   -1.1370 ca        1 TO2     -0.186000
     11 CAL        -1.2240   -0.0380    0.3550 ca        1 TO2     -0.157000
     12 CAM         2.3020   -2.9750   -0.0640 c3        1 TO2      0.121400
     13 OAN         1.6070    1.7220    1.5940 os        1 TO2     -0.321900
     14 OAQ         1.7560   -0.7110    0.6230 os        1 TO2     -0.300900
     15 CAR        -1.2060   -1.4070    0.0470 ca        1 TO2     -0.126300
     16 CAS         2.3830    1.5680    0.4600 ca        1 TO2      0.094100
     17 CAT        -3.3370    0.1900   -0.8360 ca        1 TO2      0.110100
     18 CAU        -2.2800    0.7610   -0.0760 ca        1 TO2      0.100100
     19 CAV         2.4070    0.2660   -0.1050 ca        1 TO2      0.104100
     20 CAW        -0.0640   -2.2330    0.5590 c3        1 TO2      0.182400
     21 CAX         1.2720   -1.8390   -0.1220 c3        1 TO2      0.067100
     22 HAA         1.6150    3.7790    1.9590 h1        1 TO2      0.044367
     23 HAAA        1.3910    2.6250    3.3730 h1        1 TO2      0.044367
     24 HAAB        3.0550    2.8520    2.6210 h1        1 TO2      0.044367
     25 HAB        -4.9720    0.0950   -2.9660 h1        1 TO2      0.044033
     26 HABA       -5.9280   -0.2800   -1.4450 h1        1 TO2      0.044033
     27 HABB       -6.0410    1.3880   -2.2130 h1        1 TO2      0.044033
     28 HAC        -1.9760    3.6650    1.3630 h1        1 TO2      0.046367
     29 HACA       -1.8560    2.0220    2.1830 h1        1 TO2      0.046367
     30 HACB       -0.5280    2.5730    1.0440 h1        1 TO2      0.046367
     31 HOAD        1.6040   -3.9280    1.4700 ho        1 TO2      0.417000
     32 HOAE       -0.3570   -3.8220   -0.5210 ho        1 TO2      0.403000
     33 HAF         4.3350    3.1880   -1.8190 ha        1 TO2      0.136000
     34 HAG         4.3500    0.9090   -2.8340 ha        1 TO2      0.135000
     35 HAH         3.0790    3.6150    0.2830 ha        1 TO2      0.140000
     36 HAI         3.1360   -0.9590   -1.7420 ha        1 TO2      0.138000
     37 HAJ        -2.2670   -3.0420   -0.9090 ha        1 TO2      0.131000
     38 HAK        -4.1200   -1.6350   -1.7160 ha        1 TO2      0.139000
     39 HAL        -0.3870    0.3950    0.9320 ha        1 TO2      0.173000
     40 HAM         3.3230   -2.5750   -0.3130 h1        1 TO2      0.048700
     41 HAMA        2.0060   -3.7610   -0.8100 h1        1 TO2      0.048700
     42 HAW         0.0400   -2.0850    1.6760 h1        1 TO2      0.110700
     43 HAX         1.0840   -1.5620   -1.1940 h1        1 TO2      0.063700
     44 OAD         2.4540   -3.5440    1.2140 oh        1 TO2     -0.587800
     45 OAO        -4.3330    1.0640   -1.2180 os        1 TO2     -0.302900
     46 OAP        -2.3710    2.1200    0.1480 os        1 TO2     -0.308900
@<TRIPOS>BOND
     1    1   13 1   
     2    1   22 1   
     3    1   23 1   
     4    1   24 1   
     5    2   25 1   
     6    2   26 1   
     7    2   27 1   
     8    2   45 1   
     9    3   28 1   
    10    3   29 1   
    11    3   30 1   
    12    3   46 1   
    13    4   20 1   
    14    4   32 1   
    15    5    6 ar  
    16    5    7 ar  
    17    5   33 1   
    18    6    8 ar  
    19    6   34 1   
    20    7   16 ar  
    21    7   35 1   
    22    8   19 ar  
    23    8   36 1   
    24    9   10 ar  
    25    9   15 ar  
    26    9   37 1   
    27   10   17 ar  
    28   10   38 1   
    29   11   15 ar  
    30   11   18 ar  
    31   11   39 1   
    32   12   21 1   
    33   12   40 1   
    34   12   41 1   
    35   12   44 1   
    36   13   16 1   
    37   14   19 1   
    38   14   21 1   
    39   15   20 1   
    40   16   19 ar  
    41   17   18 ar  
    42   17   45 1   
    43   18   46 1   
    44   20   21 1   
    45   20   42 1   
    46   21   43 1   
    47   31   44 1   
@<TRIPOS>SUBSTRUCTURE
     1 TO2         1 TEMP              0 ****  ****    0 ROOT
