@<TRIPOS>MOLECULE
TOA
   26    26     1     0     0
SMALL
bcc


@<TRIPOS>ATOM
      1 C1          0.5820    1.5570    0.6860 c3        1 TOA      0.310900
      2 C2          1.6100    0.4080    0.7390 c3        1 TOA      0.112100
      3 C3          1.1400   -0.7080   -0.2230 c3        1 TOA      0.069500
      4 C4         -0.2890   -1.1500    0.1680 c3        1 TOA      0.117100
      5 C5         -1.2080    0.0810    0.0640 c3        1 TOA      0.075100
      6 C6         -2.6300   -0.2370    0.5550 c3        1 TOA      0.128400
      7 O1          0.6280    2.0830   -0.6160 oh        1 TOA     -0.641800
      8 O2          2.9070    0.8120    0.3730 oh        1 TOA     -0.595800
      9 N3          2.0970   -1.8570   -0.2410 n4        1 TOA     -0.823600
     10 O4         -0.6290   -2.1750   -0.7420 oh        1 TOA     -0.633800
     11 O5         -0.7400    1.1250    0.9170 os        1 TOA     -0.414600
     12 O6         -3.2540   -1.1120   -0.3590 oh        1 TOA     -0.603800
     13 H1          0.7840    2.3250    1.4870 h2        1 TOA      0.124700
     14 H2          1.6880    0.0280    1.7970 h1        1 TOA      0.108700
     15 H3          1.1150   -0.2920   -1.2790 hx        1 TOA      0.138700
     16 H4         -0.3080   -1.5530    1.2200 h1        1 TOA      0.070700
     17 H5         -1.2290    0.4420   -1.0020 h1        1 TOA      0.079700
     18 H61        -2.5950   -0.7940    1.5300 h1        1 TOA      0.083200
     19 H62        -3.2020    0.7170    0.6890 h1        1 TOA      0.083200
     20 HO1         0.0990    2.8930   -0.6360 ho        1 TOA      0.456000
     21 HO2         2.8390    1.5340   -0.2720 ho        1 TOA      0.451000
     22 HN31        2.1210   -2.3110    0.6760 hn        1 TOA      0.467800
     23 HN32        3.0350   -1.5060   -0.4690 hn        1 TOA      0.467800
     24 HN33        1.7830   -2.5390   -0.9430 hn        1 TOA      0.467800
     25 HO4        -1.5920   -2.3070   -0.7170 ho        1 TOA      0.476000
     26 HO6        -3.6570   -0.5820   -1.0580 ho        1 TOA      0.426000
@<TRIPOS>BOND
     1    1    2 1   
     2    1    7 1   
     3    1   11 1   
     4    1   13 1   
     5    2    3 1   
     6    2    8 1   
     7    2   14 1   
     8    3    4 1   
     9    3    9 1   
    10    3   15 1   
    11    4    5 1   
    12    4   10 1   
    13    4   16 1   
    14    5    6 1   
    15    5   11 1   
    16    5   17 1   
    17    6   12 1   
    18    6   18 1   
    19    6   19 1   
    20    7   20 1   
    21    8   21 1   
    22    9   22 1   
    23    9   23 1   
    24    9   24 1   
    25   10   25 1   
    26   12   26 1   
@<TRIPOS>SUBSTRUCTURE
     1 TOA         1 TEMP              0 ****  ****    0 ROOT
