@<TRIPOS>MOLECULE
TOA
   26    26     1     0     0
SMALL
bcc


@<TRIPOS>ATOM
      1 C1         -1.0910   -0.5140   -1.1340 c3        1 TOA      0.315900
      2 C2          0.3890   -0.5530   -1.2460 c3        1 TOA      0.117100
      3 C3          1.0090   -0.5990    0.0320 c3        1 TOA      0.073500
      4 C4          0.5710    0.1070    1.1570 c3        1 TOA      0.108100
      5 C5         -0.9470    0.1280    1.2450 c3        1 TOA      0.080100
      6 C6         -1.4100    1.3830    0.7950 c3        1 TOA      0.102400
      7 O1         -1.6000   -1.2660   -2.0610 oh        1 TOA     -0.614800
      8 O2          0.7830   -1.7580   -2.0170 oh        1 TOA     -0.607800
      9 N3          2.5610   -0.1330   -0.2100 n4        1 TOA     -0.820600
     10 O4          1.1150   -0.5380    2.3710 oh        1 TOA     -0.617800
     11 O5         -1.6640   -1.0390    0.3680 os        1 TOA     -0.432600
     12 O6         -2.8190    1.3790    0.7610 oh        1 TOA     -0.581800
     13 H1         -1.3900    0.4040   -1.2780 h2        1 TOA      0.114700
     14 H2          0.6950    0.2460   -1.7210 h1        1 TOA      0.095700
     15 H3          1.0300   -1.5430    0.2920 hx        1 TOA      0.148700
     16 H4          0.9020    1.0240    1.1070 h1        1 TOA      0.064700
     17 H5         -1.2060    0.0170    2.1800 h1        1 TOA      0.109700
     18 H61        -1.0990    2.0840    1.4070 h1        1 TOA      0.066200
     19 H62        -1.0610    1.5570   -0.1060 h1        1 TOA      0.066200
     20 HO1        -2.4390   -1.0120   -2.2230 ho        1 TOA      0.465000
     21 HO2         1.0070   -1.5210   -2.8420 ho        1 TOA      0.467000
     22 HN31        2.9420   -0.6630   -0.8510 hn        1 TOA      0.468133
     23 HN32        2.5780    0.7420   -0.4860 hn        1 TOA      0.468133
     24 HN33        3.0300   -0.2150    0.5730 hn        1 TOA      0.468133
     25 HO4         1.2360    0.0750    3.0030 ho        1 TOA      0.450000
     26 HO6        -3.1210    2.2060    0.8860 ho        1 TOA      0.425000
@<TRIPOS>BOND
     1    1    2 1   
     2    1    7 1   
     3    1   11 1   
     4    1   13 1   
     5    2    3 1   
     6    2    8 1   
     7    2   14 1   
     8    3    4 1   
     9    3    9 1   
    10    3   15 1   
    11    4    5 1   
    12    4   10 1   
    13    4   16 1   
    14    5    6 1   
    15    5   11 1   
    16    5   17 1   
    17    6   12 1   
    18    6   18 1   
    19    6   19 1   
    20    7   20 1   
    21    8   21 1   
    22    9   22 1   
    23    9   23 1   
    24    9   24 1   
    25   10   25 1   
    26   12   26 1   
@<TRIPOS>SUBSTRUCTURE
     1 TOA         1 TEMP              0 ****  ****    0 ROOT
