@<TRIPOS>MOLECULE
TOB
   26    26     1     0     0
SMALL
bcc


@<TRIPOS>ATOM
      1 C1          0.4320   -1.2400    0.2550 c3        1 TOB      0.122500
      2 C2         -1.0220   -1.2720   -0.2280 c3        1 TOB     -0.132400
      3 C3         -1.7480   -0.0340    0.3240 c3        1 TOB      0.136500
      4 C4         -1.0780    1.2540   -0.1620 c3        1 TOB     -0.160400
      5 C5          0.3910    1.2760    0.2610 c3        1 TOB      0.129100
      6 C6          1.1280    0.0370   -0.2850 c3        1 TOB      0.127100
      7 N1          1.2070   -2.4600   -0.1470 n4        1 TOB     -0.834600
      8 N3         -3.2060   -0.0450   -0.0510 n4        1 TOB     -0.842600
      9 O5          1.0490    2.3660   -0.3500 oh        1 TOB     -0.572800
     10 O6          2.4560   -0.0190    0.1890 oh        1 TOB     -0.617800
     11 H1          0.4650   -1.2110    1.3900 hx        1 TOB      0.134700
     12 H21        -1.5260   -2.2090    0.1360 hc        1 TOB      0.093700
     13 H22        -1.0540   -1.2680   -1.3520 hc        1 TOB      0.093700
     14 H3         -1.7180   -0.0630    1.4590 hx        1 TOB      0.125700
     15 H41        -1.1330    1.3440   -1.2810 hc        1 TOB      0.103700
     16 H42        -1.5870    2.1560    0.2760 hc        1 TOB      0.103700
     17 H5          0.4850    1.3210    1.3820 h1        1 TOB      0.081700
     18 H6          1.1200    0.0590   -1.4120 h1        1 TOB      0.091700
     19 HN11        1.1700   -2.5990   -1.1630 hn        1 TOB      0.481800
     20 HN12        2.1960   -2.3120    0.1270 hn        1 TOB      0.481800
     21 HN13        0.8440   -3.2940    0.3250 hn        1 TOB      0.481800
     22 HN31       -3.6610   -0.8960    0.3000 hn        1 TOB      0.476800
     23 HN32       -3.3170   -0.0030   -1.0710 hn        1 TOB      0.476800
     24 HN33       -3.6700    0.7760    0.3620 hn        1 TOB      0.476800
     25 HO5         0.8950    3.1570    0.1870 ho        1 TOB      0.454000
     26 HO6         2.8850    0.8300   -0.0200 ho        1 TOB      0.487000
@<TRIPOS>BOND
     1    1    2 1   
     2    1    6 1   
     3    1    7 1   
     4    1   11 1   
     5    2    3 1   
     6    2   12 1   
     7    2   13 1   
     8    3    4 1   
     9    3    8 1   
    10    3   14 1   
    11    4    5 1   
    12    4   15 1   
    13    4   16 1   
    14    5    6 1   
    15    5    9 1   
    16    5   17 1   
    17    6   10 1   
    18    6   18 1   
    19    7   19 1   
    20    7   20 1   
    21    7   21 1   
    22    8   22 1   
    23    8   23 1   
    24    8   24 1   
    25    9   25 1   
    26   10   26 1   
@<TRIPOS>SUBSTRUCTURE
     1 TOB         1 TEMP              0 ****  ****    0 ROOT
