@<TRIPOS>MOLECULE
TOB
   26    26     1     0     0
SMALL
bcc


@<TRIPOS>ATOM
      1 C1          0.0340   -0.0330   -0.0660 c3        1 TOB      0.122500
      2 C2          1.5660   -0.0560   -0.0480 c3        1 TOB     -0.132400
      3 C3          2.0390   -0.0270    1.4160 c3        1 TOB      0.136500
      4 C4          1.5020   -1.2350    2.1870 c3        1 TOB     -0.160400
      5 C5         -0.0260   -1.2610    2.1300 c3        1 TOB      0.129100
      6 C6         -0.5100   -1.2880    0.6670 c3        1 TOB      0.127100
      7 N1         -0.5320    0.0410   -1.4530 nz        1 TOB     -0.834600
      8 N3          3.5410    0.0310    1.5020 nz        1 TOB     -0.842600
      9 O5         -0.5040   -2.4730    2.6740 oh        1 TOB     -0.572800
     10 O6         -1.9170   -1.1980    0.5920 oh        1 TOB     -0.617800
     11 H1         -0.3480    0.8890    0.4750 hx        1 TOB      0.134700
     12 H21         1.9430   -0.9860   -0.5550 hc        1 TOB      0.093700
     13 H22         1.9700    0.8350   -0.6010 hc        1 TOB      0.093700
     14 H3          1.6620    0.9250    1.9060 hx        1 TOB      0.125700
     15 H41         1.8160   -1.1890    3.2650 hc        1 TOB      0.103700
     16 H42         1.8950   -2.1980    1.7600 hc        1 TOB      0.103700
     17 H5         -0.4620   -0.3730    2.6670 h1        1 TOB      0.081700
     18 H6         -0.1560   -2.2360    0.1690 h1        1 TOB      0.091700
     19 HN11       -1.5620   -0.0510   -1.3800 hn        1 TOB      0.481800
     20 HN12       -0.1790   -0.7270   -2.0340 hn        1 TOB      0.481800
     21 HN13       -0.3000    0.9360   -1.8940 hn        1 TOB      0.481800
     22 HN31        3.9580   -0.8120    1.0890 hn        1 TOB      0.476800
     23 HN32        3.8230    0.0840    2.4900 hn        1 TOB      0.476800
     24 HN33        3.8980    0.8570    1.0080 hn        1 TOB      0.476800
     25 HO5        -0.5540   -2.3780    3.6370 ho        1 TOB      0.454000
     26 HO6        -2.2920   -1.8980    1.1540 ho        1 TOB      0.487000
@<TRIPOS>BOND
     1    1    2 1   
     2    1    6 1   
     3    1    7 1   
     4    1   11 1   
     5    2    3 1   
     6    2   12 1   
     7    2   13 1   
     8    3    4 1   
     9    3    8 1   
    10    3   14 1   
    11    4    5 1   
    12    4   15 1   
    13    4   16 1   
    14    5    6 1   
    15    5    9 1   
    16    5   17 1   
    17    6   10 1   
    18    6   18 1   
    19    7   19 1   
    20    7   20 1   
    21    7   21 1   
    22    8   22 1   
    23    8   23 1   
    24    8   24 1   
    25    9   25 1   
    26   10   26 1   
@<TRIPOS>SUBSTRUCTURE
     1 TOB         1 TEMP              0 ****  ****    0 ROOT
