@<TRIPOS>MOLECULE
TOB
   26    26     1     0     0
SMALL
bcc


@<TRIPOS>ATOM
      1 C1          0.0380   -0.0260   -0.0630 c3        1 TOB      0.122500
      2 C2          1.5700   -0.0560   -0.0450 c3        1 TOB     -0.132400
      3 C3          2.0430   -0.0350    1.4180 c3        1 TOB      0.136500
      4 C4          1.5010   -1.2440    2.1850 c3        1 TOB     -0.160400
      5 C5         -0.0280   -1.2630    2.1280 c3        1 TOB      0.129100
      6 C6         -0.5120   -1.2820    0.6640 c3        1 TOB      0.127100
      7 N1         -0.5280    0.0560   -1.4500 n4        1 TOB     -0.834600
      8 N3          3.5450    0.0160    1.5050 n4        1 TOB     -0.842600
      9 O5         -0.5120   -2.4740    2.6670 oh        1 TOB     -0.572800
     10 O6         -1.9180   -1.1840    0.5900 oh        1 TOB     -0.617800
     11 H1         -0.3400    0.8950    0.4810 hx        1 TOB      0.134700
     12 H21         1.9770    0.8350   -0.5950 hc        1 TOB      0.093700
     13 H22         1.9420   -0.9860   -0.5560 hc        1 TOB      0.093700
     14 H3          1.6700    0.9160    1.9130 hx        1 TOB      0.125700
     15 H41         1.8140   -1.2040    3.2630 hc        1 TOB      0.103700
     16 H42         1.8890   -2.2070    1.7540 hc        1 TOB      0.103700
     17 H5         -0.4590   -0.3750    2.6690 h1        1 TOB      0.081700
     18 H6         -0.1630   -2.2290    0.1630 h1        1 TOB      0.091700
     19 HN11       -0.2920    0.9520   -1.8870 hn        1 TOB      0.481800
     20 HN12       -1.5580   -0.0330   -1.3780 hn        1 TOB      0.481800
     21 HN13       -0.1780   -0.7110   -2.0340 hn        1 TOB      0.481800
     22 HN31        3.8270    0.0640    2.4940 hn        1 TOB      0.476800
     23 HN32        3.9060    0.8420    1.0140 hn        1 TOB      0.476800
     24 HN33        3.9590   -0.8280    1.0890 hn        1 TOB      0.476800
     25 HO5        -0.5610   -2.3830    3.6310 ho        1 TOB      0.454000
     26 HO6        -2.2970   -1.8860    1.1490 ho        1 TOB      0.487000
@<TRIPOS>BOND
     1    1    2 1   
     2    1    6 1   
     3    1    7 1   
     4    1   11 1   
     5    2    3 1   
     6    2   12 1   
     7    2   13 1   
     8    3    4 1   
     9    3    8 1   
    10    3   14 1   
    11    4    5 1   
    12    4   15 1   
    13    4   16 1   
    14    5    6 1   
    15    5    9 1   
    16    5   17 1   
    17    6   10 1   
    18    6   18 1   
    19    7   19 1   
    20    7   20 1   
    21    7   21 1   
    22    8   22 1   
    23    8   23 1   
    24    8   24 1   
    25    9   25 1   
    26   10   26 1   
@<TRIPOS>SUBSTRUCTURE
     1 TOB         1 TEMP              0 ****  ****    0 ROOT
