@<TRIPOS>MOLECULE
TOB
   26    26     1     0     0
SMALL
bcc


@<TRIPOS>ATOM
      1 C1          0.0360   -0.0280   -0.0660 c3        1 TOB      0.122500
      2 C2          1.5680   -0.0560   -0.0450 c3        1 TOB     -0.132400
      3 C3          2.0380   -0.0330    1.4190 c3        1 TOB      0.136500
      4 C4          1.4960   -1.2410    2.1860 c3        1 TOB     -0.160400
      5 C5         -0.0320   -1.2620    2.1260 c3        1 TOB      0.129100
      6 C6         -0.5140   -1.2830    0.6610 c3        1 TOB      0.127100
      7 N1         -0.5260    0.0520   -1.4550 n4        1 TOB     -0.834600
      8 N3          3.5400    0.0200    1.5080 n4        1 TOB     -0.842600
      9 O5         -0.5160   -2.4740    2.6650 oh        1 TOB     -0.572800
     10 O6         -1.9200   -1.1880    0.5840 oh        1 TOB     -0.617800
     11 H1         -0.3440    0.8940    0.4760 hx        1 TOB      0.134700
     12 H21         1.9760    0.8360   -0.5960 hc        1 TOB      0.093700
     13 H22         1.9430   -0.9860   -0.5550 hc        1 TOB      0.093700
     14 H3          1.6630    0.9190    1.9120 hx        1 TOB      0.125700
     15 H41         1.8870   -2.2040    1.7570 hc        1 TOB      0.103700
     16 H42         1.8080   -1.1990    3.2650 hc        1 TOB      0.103700
     17 H5         -0.4660   -0.3740    2.6650 h1        1 TOB      0.081700
     18 H6         -0.1620   -2.2300    0.1620 h1        1 TOB      0.091700
     19 HN11       -0.1750   -0.7150   -2.0370 hn        1 TOB      0.481800
     20 HN12       -0.2910    0.9480   -1.8920 hn        1 TOB      0.481800
     21 HN13       -1.5570   -0.0370   -1.3840 hn        1 TOB      0.481800
     22 HN31        3.8200    0.0700    2.4980 hn        1 TOB      0.476800
     23 HN32        3.9010    0.8470    1.0180 hn        1 TOB      0.476800
     24 HN33        3.9560   -0.8230    1.0950 hn        1 TOB      0.476800
     25 HO5        -0.5670   -2.3820    3.6290 ho        1 TOB      0.454000
     26 HO6        -2.2990   -1.8890    1.1430 ho        1 TOB      0.487000
@<TRIPOS>BOND
     1    1    2 1   
     2    1    6 1   
     3    1    7 1   
     4    1   11 1   
     5    2    3 1   
     6    2   12 1   
     7    2   13 1   
     8    3    4 1   
     9    3    8 1   
    10    3   14 1   
    11    4    5 1   
    12    4   15 1   
    13    4   16 1   
    14    5    6 1   
    15    5    9 1   
    16    5   17 1   
    17    6   10 1   
    18    6   18 1   
    19    7   19 1   
    20    7   20 1   
    21    7   21 1   
    22    8   22 1   
    23    8   23 1   
    24    8   24 1   
    25    9   25 1   
    26   10   26 1   
@<TRIPOS>SUBSTRUCTURE
     1 TOB         1 TEMP              0 ****  ****    0 ROOT
