@<TRIPOS>MOLECULE
TOC
   27    27     1     0     0
SMALL
bcc


@<TRIPOS>ATOM
      1 C1         -0.5380   -0.5820   -1.4810 c3        1 TOC      0.332900
      2 C2          0.9790   -0.5820   -1.4810 c3        1 TOC      0.103500
      3 C3          1.5390   -0.5820   -0.1180 c3        1 TOC     -0.153400
      4 C4          0.9670    0.4970    0.7250 c3        1 TOC      0.139100
      5 C5         -0.5560    0.4950    0.7150 c3        1 TOC      0.115100
      6 C6         -1.0500    1.7190    1.4380 c3        1 TOC      0.100800
      7 N2          1.4520   -1.7750   -2.1870 n4        1 TOC     -0.834600
      8 N6         -2.3960    1.5040    1.8780 n4        1 TOC     -0.833600
      9 O1         -0.9860   -1.8050   -1.0150 oh        1 TOC     -0.635800
     10 O4          1.4220    0.3220    2.0770 oh        1 TOC     -0.584800
     11 O5         -1.1040    0.4910   -0.6330 os        1 TOC     -0.449600
     12 H1         -0.8530   -0.4600   -2.3970 h2        1 TOC      0.122700
     13 H2          1.2950    0.2110   -1.9530 hx        1 TOC      0.133700
     14 H31         1.3520   -1.4440    0.3010 hc        1 TOC      0.103200
     15 H32         2.5060   -0.4610   -0.1740 hc        1 TOC      0.103200
     16 H4          1.2830    1.3590    0.3940 h1        1 TOC      0.074700
     17 H5         -0.8730   -0.2990    1.1860 h1        1 TOC      0.104700
     18 H61        -1.0230    2.4860    0.8350 hx        1 TOC      0.141700
     19 H62        -0.4790    1.8930    2.2110 hx        1 TOC      0.141700
     20 HN21        0.9890   -1.8700   -2.9670 hn        1 TOC      0.478133
     21 HN22        1.3220   -2.5100   -1.6640 hn        1 TOC      0.478133
     22 HN23        2.3410   -1.6870   -2.3710 hn        1 TOC      0.478133
     23 HN61       -2.9300    1.3480    1.1550 hn        1 TOC      0.472800
     24 HN62       -2.4220    0.7830    2.4360 hn        1 TOC      0.472800
     25 HN63       -2.6920    2.2430    2.3220 hn        1 TOC      0.472800
     26 HO1        -1.7560   -2.0070   -1.4070 ho        1 TOC      0.467000
     27 HO4         2.2120    0.7150    2.1760 ho        1 TOC      0.453000
@<TRIPOS>BOND
     1    1    2 1   
     2    1    9 1   
     3    1   11 1   
     4    1   12 1   
     5    2    3 1   
     6    2    7 1   
     7    2   13 1   
     8    3    4 1   
     9    3   14 1   
    10    3   15 1   
    11    4    5 1   
    12    4   10 1   
    13    4   16 1   
    14    5    6 1   
    15    5   11 1   
    16    5   17 1   
    17    6    8 1   
    18    6   18 1   
    19    6   19 1   
    20    7   20 1   
    21    7   21 1   
    22    7   22 1   
    23    8   23 1   
    24    8   24 1   
    25    8   25 1   
    26    9   26 1   
    27   10   27 1   
@<TRIPOS>SUBSTRUCTURE
     1 TOC         1 TEMP              0 ****  ****    0 ROOT
