@<TRIPOS>MOLECULE
TOC
   27    27     1     0     0
SMALL
bcc


@<TRIPOS>ATOM
      1 C1         -1.0220   -1.2430    0.2310 c3        1 TOC      0.332900
      2 C2         -1.8310    0.0540    0.5390 c3        1 TOC      0.103500
      3 C3         -1.1890    1.2640   -0.1400 c3        1 TOC     -0.153400
      4 C4          0.2880    1.3430    0.2470 c3        1 TOC      0.139100
      5 C5          0.9890    0.0300   -0.1630 c3        1 TOC      0.115100
      6 C6          2.4350    0.0640    0.3520 c3        1 TOC      0.100800
      7 N2         -3.2590   -0.1090    0.1100 n4        1 TOC     -0.834600
      8 N6          3.2500   -1.0940   -0.1050 n4        1 TOC     -0.833600
      9 O1         -1.1810   -1.5130   -1.1340 oh        1 TOC     -0.635800
     10 O4          0.9490    2.3560   -0.4820 oh        1 TOC     -0.584800
     11 O5          0.3620   -1.0900    0.4650 os        1 TOC     -0.449600
     12 H1         -1.3220   -2.1000    0.9030 h2        1 TOC      0.122700
     13 H2         -1.8270    0.2010    1.6630 hx        1 TOC      0.133700
     14 H31        -1.2630    1.1780   -1.2600 hc        1 TOC      0.103200
     15 H32        -1.7000    2.2130    0.1730 hc        1 TOC      0.103200
     16 H4          0.3920    1.5140    1.3550 h1        1 TOC      0.074700
     17 H5          0.9400   -0.0900   -1.2820 h1        1 TOC      0.104700
     18 H61         2.4380    0.0620    1.4810 hx        1 TOC      0.141700
     19 H62         2.9120    1.0210   -0.0250 hx        1 TOC      0.141700
     20 HN21       -3.7210   -0.8300    0.6750 hn        1 TOC      0.478133
     21 HN22       -3.7600    0.7800    0.2180 hn        1 TOC      0.478133
     22 HN23       -3.2860   -0.3930   -0.8820 hn        1 TOC      0.478133
     23 HN61        2.8130   -1.9720    0.2010 hn        1 TOC      0.472800
     24 HN62        4.1950   -1.0320    0.2970 hn        1 TOC      0.472800
     25 HN63        3.3260   -1.1010   -1.1280 hn        1 TOC      0.472800
     26 HO1        -0.8380   -2.4000   -1.3250 ho        1 TOC      0.467000
     27 HO4         0.5880    3.2120   -0.2060 ho        1 TOC      0.453000
@<TRIPOS>BOND
     1    1    2 1   
     2    1    9 1   
     3    1   11 1   
     4    1   12 1   
     5    2    3 1   
     6    2    7 1   
     7    2   13 1   
     8    3    4 1   
     9    3   14 1   
    10    3   15 1   
    11    4    5 1   
    12    4   10 1   
    13    4   16 1   
    14    5    6 1   
    15    5   11 1   
    16    5   17 1   
    17    6    8 1   
    18    6   18 1   
    19    6   19 1   
    20    7   20 1   
    21    7   21 1   
    22    7   22 1   
    23    8   23 1   
    24    8   24 1   
    25    8   25 1   
    26    9   26 1   
    27   10   27 1   
@<TRIPOS>SUBSTRUCTURE
     1 TOC         1 TEMP              0 ****  ****    0 ROOT
