@<TRIPOS>MOLECULE
TOD
   47    47     1     0     0
SMALL
bcc


@<TRIPOS>ATOM
      1 C2         -0.3100    1.2800    1.1360 c3        1 TOD     -0.087700
      2 C3          0.9700    2.0180    0.7860 c3        1 TOD     -0.101100
      3 C4         -0.2070    0.6990    2.5410 c3        1 TOD     -0.107400
      4 C5         -0.8470   -0.6600    2.7720 c3        1 TOD     -0.108700
      5 C6         -0.2120   -1.8000    1.9800 c3        1 TOD      0.075100
      6 C7          1.3000   -1.9690    1.9940 c         1 TOD      0.547100
      7 C10        -4.2630   -2.3930   -0.1780 ca        1 TOD     -0.178300
      8 C11        -4.4090   -1.9970   -1.5140 ca        1 TOD     -0.093500
      9 C12        -5.6180   -2.2150   -2.1730 ca        1 TOD     -0.128500
     10 C14        -6.5360   -3.2230   -0.1760 ca        1 TOD     -0.128500
     11 C16        -1.7340   -2.4110   -0.3880 c         1 TOD      0.913600
     12 O6         -1.4110   -1.4890   -1.1750 o         1 TOD     -0.811800
     13 O5         -0.9790   -3.4120   -0.1560 o         1 TOD     -0.811800
     14 C9         -2.9720   -2.2000    0.5430 c3        1 TOD      0.083800
     15 C15        -5.3320   -3.0070    0.4900 ca        1 TOD     -0.093500
     16 C13        -6.6800   -2.8270   -1.5070 ca        1 TOD     -0.079000
     17 N2         -2.9060   -0.7820    1.1140 ny        1 TOD     -0.683800
     18 C8         -2.3490   -0.6520    2.5040 c         1 TOD      0.547100
     19 O4         -3.1860   -0.5040    3.3840 o         1 TOD     -0.411100
     20 C1         -1.4840    2.2350    1.0230 c3        1 TOD     -0.101100
     21 O3         -0.7520   -2.9980    2.4900 oh        1 TOD     -0.601800
     22 O1          2.1880   -1.4940    2.6660 o         1 TOD     -0.368100
     23 N1          1.7280   -2.9740    0.8890 ny        1 TOD     -0.451300
     24 O2          1.6290   -2.3980   -0.3290 oh        1 TOD     -0.386300
     25 H1         -0.4320    0.4510    0.3820 hc        1 TOD      0.043700
     26 H2          0.8720    2.4930   -0.2200 hc        1 TOD      0.049700
     27 H3          1.1820    2.8180    1.5360 hc        1 TOD      0.049700
     28 H4          1.8370    1.3140    0.7620 hc        1 TOD      0.049700
     29 H5         -0.6580    1.4240    3.2740 hc        1 TOD      0.089200
     30 H6          0.8790    0.5940    2.8230 hc        1 TOD      0.089200
     31 H7         -0.7530   -0.9010    3.8790 hc        1 TOD      0.142700
     32 H8         -0.4150   -1.5790    0.8900 h1        1 TOD      0.114700
     33 H9         -3.5610   -1.5340   -2.0490 ha        1 TOD      0.153500
     34 H10        -5.7280   -1.9100   -3.2260 ha        1 TOD      0.156000
     35 H11        -7.3730   -3.7120    0.3480 ha        1 TOD      0.156000
     36 H13        -2.9130   -2.9100    1.4190 hx        1 TOD      0.106700
     37 H14        -5.2220   -3.3330    1.5360 ha        1 TOD      0.153500
     38 H15        -7.6330   -3.0020   -2.0330 ha        1 TOD      0.155000
     39 H16        -2.3480   -0.2100    0.4550 hn        1 TOD      0.471300
     40 H17        -2.3970    1.8250    1.5180 hc        1 TOD      0.049700
     41 H18        -1.2420    3.2090    1.5160 hc        1 TOD      0.049700
     42 H19        -1.7130    2.4380   -0.0510 hc        1 TOD      0.049700
     43 H20        -0.9800   -3.6080    1.7600 ho        1 TOD      0.474000
     44 H21         1.1350   -3.8240    0.9540 hn        1 TOD      0.481800
     45 H22         0.7440   -2.6260   -0.7450 ho        1 TOD      0.524000
     46 H221       -3.8680   -0.4100    1.1250 hn        1 TOD      0.471300
     47 H12         2.7290   -3.2250    1.0100 hn        1 TOD      0.481800
@<TRIPOS>BOND
     1    1    2 1   
     2    1    3 1   
     3    1   20 1   
     4    1   25 1   
     5    2   26 1   
     6    2   27 1   
     7    2   28 1   
     8    3    4 1   
     9    3   29 1   
    10    3   30 1   
    11    4    5 1   
    12    4   18 1   
    13    4   31 1   
    14    5    6 1   
    15    5   21 1   
    16    5   32 1   
    17    6   22 2   
    18    6   23 1   
    19    7    8 ar  
    20    7   14 1   
    21    7   15 ar  
    22    8    9 ar  
    23    8   33 1   
    24    9   16 ar  
    25    9   34 1   
    26   10   15 ar  
    27   10   16 ar  
    28   10   35 1   
    29   11   12 1   
    30   11   13 1   
    31   11   14 1   
    32   14   17 1   
    33   14   36 1   
    34   15   37 1   
    35   16   38 1   
    36   17   18 1   
    37   17   39 1   
    38   17   46 1   
    39   18   19 2   
    40   20   40 1   
    41   20   41 1   
    42   20   42 1   
    43   21   43 1   
    44   23   24 1   
    45   23   44 1   
    46   23   47 1   
    47   24   45 1   
@<TRIPOS>SUBSTRUCTURE
     1 TOD         1 TEMP              0 ****  ****    0 ROOT
