@<TRIPOS>MOLECULE
TOD
   47    47     1     0     0
SMALL
bcc


@<TRIPOS>ATOM
      1 C2          0.1410   -1.0430   -1.7130 c3        1 TOD     -0.060700
      2 C3          1.1040   -1.3800   -2.8360 c3        1 TOD     -0.103100
      3 C4          0.8750   -1.1120   -0.3820 c3        1 TOD     -0.093400
      4 C5         -0.0500   -1.0940    0.8350 c3        1 TOD     -0.164700
      5 C6          0.8000   -0.9650    2.1270 c3        1 TOD      0.099100
      6 C7          0.2910    0.2060    2.9730 c         1 TOD      0.531100
      7 C10        -4.5510   -1.4400    0.8630 ca        1 TOD     -0.175300
      8 C11        -5.1570   -2.1920    1.8770 ca        1 TOD     -0.098000
      9 C12        -6.5270   -2.4430    1.8290 ca        1 TOD     -0.125500
     10 C14        -6.6920   -1.1840   -0.2300 ca        1 TOD     -0.125500
     11 C16        -2.6060   -0.7220    2.3220 c         1 TOD      0.904600
     12 O6         -2.4510   -1.6110    3.2100 o         1 TOD     -0.808800
     13 O5         -2.2390    0.4750    2.4790 o         1 TOD     -0.808800
     14 C9         -3.0890   -1.1440    0.9130 c3        1 TOD      0.092800
     15 C15        -5.3220   -0.9340   -0.1920 ca        1 TOD     -0.098000
     16 C13        -7.2940   -1.9410    0.7770 ca        1 TOD     -0.081000
     17 N2         -2.3100   -2.3780    0.4960 n4        1 TOD     -0.658800
     18 C8         -0.8520   -2.3790    0.8560 c         1 TOD      0.570100
     19 O4         -0.3880   -3.4850    1.1160 o         1 TOD     -0.440100
     20 C1         -0.4740    0.3210   -1.9480 c3        1 TOD     -0.103100
     21 O3          0.7920   -2.1220    2.9330 oh        1 TOD     -0.604800
     22 O1          0.3800    1.3760    2.6400 o         1 TOD     -0.380100
     23 N1         -0.3260   -0.1130    4.3160 n4        1 TOD     -0.428300
     24 O2         -0.9120    0.9680    4.8690 oh        1 TOD     -0.375300
     25 H1         -0.6790   -1.8160   -1.7160 hc        1 TOD      0.010700
     26 H2          0.5750   -1.3370   -3.8190 hc        1 TOD      0.052033
     27 H3          1.9490   -0.6500   -2.8580 hc        1 TOD      0.052033
     28 H4          1.5220   -2.4070   -2.7030 hc        1 TOD      0.052033
     29 H5          1.5650   -0.2270   -0.3120 hc        1 TOD      0.079200
     30 H6          1.5050   -2.0420   -0.3490 hc        1 TOD      0.079200
     31 H7         -0.7220   -0.1870    0.7620 hc        1 TOD      0.141700
     32 H8          1.8640   -0.6960    1.8430 h1        1 TOD      0.111700
     33 H9         -4.5520   -2.5570    2.7270 ha        1 TOD      0.151500
     34 H10        -7.0040   -3.0300    2.6300 ha        1 TOD      0.155500
     35 H11        -7.3000   -0.7790   -1.0530 ha        1 TOD      0.155500
     36 H13        -2.8300   -0.3180    0.1840 hx        1 TOD      0.111700
     37 H14        -4.8560   -0.3240   -0.9800 ha        1 TOD      0.151500
     38 H15        -8.3790   -2.1350    0.7450 ha        1 TOD      0.156000
     39 H16        -2.4050   -2.5090   -0.5160 hn        1 TOD      0.466300
     40 H17         0.3120    1.1150   -1.9310 hc        1 TOD      0.052033
     41 H18        -0.9730    0.3490   -2.9470 hc        1 TOD      0.052033
     42 H19        -1.2360    0.5630   -1.1680 hc        1 TOD      0.052033
     43 H20         1.2710   -2.8240    2.4640 ho        1 TOD      0.466000
     44 H21        -1.0360   -0.8980    4.1950 hn        1 TOD      0.505800
     45 H22        -1.6460    1.2630    4.2640 ho        1 TOD      0.509000
     46 H221       -2.7460   -3.1870    0.9730 hn        1 TOD      0.466300
     47 H12         0.4150   -0.4120    4.9750 hn        1 TOD      0.505800
@<TRIPOS>BOND
     1    1    2 1   
     2    1    3 1   
     3    1   20 1   
     4    1   25 1   
     5    2   26 1   
     6    2   27 1   
     7    2   28 1   
     8    3    4 1   
     9    3   29 1   
    10    3   30 1   
    11    4    5 1   
    12    4   18 1   
    13    4   31 1   
    14    5    6 1   
    15    5   21 1   
    16    5   32 1   
    17    6   22 2   
    18    6   23 1   
    19    7    8 ar  
    20    7   14 1   
    21    7   15 ar  
    22    8    9 ar  
    23    8   33 1   
    24    9   16 ar  
    25    9   34 1   
    26   10   15 ar  
    27   10   16 ar  
    28   10   35 1   
    29   11   12 1   
    30   11   13 1   
    31   11   14 1   
    32   14   17 1   
    33   14   36 1   
    34   15   37 1   
    35   16   38 1   
    36   17   18 1   
    37   17   39 1   
    38   17   46 1   
    39   18   19 2   
    40   20   40 1   
    41   20   41 1   
    42   20   42 1   
    43   21   43 1   
    44   23   24 1   
    45   23   44 1   
    46   23   47 1   
    47   24   45 1   
@<TRIPOS>SUBSTRUCTURE
     1 TOD         1 TEMP              0 ****  ****    0 ROOT
