@<TRIPOS>MOLECULE
TOE
   27    26     1     0     0
SMALL
bcc


@<TRIPOS>ATOM
      1 O2'        -0.4370    1.0040    0.8350 oh        1 TOE     -0.600800
      2 CA'         0.7240    0.5440    0.1750 c3        1 TOE      0.131400
      3 CB'         1.8160    0.1530    1.1650 c3        1 TOE      0.087400
      4 OC'         1.3220   -0.9830    1.8710 os        1 TOE     -0.438600
      5 CD'         2.2270   -1.4310    2.8790 c3        1 TOE      0.128400
      6 CE'         1.6660   -2.7460    3.4120 c3        1 TOE      0.127400
      7 OF'         2.4990   -3.7800    2.8930 os        1 TOE     -0.428600
      8 CG'         1.9960   -5.0810    3.1940 c3        1 TOE      0.127400
      9 CH'         3.0700   -6.0720    2.7570 c3        1 TOE      0.123400
     10 OI'         3.6300   -6.6140    3.9520 os        1 TOE     -0.424600
     11 CK'         4.7440   -7.4520    3.6990 c3        1 TOE      0.117700
     12 H1         -0.7190    0.2990    1.4310 ho        1 TOE      0.412000
     13 H2          1.0690    1.4110   -0.4490 h1        1 TOE      0.053200
     14 H3          0.4730   -0.3290   -0.4840 h1        1 TOE      0.053200
     15 H4          2.7610   -0.1150    0.6250 h1        1 TOE      0.039200
     16 H5          2.0170    0.9880    1.8860 h1        1 TOE      0.039200
     17 H6          3.2490   -1.5820    2.4430 h1        1 TOE      0.045200
     18 H7          2.2730   -0.6650    3.6960 h1        1 TOE      0.045200
     19 H8          0.6070   -2.8950    3.0740 h1        1 TOE      0.043700
     20 H9          1.7110   -2.7640    4.5330 h1        1 TOE      0.043700
     21 H10         1.0480   -5.2490    2.6180 h1        1 TOE      0.044200
     22 H11         1.7910   -5.1740    4.2930 h1        1 TOE      0.044200
     23 H12         3.8650   -5.5580    2.1550 h1        1 TOE      0.043200
     24 H13         2.6160   -6.9010    2.1540 h1        1 TOE      0.043200
     25 H14         4.4480   -8.3190    3.0580 h1        1 TOE      0.033033
     26 H15         5.5660   -6.8780    3.2050 h1        1 TOE      0.033033
     27 H16         5.0640   -7.8050    4.7110 h1        1 TOE      0.033033
@<TRIPOS>BOND
     1    1    2 1   
     2    1   12 1   
     3    2    3 1   
     4    2   13 1   
     5    2   14 1   
     6    3    4 1   
     7    3   15 1   
     8    3   16 1   
     9    4    5 1   
    10    5    6 1   
    11    5   17 1   
    12    5   18 1   
    13    6    7 1   
    14    6   19 1   
    15    6   20 1   
    16    7    8 1   
    17    8    9 1   
    18    8   21 1   
    19    8   22 1   
    20    9   10 1   
    21    9   23 1   
    22    9   24 1   
    23   10   11 1   
    24   11   25 1   
    25   11   26 1   
    26   11   27 1   
@<TRIPOS>SUBSTRUCTURE
     1 TOE         1 TEMP              0 ****  ****    0 ROOT
