@<TRIPOS>MOLECULE
TOE
   27    26     1     0     0
SMALL
bcc


@<TRIPOS>ATOM
      1 O2'        -0.5100    0.9640    0.8640 oh        1 TOE     -0.600800
      2 CA'         0.6270    0.4960    0.1700 c3        1 TOE      0.131400
      3 CB'         1.7570    0.1280    1.1260 c3        1 TOE      0.087400
      4 OC'         1.2950   -0.9960    1.8720 os        1 TOE     -0.438600
      5 CD'         2.2380   -1.4230    2.8530 c3        1 TOE      0.128400
      6 CE'         1.7040   -2.7290    3.4310 c3        1 TOE      0.127400
      7 OF'         2.5180   -3.7700    2.8980 os        1 TOE     -0.428600
      8 CG'         2.0310   -5.0660    3.2410 c3        1 TOE      0.127400
      9 CH'         3.0890   -6.0620    2.7780 c3        1 TOE      0.123400
     10 OI'         3.7000   -6.5830    3.9580 os        1 TOE     -0.424600
     11 CK'         4.8050   -7.4230    3.6730 c3        1 TOE      0.117700
     12 H1         -0.7670    0.2690    1.4840 ho        1 TOE      0.412000
     13 H2          0.9450    1.3520   -0.4820 h1        1 TOE      0.053200
     14 H3          0.3560   -0.3910   -0.4630 h1        1 TOE      0.053200
     15 H4          2.6820   -0.1470    0.5560 h1        1 TOE      0.039200
     16 H5          1.9810    0.9780    1.8240 h1        1 TOE      0.039200
     17 H6          3.2450   -1.5780    2.3810 h1        1 TOE      0.045200
     18 H7          2.3130   -0.6400    3.6540 h1        1 TOE      0.045200
     19 H8          0.6320   -2.8860    3.1390 h1        1 TOE      0.043700
     20 H9          1.7940   -2.7260    4.5500 h1        1 TOE      0.043700
     21 H10         1.0610   -5.2470    2.7090 h1        1 TOE      0.044200
     22 H11         1.8730   -5.1410    4.3500 h1        1 TOE      0.044200
     23 H12         3.8570   -5.5580    2.1340 h1        1 TOE      0.043200
     24 H13         2.6130   -6.9030    2.2080 h1        1 TOE      0.043200
     25 H14         4.4850   -8.3010    3.0590 h1        1 TOE      0.033033
     26 H15         5.6040   -6.8550    3.1350 h1        1 TOE      0.033033
     27 H16         5.1680   -7.7560    4.6770 h1        1 TOE      0.033033
@<TRIPOS>BOND
     1    1    2 1   
     2    1   12 1   
     3    2    3 1   
     4    2   13 1   
     5    2   14 1   
     6    3    4 1   
     7    3   15 1   
     8    3   16 1   
     9    4    5 1   
    10    5    6 1   
    11    5   17 1   
    12    5   18 1   
    13    6    7 1   
    14    6   19 1   
    15    6   20 1   
    16    7    8 1   
    17    8    9 1   
    18    8   21 1   
    19    8   22 1   
    20    9   10 1   
    21    9   23 1   
    22    9   24 1   
    23   10   11 1   
    24   11   25 1   
    25   11   26 1   
    26   11   27 1   
@<TRIPOS>SUBSTRUCTURE
     1 TOE         1 TEMP              0 ****  ****    0 ROOT
