@<TRIPOS>MOLECULE
TOE
   27    26     1     0     0
SMALL
bcc


@<TRIPOS>ATOM
      1 O2'        -4.9390   -0.3060   -0.8470 oh        1 TOE     -0.600800
      2 CA'        -4.3460    0.8030   -0.2050 c3        1 TOE      0.131400
      3 CB'        -3.2820    0.3700    0.7980 c3        1 TOE      0.087400
      4 OC'        -2.2310   -0.2150    0.0330 os        1 TOE     -0.438600
      5 CD'        -1.1780   -0.7190    0.8540 c3        1 TOE      0.128400
      6 CE'        -0.0530   -1.1340   -0.0890 c3        1 TOE      0.127400
      7 OF'         0.9710   -0.1510    0.0460 os        1 TOE     -0.428600
      8 CG'         2.0250   -0.3370   -0.8960 c3        1 TOE      0.127400
      9 CH'         3.1250    0.6480   -0.5130 c3        1 TOE      0.123400
     10 OI'         4.2000   -0.1290    0.0120 os        1 TOE     -0.424600
     11 CK'         5.2420    0.6710    0.5410 c3        1 TOE      0.117700
     12 H1         -4.2240   -0.8050   -1.2630 ho        1 TOE      0.412000
     13 H2         -3.8960    1.4950   -0.9660 h1        1 TOE      0.053200
     14 H3         -5.1880    1.3160    0.3310 h1        1 TOE      0.053200
     15 H4         -2.8930    1.2550    1.3670 h1        1 TOE      0.039200
     16 H5         -3.6960   -0.3880    1.5150 h1        1 TOE      0.039200
     17 H6         -0.8280    0.0740    1.5670 h1        1 TOE      0.045200
     18 H7         -1.5550   -1.6060    1.4290 h1        1 TOE      0.045200
     19 H8          0.3550   -2.1360    0.2070 h1        1 TOE      0.043700
     20 H9         -0.4160   -1.1730   -1.1500 h1        1 TOE      0.043700
     21 H10         2.4040   -1.3920   -0.8530 h1        1 TOE      0.044200
     22 H11         1.6400   -0.1150   -1.9260 h1        1 TOE      0.044200
     23 H12         3.4830    1.2070   -1.4170 h1        1 TOE      0.043200
     24 H13         2.7590    1.3750    0.2590 h1        1 TOE      0.043200
     25 H14         4.8690    1.2960    1.3900 h1        1 TOE      0.033033
     26 H15         6.0050   -0.0650    0.9010 h1        1 TOE      0.033033
     27 H16         5.6760    1.3290   -0.2520 h1        1 TOE      0.033033
@<TRIPOS>BOND
     1    1    2 1   
     2    1   12 1   
     3    2    3 1   
     4    2   13 1   
     5    2   14 1   
     6    3    4 1   
     7    3   15 1   
     8    3   16 1   
     9    4    5 1   
    10    5    6 1   
    11    5   17 1   
    12    5   18 1   
    13    6    7 1   
    14    6   19 1   
    15    6   20 1   
    16    7    8 1   
    17    8    9 1   
    18    8   21 1   
    19    8   22 1   
    20    9   10 1   
    21    9   23 1   
    22    9   24 1   
    23   10   11 1   
    24   11   25 1   
    25   11   26 1   
    26   11   27 1   
@<TRIPOS>SUBSTRUCTURE
     1 TOE         1 TEMP              0 ****  ****    0 ROOT
