@<TRIPOS>MOLECULE
TOE
   27    26     1     0     0
SMALL
bcc


@<TRIPOS>ATOM
      1 O2'        -5.2230    1.2250   -3.1340 oh        1 TOE     -0.602800
      2 CA'        -3.8050    1.1770   -3.0960 c3        1 TOE      0.127400
      3 CB'        -3.3520    0.7440   -1.7180 c3        1 TOE      0.129400
      4 OC'        -1.9200    0.6220   -1.7000 os        1 TOE     -0.431600
      5 CD'        -1.3930    0.2160   -0.4420 c3        1 TOE      0.130400
      6 CE'         0.1670    0.3400   -0.4630 c3        1 TOE      0.130400
      7 OF'         0.7160   -0.2850    0.7230 os        1 TOE     -0.430600
      8 CG'         2.1580   -0.1950    0.8240 c3        1 TOE      0.130400
      9 CH'         2.6330   -0.9670    2.0740 c3        1 TOE      0.124400
     10 OI'         4.0100   -0.7220    2.2860 os        1 TOE     -0.424600
     11 CK'         4.5720   -1.4660    3.3700 c3        1 TOE      0.118700
     12 H1         -5.4910    1.5050   -3.9400 ho        1 TOE      0.405000
     13 H2         -3.4430    2.0650   -3.2950 h1        1 TOE      0.035700
     14 H3         -3.4820    0.5340   -3.7640 h1        1 TOE      0.035700
     15 H4         -3.7570   -0.1230   -1.4990 h1        1 TOE      0.042700
     16 H5         -3.6310    1.4100   -1.0590 h1        1 TOE      0.042700
     17 H6         -1.7570    0.7910    0.2650 h1        1 TOE      0.042700
     18 H7         -1.6450   -0.7160   -0.2680 h1        1 TOE      0.042700
     19 H8          0.4200    1.2880   -0.4800 h1        1 TOE      0.041700
     20 H9          0.5200   -0.1060   -1.2610 h1        1 TOE      0.041700
     21 H10         2.5660   -0.5850    0.0250 h1        1 TOE      0.042200
     22 H11         2.4230    0.7500    0.9010 h1        1 TOE      0.042200
     23 H12         2.4910   -1.9190    1.9400 h1        1 TOE      0.040700
     24 H13         2.1250   -0.6680    2.8550 h1        1 TOE      0.040700
     25 H14         4.0480   -1.3030    4.1860 h1        1 TOE      0.034367
     26 H15         5.4980   -1.1820    3.5150 h1        1 TOE      0.034367
     27 H16         4.5530   -2.4280    3.1540 h1        1 TOE      0.034367
@<TRIPOS>BOND
     1    1    2 1   
     2    1   12 1   
     3    2    3 1   
     4    2   13 1   
     5    2   14 1   
     6    3    4 1   
     7    3   15 1   
     8    3   16 1   
     9    4    5 1   
    10    5    6 1   
    11    5   17 1   
    12    5   18 1   
    13    6    7 1   
    14    6   19 1   
    15    6   20 1   
    16    7    8 1   
    17    8    9 1   
    18    8   21 1   
    19    8   22 1   
    20    9   10 1   
    21    9   23 1   
    22    9   24 1   
    23   10   11 1   
    24   11   25 1   
    25   11   26 1   
    26   11   27 1   
@<TRIPOS>SUBSTRUCTURE
     1 TOE         1 TEMP              0 ****  ****    0 ROOT
