@<TRIPOS>MOLECULE
TOF
   21    18     1     0     0
SMALL
bcc


@<TRIPOS>ATOM
      1 C1         -1.4120   -0.0020    1.0690 c1        1 TOF      0.357500
      2 O1         -2.0190    0.0520    2.1190 o         1 TOF     -0.288000
      3 C2          0.0790   -0.0020    1.0690 c1        1 TOF     -0.092000
      4 O2         -1.9960   -0.0020   -2.4780 o         1 TOF     -0.288000
      5 N3          0.7890   -0.0020    2.2940 n1        1 TOF     -0.014000
      6 C4          2.2140   -0.0020    2.2900 c1        1 TOF     -0.155000
      7 N5          2.9350   -0.0020    1.0340 n1        1 TOF      0.005000
      8 N6          2.2320   -0.0020   -0.1820 n2        1 TOF     -0.144000
      9 C7          0.7970   -0.0020   -0.1800 c2        1 TOF      0.115000
     10 N8          0.0740   -0.0020   -1.4270 n1        1 TOF     -0.250000
     11 C9         -1.3880   -0.0020   -1.4260 c1        1 TOF      0.357500
     12 N10        -2.1200   -0.0020   -0.1600 n3        1 TOF     -0.343000
     13 C11         2.9430   -0.0090   -1.4150 c3        1 TOF     -0.059000
     14 C12        -3.5430    0.0010   -0.1620 c3        1 TOF     -0.081000
     15 H4          2.7050   -0.0020    3.1340 ha        1 TOF      0.223000
     16 H11         2.7080    0.7860   -1.9310 h1        1 TOF      0.116000
     17 H11A        3.9030   -0.0100   -1.2380 h1        1 TOF      0.116000
     18 H11B        2.7050   -0.8080   -1.9230 h1        1 TOF      0.116000
     19 H12        -3.8670    0.9150   -0.0460 h1        1 TOF      0.103000
     20 H12A       -3.8710   -0.5550    0.5700 h1        1 TOF      0.103000
     21 H12B       -3.8690   -0.3530   -1.0110 h1        1 TOF      0.103000
@<TRIPOS>BOND
     1    1    2 1   
     2    1   12 1   
     3    3    5 1   
     4    3    9 1   
     5    4   11 1   
     6    6    7 1   
     7    6   15 1   
     8    8    9 1   
     9    8   13 1   
    10    9   10 1   
    11   11   12 1   
    12   12   14 1   
    13   13   16 1   
    14   13   17 1   
    15   13   18 1   
    16   14   19 1   
    17   14   20 1   
    18   14   21 1   
@<TRIPOS>SUBSTRUCTURE
     1 TOF         1 TEMP              0 ****  ****    0 ROOT
