@<TRIPOS>MOLECULE
TOF
   21    22     1     0     0
SMALL
bcc


@<TRIPOS>ATOM
      1 C1         -1.1560   -1.1980    0.0010 c         1 TOF      0.604000
      2 O1         -1.6160   -2.3490    0.0170 o         1 TOF     -0.558500
      3 C2          0.3290   -0.9350   -0.0040 cc        1 TOF      0.325800
      4 O2         -2.3090    2.1990    0.0080 o         1 TOF     -0.568500
      5 N3          1.1970   -1.9210   -0.0090 nd        1 TOF     -0.540000
      6 C4          2.5420   -1.5280   -0.0100 cd        1 TOF      0.507900
      7 N5          3.0070   -0.2790   -0.0050 nc        1 TOF     -0.427800
      8 N6          2.1480    0.7290    0.0010 na        1 TOF      0.069400
      9 C7          0.7400    0.5100   -0.0000 cc        1 TOF      0.025400
     10 N8         -0.1020    1.5210    0.0020 nd        1 TOF     -0.389400
     11 C9         -1.4980    1.2580   -0.0010 c         1 TOF      0.845900
     12 N10        -1.9950   -0.0820   -0.0190 n         1 TOF     -0.514400
     13 C11         2.6470    2.1030    0.0060 c3        1 TOF      0.039600
     14 C12        -3.4250   -0.2810   -0.0090 c3        1 TOF      0.074300
     15 H4          3.2870   -2.3490   -0.0140 h5        1 TOF      0.086100
     16 H11         3.7680    2.1170    0.0070 h1        1 TOF      0.076700
     17 H11A        2.2630    2.6270   -0.9100 h1        1 TOF      0.076700
     18 H11B        2.2610    2.6210    0.9240 h1        1 TOF      0.076700
     19 H12        -3.8010   -0.2880    1.0480 h1        1 TOF      0.063700
     20 H12A       -3.9220    0.5550   -0.5690 h1        1 TOF      0.063700
     21 H12B       -3.6740   -1.2620   -0.4950 h1        1 TOF      0.063700
@<TRIPOS>BOND
     1    1    2 2   
     2    1    3 1   
     3    1   12 1   
     4    3    5 2   
     5    3    9 1   
     6    4   11 2   
     7    5    6 1   
     8    6    7 2   
     9    6   15 1   
    10    7    8 1   
    11    8    9 1   
    12    8   13 1   
    13    9   10 2   
    14   10   11 1   
    15   11   12 1   
    16   12   14 1   
    17   13   16 1   
    18   13   17 1   
    19   13   18 1   
    20   14   19 1   
    21   14   20 1   
    22   14   21 1   
@<TRIPOS>SUBSTRUCTURE
     1 TOF         1 TEMP              0 ****  ****    0 ROOT
