@<TRIPOS>MOLECULE
TOF
   21    22     1     0     0
SMALL
bcc


@<TRIPOS>ATOM
      1 C1         -0.0340    0.0060    0.0490 c         1 TOF      0.604000
      2 O1         -0.6900    0.0290    1.1010 o         1 TOF     -0.558500
      3 C2          1.4740    0.0040    0.0510 cc        1 TOF      0.325800
      4 O2         -0.5730   -0.0130   -3.4980 o         1 TOF     -0.568500
      5 N3          2.1550    0.0080    1.1730 nd        1 TOF     -0.540000
      6 C4          3.5480    0.0090    1.0240 cd        1 TOF      0.507900
      7 N5          4.2260    0.0070   -0.1240 nc        1 TOF     -0.427800
      8 N6          3.5570    0.0030   -1.2670 na        1 TOF      0.069400
      9 C7          2.1330   -0.0010   -1.3000 cc        1 TOF      0.025400
     10 N8          1.4810   -0.0070   -2.4430 nd        1 TOF     -0.389400
     11 C9          0.0610   -0.0130   -2.4290 c         1 TOF      0.845900
     12 N10        -0.6640   -0.0230   -1.1980 n         1 TOF     -0.514400
     13 C11         4.2900    0.0010   -2.5330 c3        1 TOF      0.039600
     14 C12        -2.1070   -0.0170   -1.2530 c3        1 TOF      0.074300
     15 H4          4.1380    0.0110    1.9630 h5        1 TOF      0.086100
     16 H11         4.0060   -0.9190   -3.1100 h1        1 TOF      0.076700
     17 H11A        5.3960    0.0060   -2.3490 h1        1 TOF      0.076700
     18 H11B        3.9990    0.9150   -3.1170 h1        1 TOF      0.076700
     19 H12        -2.4470   -0.5910   -2.1560 h1        1 TOF      0.063700
     20 H12A       -2.4790    1.0390   -1.3300 h1        1 TOF      0.063700
     21 H12B       -2.5240   -0.4890   -0.3240 h1        1 TOF      0.063700
@<TRIPOS>BOND
     1    1    2 2   
     2    1    3 1   
     3    1   12 1   
     4    3    5 2   
     5    3    9 1   
     6    4   11 2   
     7    5    6 1   
     8    6    7 2   
     9    6   15 1   
    10    7    8 1   
    11    8    9 1   
    12    8   13 1   
    13    9   10 2   
    14   10   11 1   
    15   11   12 1   
    16   12   14 1   
    17   13   16 1   
    18   13   17 1   
    19   13   18 1   
    20   14   19 1   
    21   14   20 1   
    22   14   21 1   
@<TRIPOS>SUBSTRUCTURE
     1 TOF         1 TEMP              0 ****  ****    0 ROOT
