@<TRIPOS>MOLECULE
TOF
   21    22     1     0     0
SMALL
bcc


@<TRIPOS>ATOM
      1 C1         -0.0350    0.0080    0.0480 c         1 TOF      0.604000
      2 O1         -0.6910    0.0320    1.0990 o         1 TOF     -0.558500
      3 C2          1.4730    0.0060    0.0510 cc        1 TOF      0.325800
      4 O2         -0.5710   -0.0140   -3.4990 o         1 TOF     -0.568500
      5 N3          2.1540    0.0110    1.1740 nd        1 TOF     -0.540000
      6 C4          3.5470    0.0110    1.0250 cd        1 TOF      0.507900
      7 N5          4.2250    0.0070   -0.1230 nc        1 TOF     -0.427800
      8 N6          3.5580    0.0020   -1.2660 na        1 TOF      0.069400
      9 C7          2.1330   -0.0010   -1.2990 cc        1 TOF      0.025400
     10 N8          1.4820   -0.0090   -2.4430 nd        1 TOF     -0.389400
     11 C9          0.0620   -0.0130   -2.4300 c         1 TOF      0.845900
     12 N10        -0.6640   -0.0220   -1.1990 n         1 TOF     -0.514400
     13 C11         4.2910   -0.0030   -2.5310 c3        1 TOF      0.039600
     14 C12        -2.1070   -0.0150   -1.2540 c3        1 TOF      0.074300
     15 H4          4.1360    0.0140    1.9640 h5        1 TOF      0.086100
     16 H11         4.0060   -0.9230   -3.1070 h1        1 TOF      0.076700
     17 H11A        5.3970    0.0020   -2.3470 h1        1 TOF      0.076700
     18 H11B        4.0010    0.9110   -3.1170 h1        1 TOF      0.076700
     19 H12        -2.4790    1.0420   -1.3230 h1        1 TOF      0.063700
     20 H12A       -2.4470   -0.5830   -2.1610 h1        1 TOF      0.063700
     21 H12B       -2.5230   -0.4940   -0.3290 h1        1 TOF      0.063700
@<TRIPOS>BOND
     1    1    2 2   
     2    1    3 1   
     3    1   12 1   
     4    3    5 2   
     5    3    9 1   
     6    4   11 2   
     7    5    6 1   
     8    6    7 2   
     9    6   15 1   
    10    7    8 1   
    11    8    9 1   
    12    8   13 1   
    13    9   10 2   
    14   10   11 1   
    15   11   12 1   
    16   12   14 1   
    17   13   16 1   
    18   13   17 1   
    19   13   18 1   
    20   14   19 1   
    21   14   20 1   
    22   14   21 1   
@<TRIPOS>SUBSTRUCTURE
     1 TOF         1 TEMP              0 ****  ****    0 ROOT
