@<TRIPOS>MOLECULE
TOF
   21    22     1     0     0
SMALL
bcc


@<TRIPOS>ATOM
      1 C1         -0.0330    0.0070    0.0500 c         1 TOF      0.604000
      2 O1         -0.6880    0.0300    1.1020 o         1 TOF     -0.558500
      3 C2          1.4750    0.0050    0.0510 cc        1 TOF      0.325800
      4 O2         -0.5740   -0.0130   -3.4970 o         1 TOF     -0.568500
      5 N3          2.1570    0.0090    1.1730 nd        1 TOF     -0.540000
      6 C4          3.5490    0.0100    1.0220 cd        1 TOF      0.507900
      7 N5          4.2260    0.0070   -0.1260 nc        1 TOF     -0.427800
      8 N6          3.5570    0.0020   -1.2690 na        1 TOF      0.069400
      9 C7          2.1330   -0.0010   -1.3000 cc        1 TOF      0.025400
     10 N8          1.4800   -0.0080   -2.4430 nd        1 TOF     -0.389400
     11 C9          0.0600   -0.0130   -2.4280 c         1 TOF      0.845900
     12 N10        -0.6640   -0.0220   -1.1960 n         1 TOF     -0.514400
     13 C11         4.2890   -0.0010   -2.5350 c3        1 TOF      0.039600
     14 C12        -2.1070   -0.0160   -1.2500 c3        1 TOF      0.074300
     15 H4          4.1400    0.0130    1.9610 h5        1 TOF      0.086100
     16 H11         4.0040   -0.9220   -3.1110 h1        1 TOF      0.076700
     17 H11A        5.3960    0.0030   -2.3520 h1        1 TOF      0.076700
     18 H11B        3.9980    0.9120   -3.1190 h1        1 TOF      0.076700
     19 H12        -2.4800    1.0410   -1.3180 h1        1 TOF      0.063700
     20 H12A       -2.4480   -0.5840   -2.1570 h1        1 TOF      0.063700
     21 H12B       -2.5230   -0.4940   -0.3240 h1        1 TOF      0.063700
@<TRIPOS>BOND
     1    1    2 2   
     2    1    3 1   
     3    1   12 1   
     4    3    5 2   
     5    3    9 1   
     6    4   11 2   
     7    5    6 1   
     8    6    7 2   
     9    6   15 1   
    10    7    8 1   
    11    8    9 1   
    12    8   13 1   
    13    9   10 2   
    14   10   11 1   
    15   11   12 1   
    16   12   14 1   
    17   13   16 1   
    18   13   17 1   
    19   13   18 1   
    20   14   19 1   
    21   14   20 1   
    22   14   21 1   
@<TRIPOS>SUBSTRUCTURE
     1 TOF         1 TEMP              0 ****  ****    0 ROOT
