@<TRIPOS>MOLECULE
TOH
   21    21     1     0     0
SMALL
bcc


@<TRIPOS>ATOM
      1 O8          0.7920   -1.5510   -1.4200 o         1 TOH     -0.588100
      2 C9          1.3080   -0.6030   -0.8130 c         1 TOH      0.454300
      3 C10         1.9470   -0.7010    0.5910 c         1 TOH      0.866600
      4 O11         1.2580   -0.2220    1.5300 o         1 TOH     -0.800800
      5 O10         3.0890   -1.2110    0.6810 o         1 TOH     -0.800800
      6 C8          1.2590    0.7790   -1.3410 ce        1 TOH     -0.203200
      7 C7          1.7270    1.2480   -2.5000 cf        1 TOH     -0.130200
      8 C1          2.3790    0.5200   -3.5810 ca        1 TOH     -0.107800
      9 C6          3.7090    0.8330   -3.8950 ca        1 TOH     -0.086000
     10 C5          4.3540    0.2310   -4.9710 ca        1 TOH     -0.177000
     11 C4          3.6770   -0.6980   -5.7610 ca        1 TOH     -0.112000
     12 C3          2.3620   -1.0390   -5.4680 ca        1 TOH     -0.170000
     13 C2          1.7140   -0.4390   -4.3730 ca        1 TOH      0.160100
     14 O2          0.4060   -0.8020   -4.1770 oh        1 TOH     -0.524100
     15 H81         0.8170    1.4760   -0.6020 ha        1 TOH      0.149000
     16 H71         1.6720    2.3370   -2.6960 ha        1 TOH      0.109000
     17 H6          4.2450    1.5630   -3.2700 ha        1 TOH      0.131000
     18 H5          5.4000    0.4840   -5.1940 ha        1 TOH      0.118000
     19 H4          4.1860   -1.1720   -6.6120 ha        1 TOH      0.116000
     20 H3          1.8160   -1.7780   -6.0700 ha        1 TOH      0.137000
     21 HO2         0.2100   -0.7150   -3.2250 ho        1 TOH      0.460000
@<TRIPOS>BOND
     1    1    2 2   
     2    2    3 1   
     3    2    6 1   
     4    3    4 1   
     5    3    5 1   
     6    6    7 2   
     7    6   15 1   
     8    7    8 1   
     9    7   16 1   
    10    8    9 ar  
    11    8   13 ar  
    12    9   10 ar  
    13    9   17 1   
    14   10   11 ar  
    15   10   18 1   
    16   11   12 ar  
    17   11   19 1   
    18   12   13 ar  
    19   12   20 1   
    20   13   14 1   
    21   14   21 1   
@<TRIPOS>SUBSTRUCTURE
     1 TOH         1 TEMP              0 ****  ****    0 ROOT
