@<TRIPOS>MOLECULE
TOH
   21    21     1     0     0
SMALL
bcc


@<TRIPOS>ATOM
      1 O8          6.2690   -3.3440    4.3060 o         1 TOH     -0.572100
      2 C9          5.9510   -3.7310    3.1760 c         1 TOH      0.449300
      3 C10         6.5600   -4.9540    2.4620 c         1 TOH      0.858600
      4 O11         6.2380   -6.0950    2.8790 o         1 TOH     -0.808800
      5 O10         7.3140   -4.7050    1.4830 o         1 TOH     -0.808800
      6 C8          4.9520   -3.0090    2.3520 ce        1 TOH     -0.187200
      7 C7          3.8400   -2.4510    2.8490 cf        1 TOH     -0.124200
      8 C1          2.8070   -1.8100    2.0560 ca        1 TOH     -0.042800
      9 C6          2.6930   -2.0100    0.6740 ca        1 TOH     -0.098000
     10 C5          1.6930   -1.3850   -0.0700 ca        1 TOH     -0.166000
     11 C4          0.7750   -0.5440    0.5540 ca        1 TOH     -0.113000
     12 C3          0.8530   -0.3270    1.9280 ca        1 TOH     -0.223000
     13 C2          1.8590   -0.9570    2.6720 ca        1 TOH      0.118100
     14 O2          1.9680   -0.7730    4.0330 oh        1 TOH     -0.489100
     15 H81         5.1960   -3.0130    1.2760 ha        1 TOH      0.142000
     16 H71         3.6630   -2.4530    3.9410 ha        1 TOH      0.147000
     17 H6          3.4080   -2.6810    0.1710 ha        1 TOH      0.150000
     18 H5          1.6300   -1.5620   -1.1530 ha        1 TOH      0.125000
     19 H4         -0.0130   -0.0510   -0.0330 ha        1 TOH      0.118000
     20 H3          0.1310    0.3330    2.4270 ha        1 TOH      0.119000
     21 HO2         1.2560   -0.1790    4.3080 ho        1 TOH      0.406000
@<TRIPOS>BOND
     1    1    2 2   
     2    2    3 1   
     3    2    6 1   
     4    3    4 1   
     5    3    5 1   
     6    6    7 2   
     7    6   15 1   
     8    7    8 1   
     9    7   16 1   
    10    8    9 ar  
    11    8   13 ar  
    12    9   10 ar  
    13    9   17 1   
    14   10   11 ar  
    15   10   18 1   
    16   11   12 ar  
    17   11   19 1   
    18   12   13 ar  
    19   12   20 1   
    20   13   14 1   
    21   14   21 1   
@<TRIPOS>SUBSTRUCTURE
     1 TOH         1 TEMP              0 ****  ****    0 ROOT
