@<TRIPOS>MOLECULE
TOK
   61    66     1     0     0
SMALL
bcc


@<TRIPOS>ATOM
      1 C1          0.0780    0.0760    0.1030 c3        1 TOK     -0.066400
      2 C2          1.5340    0.4290    0.2940 c3        1 TOK     -0.113400
      3 C3          1.8850    0.4640    1.7760 c3        1 TOK      0.145100
      4 O3          3.2770    0.6830    1.9700 oh        1 TOK     -0.601800
      5 C4          1.5670   -0.8740    2.4350 c3        1 TOK     -0.039200
      6 C5          0.1630   -1.3040    2.1700 c2        1 TOK     -0.108400
      7 C6         -0.6030   -1.7380    3.1820 c2        1 TOK     -0.167200
      8 C7         -1.9920   -2.2200    3.0360 c3        1 TOK     -0.042200
      9 C8         -2.3450   -2.5300    1.5890 c3        1 TOK     -0.046700
     10 C9         -1.8450   -1.3990    0.6750 c3        1 TOK     -0.049700
     11 C10        -0.3050   -1.2720    0.7350 c3        1 TOK      0.000200
     12 C11        -2.3500   -1.5190   -0.7600 c3        1 TOK     -0.075400
     13 C12        -3.8350   -1.8240   -0.9060 c3        1 TOK     -0.067400
     14 C13        -4.2160   -3.0110   -0.0430 c3        1 TOK     -0.012800
     15 C14        -3.8430   -2.6290    1.4170 c3        1 TOK     -0.066700
     16 C15        -4.6800   -3.5820    2.2770 c3        1 TOK     -0.038200
     17 C16        -5.9110   -3.7690    1.4360 c2        1 TOK     -0.194200
     18 C17        -5.6960   -3.3870    0.1440 c2        1 TOK     -0.022300
     19 C18        -3.5280   -4.2750   -0.5430 c3        1 TOK     -0.088100
     20 C19         0.3780   -2.4020   -0.0310 c3        1 TOK     -0.085100
     21 N48        -6.6090   -3.4250   -0.9030 na        1 TOK     -0.107500
     22 C49        -7.6340   -4.3740   -1.0950 ca        1 TOK     -0.069200
     23 C50        -8.4010   -3.9040   -2.2360 ca        1 TOK      0.064400
     24 N51        -7.8540   -2.6860   -2.6980 nc        1 TOK     -0.564100
     25 C52        -6.8180   -2.4300   -1.8930 cd        1 TOK      0.431700
     26 C53        -7.9610   -5.5680   -0.4450 ca        1 TOK     -0.129000
     27 C54        -9.0490   -6.2830   -0.9280 ca        1 TOK     -0.115000
     28 C55        -9.7980   -5.8370   -2.0290 ca        1 TOK     -0.152000
     29 C56        -9.4890   -4.6570   -2.6930 ca        1 TOK     -0.069000
     30 H1         -0.5570    0.8840    0.5540 hc        1 TOK      0.044200
     31 H1A        -0.1470    0.0410   -0.9950 hc        1 TOK      0.044200
     32 H2          2.1880   -0.3220   -0.2230 hc        1 TOK      0.047700
     33 H2A         1.7420    1.4300   -0.1660 hc        1 TOK      0.047700
     34 H3          1.3090    1.2900    2.2830 h1        1 TOK      0.036700
     35 HO3         3.4980    1.4960    1.5020 ho        1 TOK      0.400000
     36 H4          2.2790   -1.6500    2.0430 hc        1 TOK      0.061200
     37 H4A         1.7550   -0.7840    3.5380 hc        1 TOK      0.061200
     38 H6         -0.2170   -1.7440    4.2150 ha        1 TOK      0.124000
     39 H7         -2.1440   -3.1450    3.6560 hc        1 TOK      0.050200
     40 H7A        -2.6910   -1.4360    3.4390 hc        1 TOK      0.050200
     41 H8         -1.8570   -3.5000    1.3000 hc        1 TOK      0.061700
     42 H9         -2.2690   -0.4400    1.0970 hc        1 TOK      0.049700
     43 H11        -2.1460   -0.5490   -1.2880 hc        1 TOK      0.045200
     44 H11A       -1.7730   -2.3150   -1.3000 hc        1 TOK      0.045200
     45 H12        -4.0500   -2.0420   -1.9850 hc        1 TOK      0.044700
     46 H12A       -4.4380   -0.9270   -0.6080 hc        1 TOK      0.044700
     47 H14        -4.2630   -1.5950    1.6060 hc        1 TOK      0.053700
     48 H15        -4.9210   -3.1370    3.2720 hc        1 TOK      0.056700
     49 H16        -6.8380   -4.1540    1.8650 ha        1 TOK      0.150000
     50 H18        -3.7190   -5.1220    0.1590 hc        1 TOK      0.043700
     51 H18A       -2.4240   -4.1330   -0.6270 hc        1 TOK      0.043700
     52 H18B       -3.9250   -4.5470   -1.5510 hc        1 TOK      0.043700
     53 H19        -0.0900   -3.3850    0.2130 hc        1 TOK      0.038367
     54 H19A        0.3010   -2.2320   -1.1320 hc        1 TOK      0.038367
     55 H19B        1.4620   -2.4530    0.2330 hc        1 TOK      0.038367
     56 H52        -6.1700   -1.5470   -1.9590 h5        1 TOK      0.073800
     57 H53        -7.3770   -5.9250    0.4140 ha        1 TOK      0.139000
     58 H54        -9.3320   -7.2260   -0.4370 ha        1 TOK      0.132000
     59 H55       -10.6510   -6.4410   -2.3720 ha        1 TOK      0.133000
     60 H56       -10.0780   -4.3160   -3.5560 ha        1 TOK      0.148000
     61 H15A       -4.1570   -4.5570    2.4440 hc        1 TOK      0.056700
@<TRIPOS>BOND
     1    1    2 1   
     2    1   11 1   
     3    1   30 1   
     4    1   31 1   
     5    2    3 1   
     6    2   32 1   
     7    2   33 1   
     8    3    4 1   
     9    3    5 1   
    10    3   34 1   
    11    4   35 1   
    12    5    6 1   
    13    5   36 1   
    14    5   37 1   
    15    6    7 2   
    16    6   11 1   
    17    7    8 1   
    18    7   38 1   
    19    8    9 1   
    20    8   39 1   
    21    8   40 1   
    22    9   10 1   
    23    9   15 1   
    24    9   41 1   
    25   10   11 1   
    26   10   12 1   
    27   10   42 1   
    28   11   20 1   
    29   12   13 1   
    30   12   43 1   
    31   12   44 1   
    32   13   14 1   
    33   13   45 1   
    34   13   46 1   
    35   14   15 1   
    36   14   18 1   
    37   14   19 1   
    38   15   16 1   
    39   15   47 1   
    40   16   17 1   
    41   16   48 1   
    42   16   61 1   
    43   17   18 2   
    44   17   49 1   
    45   18   21 1   
    46   19   50 1   
    47   19   51 1   
    48   19   52 1   
    49   20   53 1   
    50   20   54 1   
    51   20   55 1   
    52   21   22 1   
    53   21   25 1   
    54   22   23 ar  
    55   22   26 ar  
    56   23   24 1   
    57   23   29 ar  
    58   24   25 2   
    59   25   56 1   
    60   26   27 ar  
    61   26   57 1   
    62   27   28 ar  
    63   27   58 1   
    64   28   29 ar  
    65   28   59 1   
    66   29   60 1   
@<TRIPOS>SUBSTRUCTURE
     1 TOK         1 TEMP              0 ****  ****    0 ROOT
