@<TRIPOS>MOLECULE
TOK
   61    66     1     0     0
SMALL
bcc


@<TRIPOS>ATOM
      1 C1          0.0940    0.0540    0.1040 c3        1 TOK     -0.066400
      2 C2          1.5510    0.4010    0.3030 c3        1 TOK     -0.113400
      3 C3          1.8880    0.4540    1.7880 c3        1 TOK      0.145100
      4 O3          3.2800    0.6670    1.9930 oh        1 TOK     -0.601800
      5 C4          1.5560   -0.8750    2.4610 c3        1 TOK     -0.039200
      6 C5          0.1530   -1.3010    2.1890 c2        1 TOK     -0.108400
      7 C6         -0.6250   -1.7170    3.1990 c2        1 TOK     -0.167200
      8 C7         -2.0150   -2.1940    3.0460 c3        1 TOK     -0.042200
      9 C8         -2.3570   -2.5200    1.6010 c3        1 TOK     -0.046700
     10 C9         -1.8420   -1.4030    0.6770 c3        1 TOK     -0.049700
     11 C10        -0.3020   -1.2840    0.7500 c3        1 TOK      0.000200
     12 C11        -2.3350   -1.5390   -0.7610 c3        1 TOK     -0.075400
     13 C12        -3.8200   -1.8370   -0.9170 c3        1 TOK     -0.067400
     14 C13        -4.2160   -3.0110   -0.0420 c3        1 TOK     -0.012800
     15 C14        -3.8540   -2.6120    1.4160 c3        1 TOK     -0.066700
     16 C15        -4.7030   -3.5500    2.2800 c3        1 TOK     -0.038200
     17 C16        -5.9280   -3.7410    1.4310 c2        1 TOK     -0.194200
     18 C17        -5.6990   -3.3770    0.1370 c2        1 TOK     -0.022300
     19 C18        -3.5300   -4.2860   -0.5200 c3        1 TOK     -0.088100
     20 C19         0.3810   -2.4270    0.0040 c3        1 TOK     -0.085100
     21 N48        -6.6020   -3.4230   -0.9190 na        1 TOK     -0.107500
     22 C49        -7.6310   -4.3690   -1.1070 ca        1 TOK     -0.069200
     23 C50        -8.3850   -3.9100   -2.2620 ca        1 TOK      0.064400
     24 N51        -7.8270   -2.7000   -2.7340 nc        1 TOK     -0.564100
     25 C52        -6.7970   -2.4390   -1.9230 cd        1 TOK      0.431700
     26 C53        -7.9710   -5.5530   -0.4450 ca        1 TOK     -0.129000
     27 C54        -9.0580   -6.2680   -0.9300 ca        1 TOK     -0.115000
     28 C55        -9.7950   -5.8320   -2.0430 ca        1 TOK     -0.152000
     29 C56        -9.4730   -4.6620   -2.7190 ca        1 TOK     -0.069000
     30 H1         -0.5410    0.8710    0.5390 hc        1 TOK      0.044200
     31 H1A        -0.1210    0.0060   -0.9960 hc        1 TOK      0.044200
     32 H2          2.2050   -0.3590   -0.1980 hc        1 TOK      0.047700
     33 H2A         1.7680    1.3950   -0.1670 hc        1 TOK      0.047700
     34 H3          1.3120    1.2880    2.2790 h1        1 TOK      0.036700
     35 HO3         3.5090    1.4730    1.5160 ho        1 TOK      0.400000
     36 H4          1.7360   -0.7710    3.5640 hc        1 TOK      0.061200
     37 H4A         2.2680   -1.6590    2.0860 hc        1 TOK      0.061200
     38 H6         -0.2480   -1.7120    4.2360 ha        1 TOK      0.124000
     39 H7         -2.1780   -3.1090    3.6770 hc        1 TOK      0.050200
     40 H7A        -2.7130   -1.4000    3.4340 hc        1 TOK      0.050200
     41 H8         -1.8710   -3.4960    1.3290 hc        1 TOK      0.061700
     42 H9         -2.2640   -0.4370    1.0830 hc        1 TOK      0.049700
     43 H11        -1.7570   -2.3450   -1.2850 hc        1 TOK      0.045200
     44 H11A       -2.1200   -0.5770   -1.2990 hc        1 TOK      0.045200
     45 H12        -4.4210   -0.9330   -0.6350 hc        1 TOK      0.044700
     46 H12A       -4.0260   -2.0690   -1.9950 hc        1 TOK      0.044700
     47 H14        -4.2690   -1.5740    1.5890 hc        1 TOK      0.053700
     48 H15        -4.1870   -4.5260    2.4650 hc        1 TOK      0.056700
     49 H16        -6.8610   -4.1150    1.8560 ha        1 TOK      0.150000
     50 H18        -2.4250   -4.1500   -0.5950 hc        1 TOK      0.043700
     51 H18A       -3.9200   -4.5680   -1.5280 hc        1 TOK      0.043700
     52 H18B       -3.7320   -5.1230    0.1910 hc        1 TOK      0.043700
     53 H19        -0.0950   -3.4040    0.2570 hc        1 TOK      0.038367
     54 H19A        0.3160   -2.2710   -1.1000 hc        1 TOK      0.038367
     55 H19B        1.4630   -2.4810    0.2780 hc        1 TOK      0.038367
     56 H52        -6.1440   -1.5610   -1.9940 h5        1 TOK      0.073800
     57 H53        -7.3960   -5.9020    0.4230 ha        1 TOK      0.139000
     58 H54        -9.3510   -7.2040   -0.4290 ha        1 TOK      0.132000
     59 H55       -10.6480   -6.4360   -2.3860 ha        1 TOK      0.133000
     60 H56       -10.0520   -4.3290   -3.5920 ha        1 TOK      0.148000
     61 H15A       -4.9510   -3.0910    3.2680 hc        1 TOK      0.056700
@<TRIPOS>BOND
     1    1    2 1   
     2    1   11 1   
     3    1   30 1   
     4    1   31 1   
     5    2    3 1   
     6    2   32 1   
     7    2   33 1   
     8    3    4 1   
     9    3    5 1   
    10    3   34 1   
    11    4   35 1   
    12    5    6 1   
    13    5   36 1   
    14    5   37 1   
    15    6    7 2   
    16    6   11 1   
    17    7    8 1   
    18    7   38 1   
    19    8    9 1   
    20    8   39 1   
    21    8   40 1   
    22    9   10 1   
    23    9   15 1   
    24    9   41 1   
    25   10   11 1   
    26   10   12 1   
    27   10   42 1   
    28   11   20 1   
    29   12   13 1   
    30   12   43 1   
    31   12   44 1   
    32   13   14 1   
    33   13   45 1   
    34   13   46 1   
    35   14   15 1   
    36   14   18 1   
    37   14   19 1   
    38   15   16 1   
    39   15   47 1   
    40   16   17 1   
    41   16   48 1   
    42   16   61 1   
    43   17   18 2   
    44   17   49 1   
    45   18   21 1   
    46   19   50 1   
    47   19   51 1   
    48   19   52 1   
    49   20   53 1   
    50   20   54 1   
    51   20   55 1   
    52   21   22 1   
    53   21   25 1   
    54   22   23 ar  
    55   22   26 ar  
    56   23   24 1   
    57   23   29 ar  
    58   24   25 2   
    59   25   56 1   
    60   26   27 ar  
    61   26   57 1   
    62   27   28 ar  
    63   27   58 1   
    64   28   29 ar  
    65   28   59 1   
    66   29   60 1   
@<TRIPOS>SUBSTRUCTURE
     1 TOK         1 TEMP              0 ****  ****    0 ROOT
