@<TRIPOS>MOLECULE
TOK
   61    66     1     0     0
SMALL
bcc


@<TRIPOS>ATOM
      1 C1         -4.1090    1.5320   -0.7700 c3        1 TOK     -0.070400
      2 C2         -5.5810    1.7380   -0.4960 c3        1 TOK     -0.075400
      3 C3         -6.3280    0.4160   -0.6190 c3        1 TOK      0.145100
      4 O3         -7.6880    0.6840   -0.3000 oh        1 TOK     -0.599800
      5 C4         -5.7420   -0.6210    0.3360 c3        1 TOK     -0.076200
      6 C5         -4.2670   -0.7650    0.1720 c2        1 TOK     -0.103400
      7 C6         -3.7210   -1.9870    0.0760 c2        1 TOK     -0.169200
      8 C7         -2.2730   -2.2500   -0.0610 c3        1 TOK     -0.042200
      9 C8         -1.4310   -1.0330    0.2900 c3        1 TOK     -0.046700
     10 C9         -2.0290    0.2230   -0.3640 c3        1 TOK     -0.049700
     11 C10        -3.4540    0.5060    0.1690 c3        1 TOK      0.000200
     12 C11        -1.1260    1.4480   -0.2480 c3        1 TOK     -0.075400
     13 C12         0.3410    1.2120   -0.5850 c3        1 TOK     -0.067400
     14 C13         0.8690    0.0120    0.1760 c3        1 TOK     -0.012800
     15 C14        -0.0220   -1.1940   -0.2330 c3        1 TOK     -0.066700
     16 C15         0.8220   -2.4210    0.1270 c3        1 TOK     -0.038200
     17 C16         2.2210   -1.9200   -0.0990 c2        1 TOK     -0.195200
     18 C17         2.2610   -0.5570   -0.1460 c2        1 TOK     -0.021300
     19 C18         0.8740    0.2930    1.6750 c3        1 TOK     -0.088100
     20 C19        -3.4170    1.0700    1.5870 c3        1 TOK     -0.084100
     21 N48         3.3820    0.2410   -0.3380 na        1 TOK     -0.108500
     22 C49         4.6950   -0.0290    0.1010 ca        1 TOK     -0.069200
     23 C50         5.5270    1.0190   -0.4670 ca        1 TOK      0.064400
     24 N51         4.7250    1.8820   -1.2470 nc        1 TOK     -0.564100
     25 C52         3.4830    1.3950   -1.1600 cd        1 TOK      0.432700
     26 C53         5.2400   -1.0200    0.9230 ca        1 TOK     -0.129000
     27 C54         6.6050   -0.9660    1.1730 ca        1 TOK     -0.115000
     28 C55         7.4180    0.0420    0.6280 ca        1 TOK     -0.152000
     29 C56         6.8990    1.0380   -0.1880 ca        1 TOK     -0.069000
     30 H1         -3.9770    1.1910   -1.8310 hc        1 TOK      0.044700
     31 H1A        -3.5820    2.5150   -0.6610 hc        1 TOK      0.044700
     32 H2         -5.7360    2.1560    0.5330 hc        1 TOK      0.056700
     33 H2A        -6.0080    2.4730   -1.2260 hc        1 TOK      0.056700
     34 H3         -6.2650    0.0360   -1.6780 h1        1 TOK      0.036700
     35 HO3        -8.1530   -0.1600   -0.3400 ho        1 TOK      0.399000
     36 H4         -5.9700   -0.3100    1.3910 hc        1 TOK      0.052700
     37 H4A        -6.2550   -1.6050    0.1650 hc        1 TOK      0.052700
     38 H6         -4.3570   -2.8880    0.0840 ha        1 TOK      0.121000
     39 H7         -1.9760   -3.1060    0.6030 hc        1 TOK      0.049700
     40 H7A        -2.0630   -2.5670   -1.1200 hc        1 TOK      0.049700
     41 H8         -1.4190   -0.9150    1.4070 hc        1 TOK      0.061700
     42 H9         -2.1320   -0.0100   -1.4640 hc        1 TOK      0.049700
     43 H11        -1.5150    2.2400   -0.9430 hc        1 TOK      0.046200
     44 H11A       -1.1850    1.8660    0.7910 hc        1 TOK      0.046200
     45 H12         0.4540    1.0430   -1.6880 hc        1 TOK      0.044700
     46 H12A        0.9220    2.1320   -0.3130 hc        1 TOK      0.044700
     47 H14        -0.0900   -1.1880   -1.3620 hc        1 TOK      0.053700
     48 H15         0.6740   -2.7280    1.1930 hc        1 TOK      0.056700
     49 H16         3.0580   -2.6090   -0.2170 ha        1 TOK      0.150000
     50 H18        -0.1290    0.6290    2.0300 hc        1 TOK      0.043700
     51 H18A        1.1550   -0.6290    2.2390 hc        1 TOK      0.043700
     52 H18B        1.6160    1.0950    1.9040 hc        1 TOK      0.043700
     53 H19        -2.7130    0.4870    2.2270 hc        1 TOK      0.038367
     54 H19A       -3.0910    2.1380    1.5760 hc        1 TOK      0.038367
     55 H19B       -4.4330    1.0270    2.0500 hc        1 TOK      0.038367
     56 H52         2.6020    1.8160   -1.6600 h5        1 TOK      0.073800
     57 H53         4.6100   -1.8080    1.3570 ha        1 TOK      0.139000
     58 H54         7.0640   -1.7320    1.8160 ha        1 TOK      0.132000
     59 H55         8.4940    0.0380    0.8570 ha        1 TOK      0.133000
     60 H56         7.5400    1.8250   -0.6090 ha        1 TOK      0.148000
     61 H15A        0.5840   -3.2940   -0.5270 hc        1 TOK      0.056700
@<TRIPOS>BOND
     1    1    2 1   
     2    1   11 1   
     3    1   30 1   
     4    1   31 1   
     5    2    3 1   
     6    2   32 1   
     7    2   33 1   
     8    3    4 1   
     9    3    5 1   
    10    3   34 1   
    11    4   35 1   
    12    5    6 1   
    13    5   36 1   
    14    5   37 1   
    15    6    7 2   
    16    6   11 1   
    17    7    8 1   
    18    7   38 1   
    19    8    9 1   
    20    8   39 1   
    21    8   40 1   
    22    9   10 1   
    23    9   15 1   
    24    9   41 1   
    25   10   11 1   
    26   10   12 1   
    27   10   42 1   
    28   11   20 1   
    29   12   13 1   
    30   12   43 1   
    31   12   44 1   
    32   13   14 1   
    33   13   45 1   
    34   13   46 1   
    35   14   15 1   
    36   14   18 1   
    37   14   19 1   
    38   15   16 1   
    39   15   47 1   
    40   16   17 1   
    41   16   48 1   
    42   16   61 1   
    43   17   18 2   
    44   17   49 1   
    45   18   21 1   
    46   19   50 1   
    47   19   51 1   
    48   19   52 1   
    49   20   53 1   
    50   20   54 1   
    51   20   55 1   
    52   21   22 1   
    53   21   25 1   
    54   22   23 ar  
    55   22   26 ar  
    56   23   24 1   
    57   23   29 ar  
    58   24   25 2   
    59   25   56 1   
    60   26   27 ar  
    61   26   57 1   
    62   27   28 ar  
    63   27   58 1   
    64   28   29 ar  
    65   28   59 1   
    66   29   60 1   
@<TRIPOS>SUBSTRUCTURE
     1 TOK         1 TEMP              0 ****  ****    0 ROOT
