@<TRIPOS>MOLECULE
TOL
   38    39     1     0     0
SMALL
bcc


@<TRIPOS>ATOM
      1 C1         -0.1480    0.0530    0.1300 c3        1 TOL      0.702200
      2 F1          1.2100   -0.1680    0.1370 f         1 TOL     -0.234633
      3 F2         -0.4800    0.0650    1.4600 f         1 TOL     -0.234633
      4 F3         -0.6740   -1.1360   -0.3220 f         1 TOL     -0.234633
      5 C2         -0.5830    1.2760   -0.6690 ca        1 TOL     -0.208300
      6 C3         -1.2510    2.3210   -0.0380 ca        1 TOL      0.190100
      7 O1         -1.4840    2.1740    1.3090 os        1 TOL     -0.305900
      8 C4         -2.1190    3.2610    1.9780 c3        1 TOL      0.109700
      9 C5         -1.6630    3.4670   -0.7730 ca        1 TOL     -0.194000
     10 C6         -1.4070    3.5420   -2.1160 ca        1 TOL     -0.054000
     11 C7         -0.7340    2.4920   -2.7990 ca        1 TOL     -0.050000
     12 C8         -0.4630    2.5590   -4.1990 ca        1 TOL     -0.089600
     13 C9          0.2180    1.5420   -4.8330 ca        1 TOL     -0.103000
     14 C10         0.6540    0.4180   -4.0980 ca        1 TOL     -0.107000
     15 C11         0.3960    0.3210   -2.7530 ca        1 TOL     -0.115000
     16 C12        -0.3050    1.3520   -2.0660 ca        1 TOL      0.034000
     17 C13        -0.8750    3.7550   -4.9800 c         1 TOL      0.425000
     18 S1          0.1360    4.9850   -5.0910 s         1 TOL     -0.487400
     19 N1         -2.1050    3.7230   -5.5820 n         1 TOL     -0.380800
     20 C14        -2.9700    2.5710   -5.5710 c3        1 TOL      0.055300
     21 C15        -2.6130    4.8960   -6.2560 c3        1 TOL     -0.029000
     22 C16        -2.2740    4.9500   -7.7390 c         1 TOL      0.614100
     23 O2         -3.0560    4.6770   -8.6490 o         1 TOL     -0.489000
     24 O3         -1.0450    5.3620   -8.1340 oh        1 TOL     -0.576100
     25 H41        -1.5040    4.1890    1.8980 h1        1 TOL      0.053033
     26 H42        -2.1650    2.9060    3.0410 h1        1 TOL      0.053033
     27 H43        -3.1460    3.4260    1.5730 h1        1 TOL      0.053033
     28 H5         -2.1790    4.2910   -0.2610 ha        1 TOL      0.151000
     29 H6         -1.7130    4.4360   -2.6850 ha        1 TOL      0.145000
     30 H9          0.4390    1.5980   -5.9110 ha        1 TOL      0.149000
     31 H10         1.2040   -0.3800   -4.6200 ha        1 TOL      0.148000
     32 H11         0.7380   -0.5620   -2.1880 ha        1 TOL      0.156000
     33 H141       -2.3900    1.6390   -5.3360 h1        1 TOL      0.064367
     34 H142       -3.7750    2.7050   -4.7980 h1        1 TOL      0.064367
     35 H143       -3.4480    2.4580   -6.5820 h1        1 TOL      0.064367
     36 H151       -3.7380    4.9050   -6.1620 h1        1 TOL      0.100700
     37 H152       -2.1950    5.8260   -5.7620 h1        1 TOL      0.100700
     38 H111       -0.4760    5.5190   -7.3530 ho        1 TOL      0.459000
@<TRIPOS>BOND
     1    1    2 1   
     2    1    3 1   
     3    1    4 1   
     4    1    5 1   
     5    5    6 ar  
     6    5   16 ar  
     7    6    7 1   
     8    6    9 ar  
     9    7    8 1   
    10    8   25 1   
    11    8   26 1   
    12    8   27 1   
    13    9   10 ar  
    14    9   28 1   
    15   10   11 ar  
    16   10   29 1   
    17   11   12 ar  
    18   11   16 ar  
    19   12   13 ar  
    20   12   17 1   
    21   13   14 ar  
    22   13   30 1   
    23   14   15 ar  
    24   14   31 1   
    25   15   16 ar  
    26   15   32 1   
    27   17   18 2   
    28   17   19 1   
    29   19   20 1   
    30   19   21 1   
    31   20   33 1   
    32   20   34 1   
    33   20   35 1   
    34   21   22 1   
    35   21   36 1   
    36   21   37 1   
    37   22   23 2   
    38   22   24 1   
    39   24   38 1   
@<TRIPOS>SUBSTRUCTURE
     1 TOL         1 TEMP              0 ****  ****    0 ROOT
