@<TRIPOS>MOLECULE
TOL
   38    39     1     0     0
SMALL
bcc


@<TRIPOS>ATOM
      1 C1          0.2890   -0.0130   -0.1830 c3        1 TOL      0.701200
      2 F1          1.6590   -0.0180   -0.3080 f         1 TOL     -0.231967
      3 F2          0.0830   -0.2270    1.1550 f         1 TOL     -0.231967
      4 F3         -0.1030   -1.1980   -0.7650 f         1 TOL     -0.231967
      5 C2         -0.3900    1.2240   -0.7640 ca        1 TOL     -0.198300
      6 C3         -1.1450    2.0530    0.0610 ca        1 TOL      0.185100
      7 O1         -1.2310    1.6900    1.3830 os        1 TOL     -0.302900
      8 C4         -1.9620    2.5570    2.2470 c3        1 TOL      0.109700
      9 C5         -1.7860    3.2050   -0.4710 ca        1 TOL     -0.181000
     10 C6         -1.6600    3.5010   -1.8020 ca        1 TOL     -0.075000
     11 C7         -0.8980    2.6830   -2.6780 ca        1 TOL     -0.037000
     12 C8         -0.7650    2.9730   -4.0740 ca        1 TOL     -0.157600
     13 C9         -0.0160    2.1480   -4.8950 ca        1 TOL     -0.071000
     14 C10         0.6360    1.0170   -4.3560 ca        1 TOL     -0.113000
     15 C11         0.5210    0.7140   -3.0230 ca        1 TOL     -0.093000
     16 C12        -0.2530    1.5320   -2.1490 ca        1 TOL      0.024000
     17 C13        -1.3860    4.1780   -4.6520 c         1 TOL      0.194000
     18 S1         -1.1310    5.6190   -4.1970 s         1 TOL     -0.093400
     19 N1         -2.2960    3.8450   -5.7940 n4        1 TOL     -0.527200
     20 C14        -3.7080    3.8630   -5.3540 c3        1 TOL      0.094100
     21 C15        -2.0640    4.6990   -7.0000 c3        1 TOL     -0.081200
     22 C16        -1.1870    3.9270   -8.0720 c         1 TOL      0.928600
     23 O2         -0.8280    4.6090   -9.0450 o         1 TOL     -0.767800
     24 O3         -0.9620    2.7100   -7.8150 o         1 TOL     -0.767800
     25 H41        -1.5040    3.5760    2.2640 h1        1 TOL      0.054367
     26 H42        -1.8580    2.0590    3.2450 h1        1 TOL      0.054367
     27 H43        -3.0340    2.6060    1.9400 h1        1 TOL      0.054367
     28 H5         -2.3770    3.8570    0.1890 ha        1 TOL      0.152000
     29 H6         -2.1480    4.4060   -2.2010 ha        1 TOL      0.133000
     30 H9          0.0960    2.3540   -5.9830 ha        1 TOL      0.209000
     31 H10         1.2370    0.3830   -5.0290 ha        1 TOL      0.163000
     32 H11         1.0330   -0.1730   -2.6130 ha        1 TOL      0.161000
     33 H141       -3.8340    3.1930   -4.4630 hx        1 TOL      0.087700
     34 H142       -4.0080    4.9100   -5.0880 hx        1 TOL      0.087700
     35 H143       -4.3530    3.4910   -6.1950 hx        1 TOL      0.087700
     36 H151       -3.0480    4.9460   -7.4760 hx        1 TOL      0.094200
     37 H152       -1.5450    5.6500   -6.7130 hx        1 TOL      0.094200
     38 H111       -2.0580    2.8690   -6.1240 hn        1 TOL      0.493800
@<TRIPOS>BOND
     1    1    2 1   
     2    1    3 1   
     3    1    4 1   
     4    1    5 1   
     5    5    6 ar  
     6    5   16 ar  
     7    6    7 1   
     8    6    9 ar  
     9    7    8 1   
    10    8   25 1   
    11    8   26 1   
    12    8   27 1   
    13    9   10 ar  
    14    9   28 1   
    15   10   11 ar  
    16   10   29 1   
    17   11   12 ar  
    18   11   16 ar  
    19   12   13 ar  
    20   12   17 1   
    21   13   14 ar  
    22   13   30 1   
    23   14   15 ar  
    24   14   31 1   
    25   15   16 ar  
    26   15   32 1   
    27   17   18 2   
    28   17   19 1   
    29   19   20 1   
    30   19   21 1   
    31   19   38 1   
    32   20   33 1   
    33   20   34 1   
    34   20   35 1   
    35   21   22 1   
    36   21   36 1   
    37   21   37 1   
    38   22   23 1   
    39   22   24 1   
@<TRIPOS>SUBSTRUCTURE
     1 TOL         1 TEMP              0 ****  ****    0 ROOT
