@<TRIPOS>MOLECULE
TOL
   37    38     1     0     0
SMALL
bcc


@<TRIPOS>ATOM
      1 C1         -0.4890    0.0560    3.8890 c3        1 TOL      0.705200
      2 F1         -0.9980   -1.1500    4.3180 f         1 TOL     -0.246967
      3 F2          0.3990    0.3870    4.8830 f         1 TOL     -0.246967
      4 F3         -1.5310    0.9340    4.1020 f         1 TOL     -0.246967
      5 C2          0.0640    0.0530    2.4740 ca        1 TOL     -0.233300
      6 C3          1.3960    0.3820    2.2430 ca        1 TOL      0.188100
      7 O1          2.1520    0.6970    3.3520 os        1 TOL     -0.321900
      8 C4          3.5100    1.0580    3.1140 c3        1 TOL      0.113700
      9 C5          1.9240    0.3900    0.9250 ca        1 TOL     -0.214000
     10 C6          1.1240    0.0620   -0.1380 ca        1 TOL     -0.030000
     11 C7         -0.2420   -0.2900    0.0590 ca        1 TOL     -0.062000
     12 C8         -1.0860   -0.6500   -1.0370 ca        1 TOL     -0.049600
     13 C9         -2.4140   -0.9600   -0.8250 ca        1 TOL     -0.126000
     14 C10        -2.9450   -0.9400    0.4810 ca        1 TOL     -0.109000
     15 C11        -2.1510   -0.6180    1.5540 ca        1 TOL     -0.146000
     16 C12        -0.7800   -0.2870    1.3750 ca        1 TOL      0.032000
     17 C13        -0.5130   -0.7590   -2.4090 c         1 TOL      0.423000
     18 S1         -0.2990   -2.2580   -2.9460 s         1 TOL     -0.574400
     19 N1         -0.2850    0.3830   -3.1070 n         1 TOL     -0.312800
     20 C14        -0.5510    1.6820   -2.5320 c3        1 TOL      0.042300
     21 C15         0.6460    0.3980   -4.2250 c3        1 TOL     -0.088000
     22 C16         1.9990    1.1240   -3.9400 c         1 TOL      0.911600
     23 O2          2.5960    1.5710   -4.9520 o         1 TOL     -0.827300
     24 O3          2.4140    1.2130   -2.7490 o         1 TOL     -0.827300
     25 H41         3.8990    1.2730    4.1420 h1        1 TOL      0.047700
     26 H42         4.0680    0.2090    2.6500 h1        1 TOL      0.047700
     27 H43         3.5700    1.9690    2.4710 h1        1 TOL      0.047700
     28 H5          2.9730    0.6680    0.7450 ha        1 TOL      0.158000
     29 H6          1.5540    0.1000   -1.1670 ha        1 TOL      0.224000
     30 H9         -3.0590   -1.2450   -1.6690 ha        1 TOL      0.143000
     31 H10        -4.0050   -1.1940    0.6300 ha        1 TOL      0.126000
     32 H11        -2.5730   -0.6140    2.5710 ha        1 TOL      0.137000
     33 H141       -1.4220    1.6340   -1.8290 h1        1 TOL      0.056700
     34 H142        0.3620    2.0580   -1.9890 h1        1 TOL      0.056700
     35 H143       -0.7910    2.3930   -3.3670 h1        1 TOL      0.056700
     36 H151        0.8860   -0.6600   -4.5260 h1        1 TOL      0.071700
     37 H152        0.1370    0.9140   -5.0830 h1        1 TOL      0.071700
@<TRIPOS>BOND
     1    1    2 1   
     2    1    3 1   
     3    1    4 1   
     4    1    5 1   
     5    5    6 ar  
     6    5   16 ar  
     7    6    7 1   
     8    6    9 ar  
     9    7    8 1   
    10    8   25 1   
    11    8   26 1   
    12    8   27 1   
    13    9   10 ar  
    14    9   28 1   
    15   10   11 ar  
    16   10   29 1   
    17   11   12 ar  
    18   11   16 ar  
    19   12   13 ar  
    20   12   17 1   
    21   13   14 ar  
    22   13   30 1   
    23   14   15 ar  
    24   14   31 1   
    25   15   16 ar  
    26   15   32 1   
    27   17   18 2   
    28   17   19 1   
    29   19   20 1   
    30   19   21 1   
    31   20   33 1   
    32   20   34 1   
    33   20   35 1   
    34   21   22 1   
    35   21   36 1   
    36   21   37 1   
    37   22   23 1   
    38   22   24 1   
@<TRIPOS>SUBSTRUCTURE
     1 TOL         1 TEMP              0 ****  ****    0 ROOT
