@<TRIPOS>MOLECULE
TOL
   38    39     1     0     0
SMALL
bcc


@<TRIPOS>ATOM
      1 C1         -0.1590    0.0350    0.1190 c3        1 TOL      0.702200
      2 F1          1.1980   -0.1970    0.1210 f         1 TOL     -0.234633
      3 F2         -0.4860    0.0460    1.4510 f         1 TOL     -0.234633
      4 F3         -0.6960   -1.1480   -0.3350 f         1 TOL     -0.234633
      5 C2         -0.5870    1.2640   -0.6760 ca        1 TOL     -0.208300
      6 C3         -1.2430    2.3130   -0.0390 ca        1 TOL      0.190100
      7 O1         -1.4730    2.1630    1.3080 os        1 TOL     -0.305900
      8 C4         -2.0960    3.2540    1.9830 c3        1 TOL      0.109700
      9 C5         -1.6480    3.4640   -0.7700 ca        1 TOL     -0.194000
     10 C6         -1.3970    3.5400   -2.1130 ca        1 TOL     -0.054000
     11 C7         -0.7340    2.4860   -2.8010 ca        1 TOL     -0.050000
     12 C8         -0.4680    2.5560   -4.2020 ca        1 TOL     -0.089600
     13 C9          0.2020    1.5350   -4.8420 ca        1 TOL     -0.103000
     14 C10         0.6310    0.4050   -4.1110 ca        1 TOL     -0.107000
     15 C11         0.3780    0.3060   -2.7650 ca        1 TOL     -0.115000
     16 C12        -0.3130    1.3420   -2.0720 ca        1 TOL      0.034000
     17 C13        -0.8730    3.7570   -4.9780 c         1 TOL      0.425000
     18 S1          0.1480    4.9790   -5.0890 s         1 TOL     -0.487400
     19 N1         -2.1050    3.7370   -5.5760 n         1 TOL     -0.380800
     20 C14        -2.9790    2.5910   -5.5660 c3        1 TOL      0.055300
     21 C15        -2.6060    4.9160   -6.2450 c3        1 TOL     -0.029000
     22 C16        -2.2710    4.9720   -7.7290 c         1 TOL      0.614100
     23 O2         -3.0570    4.7080   -8.6380 o         1 TOL     -0.489000
     24 O3         -1.0390    5.3740   -8.1270 oh        1 TOL     -0.576100
     25 H41        -1.4740    4.1770    1.9030 h1        1 TOL      0.053033
     26 H42        -3.1240    3.4290    1.5820 h1        1 TOL      0.053033
     27 H43        -2.1420    2.8970    3.0450 h1        1 TOL      0.053033
     28 H5         -2.1560    4.2910   -0.2530 ha        1 TOL      0.151000
     29 H6         -1.6970    4.4380   -2.6780 ha        1 TOL      0.145000
     30 H9          0.4200    1.5920   -5.9200 ha        1 TOL      0.149000
     31 H10         1.1730   -0.3960   -4.6370 ha        1 TOL      0.148000
     32 H11         0.7140   -0.5810   -2.2040 ha        1 TOL      0.156000
     33 H141       -3.4620    2.4860   -6.5750 h1        1 TOL      0.064367
     34 H142       -3.7810    2.7300   -4.7900 h1        1 TOL      0.064367
     35 H143       -2.4060    1.6550   -5.3360 h1        1 TOL      0.064367
     36 H151       -2.1780    5.8410   -5.7500 h1        1 TOL      0.100700
     37 H152       -3.7300    4.9340   -6.1480 h1        1 TOL      0.100700
     38 H111       -0.4670    5.5250   -7.3470 ho        1 TOL      0.459000
@<TRIPOS>BOND
     1    1    2 1   
     2    1    3 1   
     3    1    4 1   
     4    1    5 1   
     5    5    6 ar  
     6    5   16 ar  
     7    6    7 1   
     8    6    9 ar  
     9    7    8 1   
    10    8   25 1   
    11    8   26 1   
    12    8   27 1   
    13    9   10 ar  
    14    9   28 1   
    15   10   11 ar  
    16   10   29 1   
    17   11   12 ar  
    18   11   16 ar  
    19   12   13 ar  
    20   12   17 1   
    21   13   14 ar  
    22   13   30 1   
    23   14   15 ar  
    24   14   31 1   
    25   15   16 ar  
    26   15   32 1   
    27   17   18 2   
    28   17   19 1   
    29   19   20 1   
    30   19   21 1   
    31   20   33 1   
    32   20   34 1   
    33   20   35 1   
    34   21   22 1   
    35   21   36 1   
    36   21   37 1   
    37   22   23 2   
    38   22   24 1   
    39   24   38 1   
@<TRIPOS>SUBSTRUCTURE
     1 TOL         1 TEMP              0 ****  ****    0 ROOT
