@<TRIPOS>MOLECULE
TOM
   24    20     1     0     0
SMALL
bcc


@<TRIPOS>ATOM
      1 O8         -0.0940    1.4930    1.7600 o         1 TOM     -0.330000
      2 C9         -0.4810    2.3560    0.9970 c1        1 TOM      0.189000
      3 C10        -1.4290    3.4280    1.4870 c1        1 TOM      0.331000
      4 O11        -1.3110    3.8880    2.6530 o         1 TOM     -0.543500
      5 O10        -2.3340    3.8630    0.7280 o         1 TOM     -0.543500
      6 C8          0.0050    2.3730   -0.4350 c2        1 TOM     -0.175000
      7 C7          0.1090    1.2200   -1.1250 c1        1 TOM     -0.126000
      8 C1         -0.2590   -0.0910   -0.4660 c1        1 TOM     -0.044000
      9 C6         -1.5910   -0.4120   -0.2570 c2        1 TOM     -0.085000
     10 C5         -1.9300   -1.6300    0.3110 c1        1 TOM     -0.158000
     11 C4         -0.9360   -2.5280    0.6690 c1        1 TOM     -0.169500
     12 C3          0.3960   -2.2070    0.4600 c1        1 TOM     -0.169500
     13 C2          0.7350   -0.9890   -0.1080 c1        1 TOM      0.065000
     14 O2          2.0860   -0.6510   -0.2910 os        1 TOM     -0.212000
     15 C11         2.7810   -1.5240   -1.1540 c3        1 TOM     -0.070000
     16 H8          0.2420    3.2190   -0.8600 ha        1 TOM      0.134000
     17 H7          0.4220    1.2310   -2.0490 ha        1 TOM      0.117000
     18 H6         -2.2900    0.2230   -0.5030 ha        1 TOM      0.212000
     19 H5         -2.8680   -1.8550    0.4580 ha        1 TOM      0.132000
     20 H4         -1.1750   -3.3850    1.0700 ha        1 TOM      0.115000
     21 H3          1.0950   -2.8380    0.7160 ha        1 TOM      0.115000
     22 H111        3.3640   -1.0030   -1.7470 h1        1 TOM      0.071667
     23 H112        3.3260   -2.1450   -0.6220 h1        1 TOM      0.071667
     24 H113        2.1370   -2.0330   -1.6920 h1        1 TOM      0.071667
@<TRIPOS>BOND
     1    1    2 1   
     2    2    6 1   
     3    3    4 1   
     4    3    5 1   
     5    6    7 1   
     6    6   16 1   
     7    7   17 1   
     8    8    9 1   
     9    8   13 1   
    10    9   10 1   
    11    9   18 1   
    12   10   19 1   
    13   11   12 1   
    14   11   20 1   
    15   12   21 1   
    16   13   14 1   
    17   14   15 1   
    18   15   22 1   
    19   15   23 1   
    20   15   24 1   
@<TRIPOS>SUBSTRUCTURE
     1 TOM         1 TEMP              0 ****  ****    0 ROOT
