@<TRIPOS>MOLECULE
TOM
   24    24     1     0     0
SMALL
bcc


@<TRIPOS>ATOM
      1 O8          0.3670   -1.2740    0.1570 o         1 TOM     -0.575100
      2 C9          1.3590   -0.5430    0.0560 c         1 TOM      0.448300
      3 C10         1.9890    0.2560    1.2150 c         1 TOM      0.860600
      4 O11         1.3750    1.2710    1.6260 o         1 TOM     -0.806300
      5 O10         3.1000   -0.1660    1.6340 o         1 TOM     -0.806300
      6 C8          2.0940   -0.4020   -1.2260 ce        1 TOM     -0.182200
      7 C7          1.4950   -0.3380   -2.4220 cf        1 TOM     -0.141200
      8 C1          2.1920   -0.1440   -3.6820 ca        1 TOM     -0.046800
      9 C6          3.3850    0.5930   -3.7440 ca        1 TOM     -0.114000
     10 C5          4.0420    0.7930   -4.9560 ca        1 TOM     -0.144000
     11 C4          3.5220    0.2610   -6.1350 ca        1 TOM     -0.139000
     12 C3          2.3440   -0.4810   -6.1040 ca        1 TOM     -0.147000
     13 C2          1.6830   -0.6780   -4.8840 ca        1 TOM      0.091100
     14 O2          0.4570   -1.3330   -4.9340 os        1 TOM     -0.350900
     15 C11         0.4640   -2.6220   -4.3210 c3        1 TOM      0.113700
     16 H8          3.1870   -0.3210   -1.0970 ha        1 TOM      0.145000
     17 H7          0.3970   -0.4360   -2.5030 ha        1 TOM      0.143000
     18 H6          3.7950    1.0240   -2.8170 ha        1 TOM      0.149000
     19 H5          4.9740    1.3760   -4.9800 ha        1 TOM      0.124000
     20 H4          4.0410    0.4240   -7.0900 ha        1 TOM      0.119000
     21 H3          1.9170   -0.9040   -7.0230 ha        1 TOM      0.132000
     22 H111       -0.6090   -2.9340   -4.3460 h1        1 TOM      0.041700
     23 H112        1.0940   -3.3240   -4.9210 h1        1 TOM      0.041700
     24 H113        0.8370   -2.5680   -3.2690 h1        1 TOM      0.041700
@<TRIPOS>BOND
     1    1    2 2   
     2    2    3 1   
     3    2    6 1   
     4    3    4 1   
     5    3    5 1   
     6    6    7 2   
     7    6   16 1   
     8    7    8 1   
     9    7   17 1   
    10    8    9 ar  
    11    8   13 ar  
    12    9   10 ar  
    13    9   18 1   
    14   10   11 ar  
    15   10   19 1   
    16   11   12 ar  
    17   11   20 1   
    18   12   13 ar  
    19   12   21 1   
    20   13   14 1   
    21   14   15 1   
    22   15   22 1   
    23   15   23 1   
    24   15   24 1   
@<TRIPOS>SUBSTRUCTURE
     1 TOM         1 TEMP              0 ****  ****    0 ROOT
