@<TRIPOS>MOLECULE
TOM
   24    24     1     0     0
SMALL
bcc


@<TRIPOS>ATOM
      1 O8          0.3650   -1.2460    0.1620 o         1 TOM     -0.575100
      2 C9          1.3480   -0.5030    0.0530 c         1 TOM      0.448300
      3 C10         1.9630    0.3210    1.2030 c         1 TOM      0.860600
      4 O11         1.3340    1.3340    1.5960 o         1 TOM     -0.806300
      5 O10         3.0780   -0.0810    1.6310 o         1 TOM     -0.806300
      6 C8          2.0850   -0.3710   -1.2280 ce        1 TOM     -0.182200
      7 C7          1.4890   -0.3350   -2.4270 cf        1 TOM     -0.141200
      8 C1          2.1890   -0.1500   -3.6870 ca        1 TOM     -0.046800
      9 C6          3.3710    0.6030   -3.7570 ca        1 TOM     -0.114000
     10 C5          4.0300    0.7930   -4.9690 ca        1 TOM     -0.144000
     11 C4          3.5220    0.2360   -6.1420 ca        1 TOM     -0.139000
     12 C3          2.3550   -0.5220   -6.1030 ca        1 TOM     -0.147000
     13 C2          1.6920   -0.7100   -4.8830 ca        1 TOM      0.091100
     14 O2          0.4750   -1.3830   -4.9270 os        1 TOM     -0.350900
     15 C11         0.4990   -2.6620   -4.2940 c3        1 TOM      0.113700
     16 H8          3.1770   -0.2740   -1.0970 ha        1 TOM      0.145000
     17 H7          0.3930   -0.4490   -2.5100 ha        1 TOM      0.143000
     18 H6          3.7710    1.0540   -2.8350 ha        1 TOM      0.149000
     19 H5          4.9530    1.3890   -5.0000 ha        1 TOM      0.124000
     20 H4          4.0420    0.3920   -7.0980 ha        1 TOM      0.119000
     21 H3          1.9370   -0.9660   -7.0180 ha        1 TOM      0.132000
     22 H111       -0.5710   -2.9900   -4.3180 h1        1 TOM      0.041700
     23 H112        1.1400   -3.3640   -4.8810 h1        1 TOM      0.041700
     24 H113        0.8660   -2.5860   -3.2420 h1        1 TOM      0.041700
@<TRIPOS>BOND
     1    1    2 2   
     2    2    3 1   
     3    2    6 1   
     4    3    4 1   
     5    3    5 1   
     6    6    7 2   
     7    6   16 1   
     8    7    8 1   
     9    7   17 1   
    10    8    9 ar  
    11    8   13 ar  
    12    9   10 ar  
    13    9   18 1   
    14   10   11 ar  
    15   10   19 1   
    16   11   12 ar  
    17   11   20 1   
    18   12   13 ar  
    19   12   21 1   
    20   13   14 1   
    21   14   15 1   
    22   15   22 1   
    23   15   23 1   
    24   15   24 1   
@<TRIPOS>SUBSTRUCTURE
     1 TOM         1 TEMP              0 ****  ****    0 ROOT
