@<TRIPOS>MOLECULE
TOM
   24    24     1     0     0
SMALL
bcc


@<TRIPOS>ATOM
      1 O8          6.8800   -2.8770    3.5390 o         1 TOM     -0.569100
      2 C9          5.9850   -3.5630    3.0350 c         1 TOM      0.448300
      3 C10         5.8870   -5.1000    3.1460 c         1 TOM      0.862600
      4 O11         5.3410   -5.5660    4.1780 o         1 TOM     -0.805800
      5 O10         6.3330   -5.7590    2.1710 o         1 TOM     -0.805800
      6 C8          4.9000   -2.9670    2.2180 ce        1 TOM     -0.177200
      7 C7          4.0210   -2.0770    2.6930 cf        1 TOM     -0.148200
      8 C1          2.8810   -1.5680    1.9480 ca        1 TOM     -0.043800
      9 C6          2.9400   -1.3910    0.5580 ca        1 TOM     -0.116000
     10 C5          1.8550   -0.8760   -0.1470 ca        1 TOM     -0.146000
     11 C4          0.6830   -0.5270    0.5220 ca        1 TOM     -0.138000
     12 C3          0.5900   -0.7020    1.9000 ca        1 TOM     -0.147000
     13 C2          1.6840   -1.2180    2.6080 ca        1 TOM      0.098100
     14 O2          1.5670   -1.2750    3.9920 os        1 TOM     -0.354900
     15 C11         1.5300   -2.6040    4.5180 c3        1 TOM      0.111700
     16 H8          4.8300   -3.3920    1.2030 ha        1 TOM      0.140000
     17 H7          4.1130   -1.6890    3.7240 ha        1 TOM      0.142000
     18 H6          3.8650   -1.6600    0.0250 ha        1 TOM      0.140000
     19 H5          1.9250   -0.7450   -1.2360 ha        1 TOM      0.121000
     20 H4         -0.1700   -0.1170   -0.0360 ha        1 TOM      0.118000
     21 H3         -0.3260   -0.4330    2.4450 ha        1 TOM      0.133000
     22 H111        2.3970   -3.2090    4.1590 h1        1 TOM      0.046367
     23 H112        0.5680   -3.0940    4.2320 h1        1 TOM      0.046367
     24 H113        1.5840   -2.4510    5.6240 h1        1 TOM      0.046367
@<TRIPOS>BOND
     1    1    2 2   
     2    2    3 1   
     3    2    6 1   
     4    3    4 1   
     5    3    5 1   
     6    6    7 2   
     7    6   16 1   
     8    7    8 1   
     9    7   17 1   
    10    8    9 ar  
    11    8   13 ar  
    12    9   10 ar  
    13    9   18 1   
    14   10   11 ar  
    15   10   19 1   
    16   11   12 ar  
    17   11   20 1   
    18   12   13 ar  
    19   12   21 1   
    20   13   14 1   
    21   14   15 1   
    22   15   22 1   
    23   15   23 1   
    24   15   24 1   
@<TRIPOS>SUBSTRUCTURE
     1 TOM         1 TEMP              0 ****  ****    0 ROOT
