@<TRIPOS>MOLECULE
TON
   51    51     1     0     0
SMALL
bcc


@<TRIPOS>ATOM
      1 C13         0.0700   -0.3750    0.0230 ca        1 TON     -0.098000
      2 C14         1.4550   -0.4050    0.0710 ca        1 TON     -0.179500
      3 C15         2.1040   -0.2790    1.3140 ca        1 TON      0.123100
      4 O1          3.4840   -0.3310    1.2580 os        1 TON     -0.332900
      5 C1          4.1660   -0.1150    2.4990 c3        1 TON      0.124400
      6 C2          5.6520   -0.1100    2.1550 c3        1 TON      0.127400
      7 O2          6.0840    1.2460    2.2450 os        1 TON     -0.436600
      8 C3          7.4110    1.4280    1.7560 c3        1 TON      0.087400
      9 C4          7.7430    2.9010    1.9710 c3        1 TON      0.131400
     10 O3          7.8200    3.2220    3.3440 oh        1 TON     -0.599800
     11 C16         1.3550   -0.1340    2.4830 ca        1 TON     -0.179500
     12 C17        -0.0390   -0.1040    2.4090 ca        1 TON     -0.098000
     13 C18        -0.7070   -0.2110    1.1860 ca        1 TON     -0.099300
     14 C5         -2.2200   -0.1890    1.0580 c3        1 TON      0.010300
     15 C8         -2.6520   -1.5740    0.5800 c3        1 TON     -0.087100
     16 C7         -2.6100    0.8540    0.0180 c3        1 TON     -0.087100
     17 C6         -2.8450    0.1430    2.4200 c3        1 TON     -0.064400
     18 C9         -4.3390    0.4470    2.5900 c3        1 TON     -0.047000
     19 C12        -5.2530   -0.4990    1.8340 c3        1 TON     -0.088433
     20 C11        -4.6650    1.8850    2.2060 c3        1 TON     -0.088433
     21 C10        -4.6420    0.2950    4.0850 c3        1 TON     -0.088433
     22 H13        -0.4230   -0.4900   -0.9550 ha        1 TON      0.134000
     23 H14         2.0540   -0.5280   -0.8420 ha        1 TON      0.141000
     24 H11         3.8540    0.8650    2.9450 h1        1 TON      0.055200
     25 H12         3.9280   -0.9560    3.2010 h1        1 TON      0.055200
     26 H21         6.2260   -0.7270    2.8960 h1        1 TON      0.047700
     27 H22         5.8240   -0.5060    1.1190 h1        1 TON      0.047700
     28 H31         8.1180    0.7720    2.3300 h1        1 TON      0.040200
     29 H32         7.4540    1.1680    0.6660 h1        1 TON      0.040200
     30 H41         8.7630    3.1240    1.5600 h1        1 TON      0.054700
     31 H42         6.9750    3.5450    1.4650 h1        1 TON      0.054700
     32 HO3         6.9680    2.9910    3.7340 ho        1 TON      0.412000
     33 H162        1.8420   -0.0430    3.4640 ha        1 TON      0.141000
     34 H17        -0.5910    0.0010    3.3550 ha        1 TON      0.134000
     35 H81        -1.9650   -1.9440   -0.2190 hc        1 TON      0.037200
     36 H82        -3.6830   -1.5470    0.1540 hc        1 TON      0.037200
     37 H83        -2.6320   -2.3030    1.4260 hc        1 TON      0.037200
     38 H71        -2.0540    0.7010   -0.9380 hc        1 TON      0.037200
     39 H72        -2.3860    1.8800    0.3980 hc        1 TON      0.037200
     40 H73        -3.7000    0.7800   -0.2120 hc        1 TON      0.037200
     41 H61        -2.3060    1.0470    2.8200 hc        1 TON      0.040200
     42 H62        -2.6100   -0.7260    3.0950 hc        1 TON      0.040200
     43 H121       -5.2290   -0.2910    0.7380 hc        1 TON      0.034256
     44 H122       -6.3070   -0.3710    2.1850 hc        1 TON      0.034256
     45 H123       -4.9480   -1.5590    2.0120 hc        1 TON      0.034256
     46 H111       -5.7150    2.1270    2.5030 hc        1 TON      0.034256
     47 H112       -3.9780    2.5930    2.7280 hc        1 TON      0.034256
     48 H113       -4.5730    2.0460    1.1070 hc        1 TON      0.034256
     49 H101       -4.5010   -0.7650    4.4050 hc        1 TON      0.034256
     50 H102       -3.9630    0.9450    4.6860 hc        1 TON      0.034256
     51 H103       -5.6970    0.5910    4.2970 hc        1 TON      0.034256
@<TRIPOS>BOND
     1    1    2 ar  
     2    1   13 ar  
     3    1   22 1   
     4    2    3 ar  
     5    2   23 1   
     6    3    4 1   
     7    3   11 ar  
     8    4    5 1   
     9    5    6 1   
    10    5   24 1   
    11    5   25 1   
    12    6    7 1   
    13    6   26 1   
    14    6   27 1   
    15    7    8 1   
    16    8    9 1   
    17    8   28 1   
    18    8   29 1   
    19    9   10 1   
    20    9   30 1   
    21    9   31 1   
    22   10   32 1   
    23   11   12 ar  
    24   11   33 1   
    25   12   13 ar  
    26   12   34 1   
    27   13   14 1   
    28   14   15 1   
    29   14   16 1   
    30   14   17 1   
    31   15   35 1   
    32   15   36 1   
    33   15   37 1   
    34   16   38 1   
    35   16   39 1   
    36   16   40 1   
    37   17   18 1   
    38   17   41 1   
    39   17   42 1   
    40   18   19 1   
    41   18   20 1   
    42   18   21 1   
    43   19   43 1   
    44   19   44 1   
    45   19   45 1   
    46   20   46 1   
    47   20   47 1   
    48   20   48 1   
    49   21   49 1   
    50   21   50 1   
    51   21   51 1   
@<TRIPOS>SUBSTRUCTURE
     1 TON         1 TEMP              0 ****  ****    0 ROOT
