@<TRIPOS>MOLECULE
TON
   51    51     1     0     0
SMALL
bcc


@<TRIPOS>ATOM
      1 C13         1.8850   -0.0790    0.9230 ca        1 TON     -0.098000
      2 C14         1.9310    0.1490   -0.4440 ca        1 TON     -0.179500
      3 C15         0.7860    0.6410   -1.0980 ca        1 TON      0.123100
      4 O1          0.9350    0.8440   -2.4570 os        1 TON     -0.332900
      5 C1         -0.2430    1.2620   -3.1570 c3        1 TON      0.124400
      6 C2          0.1490    1.3090   -4.6310 c3        1 TON      0.127400
      7 O2         -0.4780    0.1890   -5.2520 os        1 TON     -0.436600
      8 C3         -0.0370   -0.0060   -6.5940 c3        1 TON      0.087400
      9 C4         -0.8320   -1.1910   -7.1320 c3        1 TON      0.131400
     10 O3         -2.2060   -0.8870   -7.2470 oh        1 TON     -0.599800
     11 C16        -0.3770    0.9040   -0.3720 ca        1 TON     -0.179500
     12 C17        -0.3980    0.6640    1.0040 ca        1 TON     -0.098000
     13 C18         0.7190    0.1600    1.6740 ca        1 TON     -0.099300
     14 C5          0.7430   -0.1100    3.1680 c3        1 TON      0.010300
     15 C8          1.7290    0.8780    3.7900 c3        1 TON     -0.087100
     16 C7          1.2320   -1.5340    3.4030 c3        1 TON     -0.087100
     17 C6         -0.6660    0.0820    3.7470 c3        1 TON     -0.064400
     18 C9         -1.0290   -0.3140    5.1830 c3        1 TON     -0.047000
     19 C12         0.0010    0.1010    6.2190 c3        1 TON     -0.088433
     20 C11        -1.2960   -1.8090    5.3020 c3        1 TON     -0.088433
     21 C10        -2.3400    0.4120    5.5120 c3        1 TON     -0.088433
     22 H13         2.7950   -0.4500    1.4230 ha        1 TON      0.134000
     23 H14         2.8440   -0.0470   -1.0240 ha        1 TON      0.141000
     24 H11        -1.0740    0.5290   -2.9860 h1        1 TON      0.055200
     25 H12        -0.5420    2.2810   -2.7980 h1        1 TON      0.055200
     26 H21        -0.2310    2.2520   -5.1050 h1        1 TON      0.047700
     27 H22         1.2640    1.2480   -4.7500 h1        1 TON      0.047700
     28 H31        -0.2420    0.9180   -7.1960 h1        1 TON      0.040200
     29 H32         1.0620   -0.2290   -6.6060 h1        1 TON      0.040200
     30 H41        -0.4960   -1.4300   -8.1760 h1        1 TON      0.054700
     31 H42        -0.6870   -2.0840   -6.4680 h1        1 TON      0.054700
     32 HO3        -2.5100   -0.6270   -6.3680 ho        1 TON      0.412000
     33 H162       -1.2780    1.2970   -0.8630 ha        1 TON      0.141000
     34 H17        -1.3310    0.8960    1.5390 ha        1 TON      0.134000
     35 H81         1.2660    1.8900    3.8760 hc        1 TON      0.037200
     36 H82         2.0470    0.5410    4.8040 hc        1 TON      0.037200
     37 H83         2.6460    0.9640    3.1580 hc        1 TON      0.037200
     38 H71         0.4720   -2.2660    3.0380 hc        1 TON      0.037200
     39 H72         2.1930   -1.7250    2.8700 hc        1 TON      0.037200
     40 H73         1.4110   -1.7050    4.4920 hc        1 TON      0.037200
     41 H61        -1.3760   -0.4920    3.0870 hc        1 TON      0.040200
     42 H62        -0.9040    1.1770    3.6390 hc        1 TON      0.040200
     43 H121       -0.4290   -0.0040    7.2450 hc        1 TON      0.034256
     44 H122        0.9100   -0.5430    6.1610 hc        1 TON      0.034256
     45 H123        0.2970    1.1670    6.0670 hc        1 TON      0.034256
     46 H111       -0.3610   -2.4030    5.1830 hc        1 TON      0.034256
     47 H112       -1.7250   -2.0380    6.3080 hc        1 TON      0.034256
     48 H113       -2.0270   -2.1360    4.5240 hc        1 TON      0.034256
     49 H101       -2.1810    1.5160    5.5230 hc        1 TON      0.034256
     50 H102       -3.1180    0.1680    4.7500 hc        1 TON      0.034256
     51 H103       -2.7130    0.0970    6.5150 hc        1 TON      0.034256
@<TRIPOS>BOND
     1    1    2 ar  
     2    1   13 ar  
     3    1   22 1   
     4    2    3 ar  
     5    2   23 1   
     6    3    4 1   
     7    3   11 ar  
     8    4    5 1   
     9    5    6 1   
    10    5   24 1   
    11    5   25 1   
    12    6    7 1   
    13    6   26 1   
    14    6   27 1   
    15    7    8 1   
    16    8    9 1   
    17    8   28 1   
    18    8   29 1   
    19    9   10 1   
    20    9   30 1   
    21    9   31 1   
    22   10   32 1   
    23   11   12 ar  
    24   11   33 1   
    25   12   13 ar  
    26   12   34 1   
    27   13   14 1   
    28   14   15 1   
    29   14   16 1   
    30   14   17 1   
    31   15   35 1   
    32   15   36 1   
    33   15   37 1   
    34   16   38 1   
    35   16   39 1   
    36   16   40 1   
    37   17   18 1   
    38   17   41 1   
    39   17   42 1   
    40   18   19 1   
    41   18   20 1   
    42   18   21 1   
    43   19   43 1   
    44   19   44 1   
    45   19   45 1   
    46   20   46 1   
    47   20   47 1   
    48   20   48 1   
    49   21   49 1   
    50   21   50 1   
    51   21   51 1   
@<TRIPOS>SUBSTRUCTURE
     1 TON         1 TEMP              0 ****  ****    0 ROOT
