@<TRIPOS>MOLECULE
TON
   51    51     1     0     0
SMALL
bcc


@<TRIPOS>ATOM
      1 C13         0.0660   -0.3780    0.0230 ca        1 TON     -0.098000
      2 C14         1.4520   -0.4070    0.0690 ca        1 TON     -0.179500
      3 C15         2.1030   -0.2780    1.3100 ca        1 TON      0.123100
      4 O1          3.4820   -0.3290    1.2520 os        1 TON     -0.332900
      5 C1          4.1660   -0.1120    2.4920 c3        1 TON      0.124400
      6 C2          5.6520   -0.1090    2.1460 c3        1 TON      0.127400
      7 O2          6.0860    1.2460    2.2390 os        1 TON     -0.436600
      8 C3          7.4130    1.4270    1.7480 c3        1 TON      0.087400
      9 C4          7.7480    2.8990    1.9670 c3        1 TON      0.131400
     10 O3          7.8280    3.2160    3.3400 oh        1 TON     -0.599800
     11 C16         1.3550   -0.1290    2.4810 ca        1 TON     -0.179500
     12 C17        -0.0390   -0.1000    2.4080 ca        1 TON     -0.098000
     13 C18        -0.7080   -0.2110    1.1870 ca        1 TON     -0.099300
     14 C5         -2.2210   -0.1900    1.0610 c3        1 TON      0.010300
     15 C8         -2.6540   -1.5780    0.5880 c3        1 TON     -0.087100
     16 C7         -2.6140    0.8490    0.0190 c3        1 TON     -0.087100
     17 C6         -2.8450    0.1450    2.4230 c3        1 TON     -0.064400
     18 C9         -4.3390    0.4490    2.5950 c3        1 TON     -0.047000
     19 C12        -5.2540   -0.5010    1.8430 c3        1 TON     -0.088433
     20 C11        -4.6660    1.8850    2.2070 c3        1 TON     -0.088433
     21 C10        -4.6390    0.3010    4.0910 c3        1 TON     -0.088433
     22 H13        -0.4280   -0.4960   -0.9540 ha        1 TON      0.134000
     23 H14         2.0490   -0.5320   -0.8450 ha        1 TON      0.141000
     24 H11         3.8560    0.8690    2.9370 h1        1 TON      0.055200
     25 H12         3.9290   -0.9520    3.1960 h1        1 TON      0.055200
     26 H21         6.2260   -0.7280    2.8850 h1        1 TON      0.047700
     27 H22         5.8220   -0.5030    1.1090 h1        1 TON      0.047700
     28 H31         8.1200    0.7690    2.3200 h1        1 TON      0.040200
     29 H32         7.4540    1.1710    0.6580 h1        1 TON      0.040200
     30 H41         8.7680    3.1210    1.5550 h1        1 TON      0.054700
     31 H42         6.9800    3.5460    1.4640 h1        1 TON      0.054700
     32 HO3         6.9750    2.9850    3.7320 ho        1 TON      0.412000
     33 H162        1.8440   -0.0360    3.4600 ha        1 TON      0.141000
     34 H17        -0.5890    0.0060    3.3550 ha        1 TON      0.134000
     35 H81        -1.9680   -1.9490   -0.2110 hc        1 TON      0.037200
     36 H82        -3.6860   -1.5520    0.1640 hc        1 TON      0.037200
     37 H83        -2.6320   -2.3030    1.4360 hc        1 TON      0.037200
     38 H71        -2.0600    0.6940   -0.9370 hc        1 TON      0.037200
     39 H72        -2.3900    1.8760    0.3960 hc        1 TON      0.037200
     40 H73        -3.7050    0.7740   -0.2090 hc        1 TON      0.037200
     41 H61        -2.3060    1.0510    2.8200 hc        1 TON      0.040200
     42 H62        -2.6080   -0.7220    3.1010 hc        1 TON      0.040200
     43 H121       -5.2320   -0.2950    0.7470 hc        1 TON      0.034256
     44 H122       -6.3070   -0.3720    2.1960 hc        1 TON      0.034256
     45 H123       -4.9480   -1.5590    2.0240 hc        1 TON      0.034256
     46 H111       -5.7160    2.1270    2.5060 hc        1 TON      0.034256
     47 H112       -3.9780    2.5950    2.7250 hc        1 TON      0.034256
     48 H113       -4.5760    2.0430    1.1070 hc        1 TON      0.034256
     49 H101       -4.4970   -0.7580    4.4140 hc        1 TON      0.034256
     50 H102       -3.9590    0.9530    4.6890 hc        1 TON      0.034256
     51 H103       -5.6940    0.5970    4.3040 hc        1 TON      0.034256
@<TRIPOS>BOND
     1    1    2 ar  
     2    1   13 ar  
     3    1   22 1   
     4    2    3 ar  
     5    2   23 1   
     6    3    4 1   
     7    3   11 ar  
     8    4    5 1   
     9    5    6 1   
    10    5   24 1   
    11    5   25 1   
    12    6    7 1   
    13    6   26 1   
    14    6   27 1   
    15    7    8 1   
    16    8    9 1   
    17    8   28 1   
    18    8   29 1   
    19    9   10 1   
    20    9   30 1   
    21    9   31 1   
    22   10   32 1   
    23   11   12 ar  
    24   11   33 1   
    25   12   13 ar  
    26   12   34 1   
    27   13   14 1   
    28   14   15 1   
    29   14   16 1   
    30   14   17 1   
    31   15   35 1   
    32   15   36 1   
    33   15   37 1   
    34   16   38 1   
    35   16   39 1   
    36   16   40 1   
    37   17   18 1   
    38   17   41 1   
    39   17   42 1   
    40   18   19 1   
    41   18   20 1   
    42   18   21 1   
    43   19   43 1   
    44   19   44 1   
    45   19   45 1   
    46   20   46 1   
    47   20   47 1   
    48   20   48 1   
    49   21   49 1   
    50   21   50 1   
    51   21   51 1   
@<TRIPOS>SUBSTRUCTURE
     1 TON         1 TEMP              0 ****  ****    0 ROOT
