@<TRIPOS>MOLECULE
TON
   51    48     1     0     0
SMALL
bcc


@<TRIPOS>ATOM
      1 C13        -0.3610    1.0040   -1.0470 c1        1 TON     -0.069500
      2 C14         1.0390    1.0140   -1.0640 c1        1 TON     -0.069500
      3 C15         1.7510    0.9540    0.1320 c1        1 TON      0.106600
      4 O1          3.2090    1.0680    0.1200 os        1 TON     -0.317400
      5 C1          3.8940   -0.1890    0.2890 c3        1 TON      0.126400
      6 C2          5.2350   -0.1360   -0.4290 c3        1 TON      0.128400
      7 O2          6.0840   -1.1240    0.0950 os        1 TON     -0.430600
      8 C3          7.2480   -1.3190   -0.6460 c3        1 TON      0.129400
      9 C4          8.1500   -2.3120    0.0800 c3        1 TON      0.127400
     10 O3          9.3590   -2.5130   -0.6820 oh        1 TON     -0.602800
     11 C16         1.0680    0.8850    1.3430 c1        1 TON     -0.145500
     12 C17        -0.3270    0.8750    1.3590 c1        1 TON     -0.036500
     13 C18        -1.0390    0.9350    0.1600 c1        1 TON     -0.070100
     14 C5         -2.5910    1.0040    0.1830 c3        1 TON     -0.025900
     15 C8         -3.0720    2.2120   -0.6870 c3        1 TON     -0.087100
     16 C7         -3.0780    1.1960    1.6460 c3        1 TON     -0.087100
     17 C6         -3.1930   -0.3510   -0.4080 c3        1 TON     -0.061400
     18 C9         -4.7560   -0.3890   -0.1630 c3        1 TON     -0.048000
     19 C12        -5.3310    0.9380   -0.4490 c3        1 TON     -0.087433
     20 C11        -5.0340   -0.7580    1.2890 c3        1 TON     -0.087433
     21 C10        -5.4090   -1.4570   -1.1120 c3        1 TON     -0.087433
     22 H13        -0.8650    1.0470   -1.8940 ha        1 TON      0.083500
     23 H14         1.5170    1.0630   -1.9140 ha        1 TON      0.083500
     24 H11         3.3500   -0.9100   -0.0890 h1        1 TON      0.052700
     25 H12         4.0400   -0.3530    1.2350 h1        1 TON      0.052700
     26 H21         5.1000   -0.2950   -1.3870 h1        1 TON      0.044700
     27 H22         5.6430    0.7500   -0.2970 h1        1 TON      0.044700
     28 H31         7.0190   -1.6700   -1.5230 h1        1 TON      0.043700
     29 H32         7.7160   -0.4670   -0.7480 h1        1 TON      0.043700
     30 H41         8.3780   -1.9570    0.9680 h1        1 TON      0.035700
     31 H42         7.6790   -3.1700    0.1810 h1        1 TON      0.035700
     32 HO3         9.9370   -2.9960   -0.2020 ho        1 TON      0.406000
     33 H162        1.5720    0.8420    2.1910 ha        1 TON      0.080500
     34 H17        -0.8020    0.8270    2.2030 ha        1 TON      0.077500
     35 H81        -3.3310    1.8920   -1.5800 hc        1 TON      0.037033
     36 H82        -3.8480    2.6400   -0.2550 hc        1 TON      0.037033
     37 H83        -2.3420    2.8670   -0.7720 hc        1 TON      0.037033
     38 H71        -4.0070    1.4620    1.6430 hc        1 TON      0.037033
     39 H72        -2.5350    1.8990    2.0840 hc        1 TON      0.037033
     40 H73        -2.9800    0.3490    2.1410 hc        1 TON      0.037033
     41 H61        -2.7700   -1.1240    0.0440 hc        1 TON      0.041700
     42 H62        -3.0110   -0.3970   -1.3770 hc        1 TON      0.041700
     43 H121       -5.0670    1.5710    0.2620 hc        1 TON      0.034033
     44 H122       -6.3140    0.8690   -0.4800 hc        1 TON      0.034033
     45 H123       -4.9980    1.2600   -1.3170 hc        1 TON      0.034033
     46 H111       -5.7540   -1.4220    1.3260 hc        1 TON      0.034033
     47 H112       -4.2290   -1.1290    1.6890 hc        1 TON      0.034033
     48 H113       -5.3070    0.0560    1.7910 hc        1 TON      0.034033
     49 H101       -5.1310   -2.3590   -0.8320 hc        1 TON      0.034033
     50 H102       -6.3930   -1.3840   -1.0620 hc        1 TON      0.034033
     51 H103       -5.1160   -1.2960   -2.0380 hc        1 TON      0.034033
@<TRIPOS>BOND
     1    1    2 3   
     2    1   22 1   
     3    2   23 1   
     4    3    4 1   
     5    3   11 3   
     6    4    5 1   
     7    5    6 1   
     8    5   24 1   
     9    5   25 1   
    10    6    7 1   
    11    6   26 1   
    12    6   27 1   
    13    7    8 1   
    14    8    9 1   
    15    8   28 1   
    16    8   29 1   
    17    9   10 1   
    18    9   30 1   
    19    9   31 1   
    20   10   32 1   
    21   11   33 1   
    22   12   13 3   
    23   12   34 1   
    24   13   14 1   
    25   14   15 1   
    26   14   16 1   
    27   14   17 1   
    28   15   35 1   
    29   15   36 1   
    30   15   37 1   
    31   16   38 1   
    32   16   39 1   
    33   16   40 1   
    34   17   18 1   
    35   17   41 1   
    36   17   42 1   
    37   18   19 1   
    38   18   20 1   
    39   18   21 1   
    40   19   43 1   
    41   19   44 1   
    42   19   45 1   
    43   20   46 1   
    44   20   47 1   
    45   20   48 1   
    46   21   49 1   
    47   21   50 1   
    48   21   51 1   
@<TRIPOS>SUBSTRUCTURE
     1 TON         1 TEMP              0 ****  ****    0 ROOT
