@<TRIPOS>MOLECULE
TOP
   39    40     1     0     0
SMALL
bcc


@<TRIPOS>ATOM
      1 C1         -0.2600    1.0320    0.1880 ca        1 TOP      0.487200
      2 N2          0.9900    1.2580   -0.2350 nb        1 TOP     -0.779000
      3 C3          1.9970    0.6060    0.4750 ca        1 TOP      0.895900
      4 N4          3.3070    0.7230   -0.0020 nh        1 TOP     -0.928500
      5 N5          1.7960   -0.2030    1.5790 nb        1 TOP     -0.817000
      6 C6          0.5000   -0.3900    1.9830 ca        1 TOP      0.714200
      7 N7          0.2660   -1.1270    3.1400 nh        1 TOP     -0.935500
      8 C8         -0.5970    0.2170    1.2810 ca        1 TOP     -0.425900
      9 C9         -2.0080    0.0480    1.6980 c3        1 TOP      0.030200
     10 C10        -2.5070   -1.3550    1.5740 ca        1 TOP     -0.029300
     11 C11        -3.0720   -1.9900    2.6840 ca        1 TOP     -0.230500
     12 C12        -3.5810   -3.2880    2.5600 ca        1 TOP      0.140600
     13 O13        -4.1240   -4.0070    3.6060 os        1 TOP     -0.312400
     14 C14        -4.4350   -3.2650    4.7810 c3        1 TOP      0.111200
     15 C15        -3.5280   -3.9660    1.3240 ca        1 TOP      0.038100
     16 O16        -4.1470   -5.1870    1.1410 os        1 TOP     -0.309900
     17 C17        -3.4400   -6.2820    1.7260 c3        1 TOP      0.114700
     18 C18        -2.9250   -3.3210    0.2220 ca        1 TOP      0.140600
     19 O19        -2.8690   -4.0650   -0.9360 os        1 TOP     -0.312400
     20 C20        -2.3880   -3.3890   -2.0940 c3        1 TOP      0.111200
     21 C21        -2.4290   -2.0170    0.3470 ca        1 TOP     -0.230500
     22 H1         -1.0510    1.5480   -0.3890 h4        1 TOP      0.022100
     23 HN41        3.4880    1.4840   -0.6150 hn        1 TOP      0.426300
     24 HN42        4.0350    0.4800    0.6280 hn        1 TOP      0.426300
     25 HN71        1.0190   -1.6710    3.4930 hn        1 TOP      0.420300
     26 HN72       -0.6330   -1.5540    3.1920 hn        1 TOP      0.420300
     27 H91        -2.6670    0.7060    1.0650 hc        1 TOP      0.058200
     28 H92        -2.1240    0.4010    2.7610 hc        1 TOP      0.058200
     29 H11        -3.1310   -1.4580    3.6450 ha        1 TOP      0.144500
     30 H141       -4.9810   -4.0070    5.4180 h1        1 TOP      0.046533
     31 H142       -5.0890   -2.3920    4.5430 h1        1 TOP      0.046533
     32 H143       -3.4980   -2.9270    5.2880 h1        1 TOP      0.046533
     33 H171       -2.4340   -6.3910    1.2530 h1        1 TOP      0.041367
     34 H172       -4.0860   -7.1650    1.4940 h1        1 TOP      0.041367
     35 H173       -3.3430   -6.1370    2.8290 h1        1 TOP      0.041367
     36 H201       -3.0150   -2.4930   -2.3200 h1        1 TOP      0.046533
     37 H202       -1.3180   -3.0970   -1.9630 h1        1 TOP      0.046533
     38 H203       -2.4910   -4.1590   -2.9010 h1        1 TOP      0.046533
     39 H21        -1.9700   -1.5050   -0.5110 ha        1 TOP      0.144500
@<TRIPOS>BOND
     1    1    2 ar  
     2    1    8 ar  
     3    1   22 1   
     4    2    3 ar  
     5    3    4 1   
     6    3    5 ar  
     7    4   23 1   
     8    4   24 1   
     9    5    6 ar  
    10    6    7 1   
    11    6    8 ar  
    12    7   25 1   
    13    7   26 1   
    14    8    9 1   
    15    9   10 1   
    16    9   27 1   
    17    9   28 1   
    18   10   11 ar  
    19   10   21 ar  
    20   11   12 ar  
    21   11   29 1   
    22   12   13 1   
    23   12   15 ar  
    24   13   14 1   
    25   14   30 1   
    26   14   31 1   
    27   14   32 1   
    28   15   16 1   
    29   15   18 ar  
    30   16   17 1   
    31   17   33 1   
    32   17   34 1   
    33   17   35 1   
    34   18   19 1   
    35   18   21 ar  
    36   19   20 1   
    37   20   36 1   
    38   20   37 1   
    39   20   38 1   
    40   21   39 1   
@<TRIPOS>SUBSTRUCTURE
     1 TOP         1 TEMP              0 ****  ****    0 ROOT
