@<TRIPOS>MOLECULE
TOP
   39    40     1     0     0
SMALL
bcc


@<TRIPOS>ATOM
      1 C1         -0.2350    0.9460    0.1560 ca        1 TOP      0.488200
      2 N2          1.0220    1.1540   -0.2550 nb        1 TOP     -0.781000
      3 C3          2.0190    0.5820    0.5350 ca        1 TOP      0.899900
      4 N4          3.3470    0.8640    0.2050 nv        1 TOP     -0.931500
      5 N5          1.7970   -0.2060    1.6490 nb        1 TOP     -0.821000
      6 C6          0.4940   -0.3720    2.0410 ca        1 TOP      0.716200
      7 N7          0.2380   -1.0650    3.2190 nv        1 TOP     -0.936500
      8 C8         -0.5910    0.2020    1.2920 ca        1 TOP     -0.427900
      9 C9         -2.0080    0.0630    1.6990 c3        1 TOP      0.031200
     10 C10        -2.5210   -1.3390    1.6220 ca        1 TOP     -0.029300
     11 C11        -3.0800   -1.9350    2.7550 ca        1 TOP     -0.230000
     12 C12        -3.5920   -3.2370    2.6780 ca        1 TOP      0.139100
     13 O13        -4.1260   -3.9210    3.7500 os        1 TOP     -0.312900
     14 C14        -4.4390   -3.1390    4.8970 c3        1 TOP      0.111200
     15 C15        -3.5630   -3.9480    1.4600 ca        1 TOP      0.039100
     16 O16        -4.2070   -5.1670    1.3720 os        1 TOP     -0.308900
     17 C17        -3.3180   -6.2800    1.2520 c3        1 TOP      0.114700
     18 C18        -2.9750   -3.3360    0.3310 ca        1 TOP      0.139100
     19 O19        -2.9370   -4.1130   -0.8080 os        1 TOP     -0.312900
     20 C20        -2.4830   -3.4670   -1.9940 c3        1 TOP      0.111200
     21 C21        -2.4610   -2.0370    0.4140 ca        1 TOP     -0.230000
     22 H1         -1.0170    1.4100   -0.4750 h4        1 TOP      0.021100
     23 HN41        4.0460    0.2870    0.6090 hn        1 TOP      0.428800
     24 HN42        3.5190    1.2030   -0.7120 hn        1 TOP      0.428800
     25 HN71       -0.6610   -1.4900    3.2750 hn        1 TOP      0.421300
     26 HN72        0.9870   -1.5840    3.6170 hn        1 TOP      0.421300
     27 H91        -2.1320    0.4580    2.7460 hc        1 TOP      0.059200
     28 H92        -2.6530    0.7040    1.0340 hc        1 TOP      0.059200
     29 H11        -3.1270   -1.3750    3.7000 ha        1 TOP      0.144000
     30 H141       -5.0960   -2.2770    4.6290 h1        1 TOP      0.046367
     31 H142       -3.5040   -2.7810    5.3920 h1        1 TOP      0.046367
     32 H143       -4.9830   -3.8610    5.5600 h1        1 TOP      0.046367
     33 H171       -2.6940   -6.1820    0.3310 h1        1 TOP      0.041700
     34 H172       -4.0070   -7.1570    1.1770 h1        1 TOP      0.041700
     35 H173       -2.6710   -6.3590    2.1590 h1        1 TOP      0.041700
     36 H201       -1.4080   -3.1790   -1.8960 h1        1 TOP      0.046367
     37 H202       -2.6110   -4.2540   -2.7800 h1        1 TOP      0.046367
     38 H203       -3.1100   -2.5720   -2.2240 h1        1 TOP      0.046367
     39 H21        -2.0070   -1.5530   -0.4630 ha        1 TOP      0.144000
@<TRIPOS>BOND
     1    1    2 ar  
     2    1    8 ar  
     3    1   22 1   
     4    2    3 ar  
     5    3    4 1   
     6    3    5 ar  
     7    4   23 1   
     8    4   24 1   
     9    5    6 ar  
    10    6    7 1   
    11    6    8 ar  
    12    7   25 1   
    13    7   26 1   
    14    8    9 1   
    15    9   10 1   
    16    9   27 1   
    17    9   28 1   
    18   10   11 ar  
    19   10   21 ar  
    20   11   12 ar  
    21   11   29 1   
    22   12   13 1   
    23   12   15 ar  
    24   13   14 1   
    25   14   30 1   
    26   14   31 1   
    27   14   32 1   
    28   15   16 1   
    29   15   18 ar  
    30   16   17 1   
    31   17   33 1   
    32   17   34 1   
    33   17   35 1   
    34   18   19 1   
    35   18   21 ar  
    36   19   20 1   
    37   20   36 1   
    38   20   37 1   
    39   20   38 1   
    40   21   39 1   
@<TRIPOS>SUBSTRUCTURE
     1 TOP         1 TEMP              0 ****  ****    0 ROOT
