@<TRIPOS>MOLECULE
TOP
   41    42     1     0     0
SMALL
bcc


@<TRIPOS>ATOM
      1 C1          0.2190    1.6440    0.6690 ca        1 TOP      0.478200
      2 N2          1.4130    2.1020    1.0400 nb        1 TOP     -0.606000
      3 C3          2.2610    1.1720    1.6220 ca        1 TOP      0.722900
      4 N4          3.5970    1.6790    2.0450 n4        1 TOP     -0.813300
      5 N5          1.9920   -0.1400    1.8430 nb        1 TOP     -0.654000
      6 C6          0.7500   -0.5720    1.4450 ca        1 TOP      0.502200
      7 N7          0.4460   -1.9910    1.7010 n4        1 TOP     -0.829300
      8 C8         -0.2050    0.2810    0.8410 ca        1 TOP     -0.156900
      9 C9         -1.5580   -0.0860    0.3570 c3        1 TOP     -0.023800
     10 C10        -2.1240   -1.3510    0.8960 ca        1 TOP     -0.152300
     11 C11        -2.3760   -1.4660    2.2660 ca        1 TOP     -0.231000
     12 C12        -2.9360   -2.6460    2.7860 ca        1 TOP      0.131100
     13 O13        -3.0090   -2.6730    4.1530 os        1 TOP     -0.322900
     14 C14        -4.0150   -3.4950    4.7600 c3        1 TOP      0.112700
     15 C15        -3.2800   -3.7160    1.9220 ca        1 TOP      0.076100
     16 O16        -3.7360   -4.8590    2.5190 os        1 TOP     -0.318900
     17 C17        -4.6600   -5.6750    1.7860 c3        1 TOP      0.115700
     18 C18        -3.0500   -3.5620    0.5320 ca        1 TOP      0.131100
     19 O19        -3.3810   -4.6330   -0.2590 os        1 TOP     -0.322900
     20 C20        -3.5290   -4.3840   -1.6600 c3        1 TOP      0.112700
     21 C21        -2.4590   -2.3930    0.0290 ca        1 TOP     -0.231000
     22 H1         -0.4660    2.3920    0.2030 h4        1 TOP      0.111100
     23 HN41        4.1640    0.9230    2.4570 hn        1 TOP      0.499800
     24 HN42        3.4660    2.4300    2.7420 hn        1 TOP      0.499800
     25 HN71       -0.2300   -2.0480    2.4930 hn        1 TOP      0.497467
     26 HN72       -0.0180   -2.3870    0.8630 hn        1 TOP      0.497467
     27 H91        -2.2720    0.7560    0.6130 hc        1 TOP      0.123700
     28 H92        -1.5180   -0.1270   -0.7740 hc        1 TOP      0.123700
     29 H11        -2.2180   -0.6190    2.9500 ha        1 TOP      0.160000
     30 H141       -3.6750   -4.5600    4.7590 h1        1 TOP      0.067533
     31 H142       -4.9910   -3.3890    4.2320 h1        1 TOP      0.067533
     32 H143       -4.0700   -3.0880    5.8030 h1        1 TOP      0.067533
     33 H171       -5.1240   -6.3050    2.5880 h1        1 TOP      0.069033
     34 H172       -4.0960   -6.3070    1.0570 h1        1 TOP      0.069033
     35 H173       -5.4240   -5.0520    1.2670 h1        1 TOP      0.069033
     36 H201       -2.5280   -4.2130   -2.1250 h1        1 TOP      0.067533
     37 H202       -3.9810   -5.3390   -2.0370 h1        1 TOP      0.067533
     38 H203       -4.2110   -3.5200   -1.8430 h1        1 TOP      0.067533
     39 H21        -2.3000   -2.2860   -1.0550 ha        1 TOP      0.160000
     40 H43         4.0860    2.0660    1.2210 hn        1 TOP      0.499800
     41 H73         1.2920   -2.5330    1.9240 hn        1 TOP      0.497467
@<TRIPOS>BOND
     1    1    2 ar  
     2    1    8 ar  
     3    1   22 1   
     4    2    3 ar  
     5    3    4 1   
     6    3    5 ar  
     7    4   23 1   
     8    4   24 1   
     9    4   40 1   
    10    5    6 ar  
    11    6    7 1   
    12    6    8 ar  
    13    7   25 1   
    14    7   26 1   
    15    7   41 1   
    16    8    9 1   
    17    9   10 1   
    18    9   27 1   
    19    9   28 1   
    20   10   11 ar  
    21   10   21 ar  
    22   11   12 ar  
    23   11   29 1   
    24   12   13 1   
    25   12   15 ar  
    26   13   14 1   
    27   14   30 1   
    28   14   31 1   
    29   14   32 1   
    30   15   16 1   
    31   15   18 ar  
    32   16   17 1   
    33   17   33 1   
    34   17   34 1   
    35   17   35 1   
    36   18   19 1   
    37   18   21 ar  
    38   19   20 1   
    39   20   36 1   
    40   20   37 1   
    41   20   38 1   
    42   21   39 1   
@<TRIPOS>SUBSTRUCTURE
     1 TOP         1 TEMP              0 ****  ****    0 ROOT
