@<TRIPOS>MOLECULE
TOP
   39    40     1     0     0
SMALL
bcc


@<TRIPOS>ATOM
      1 C1         -1.2690   -1.3100    3.0280 ca        1 TOP      0.488200
      2 N2         -1.7400   -0.6380    4.0860 nb        1 TOP     -0.781000
      3 C3         -0.9990    0.4780    4.4710 ca        1 TOP      0.899900
      4 N4         -1.3920    1.1450    5.6340 nh        1 TOP     -0.931500
      5 N5          0.1240    0.9530    3.8180 nb        1 TOP     -0.821000
      6 C6          0.5780    0.2180    2.7540 ca        1 TOP      0.716200
      7 N7          1.7660    0.6000    2.1420 nh        1 TOP     -0.936500
      8 C8         -0.1170   -0.9580    2.3070 ca        1 TOP     -0.427900
      9 C9          0.3570   -1.7890    1.1760 c3        1 TOP      0.031200
     10 C10         0.3040   -1.0920   -0.1450 ca        1 TOP     -0.029300
     11 C11         1.4630   -0.9860   -0.9200 ca        1 TOP     -0.230000
     12 C12         1.4100   -0.3630   -2.1730 ca        1 TOP      0.139100
     13 O13         2.5050   -0.1760   -2.9900 os        1 TOP     -0.312900
     14 C14         3.6670   -0.9300   -2.6590 c3        1 TOP      0.111200
     15 C15         0.1910    0.1450   -2.6710 ca        1 TOP      0.039100
     16 O16         0.1340    0.6190   -3.9670 os        1 TOP     -0.308900
     17 C17        -0.0290    2.0350   -4.0560 c3        1 TOP      0.114700
     18 C18        -0.9640    0.0470   -1.8640 ca        1 TOP      0.139100
     19 O19        -2.1050    0.6130   -2.3960 os        1 TOP     -0.312900
     20 C20        -3.3100    0.3980   -1.6680 c3        1 TOP      0.111200
     21 C21        -0.9060   -0.5720   -0.6110 ca        1 TOP     -0.230000
     22 H1         -1.8610   -2.1990    2.7360 h4        1 TOP      0.021100
     23 HN41       -2.3160    0.9790    5.9560 hn        1 TOP      0.428800
     24 HN42       -1.0230    2.0550    5.7810 hn        1 TOP      0.428800
     25 HN71        2.1270    1.5000    2.3650 hn        1 TOP      0.421300
     26 HN72        1.8650    0.3180    1.1930 hn        1 TOP      0.421300
     27 H91        -0.2760   -2.7180    1.1020 hc        1 TOP      0.059200
     28 H92         1.4100   -2.1310    1.3850 hc        1 TOP      0.059200
     29 H11         2.4090   -1.4030   -0.5470 ha        1 TOP      0.144000
     30 H141        4.3540   -0.7360   -3.5210 h1        1 TOP      0.046367
     31 H142        4.1160   -0.5550   -1.7070 h1        1 TOP      0.046367
     32 H143        3.4310   -2.0180   -2.5790 h1        1 TOP      0.046367
     33 H171       -0.0710    2.2240   -5.1580 h1        1 TOP      0.041700
     34 H172       -0.9790    2.3490   -3.5600 h1        1 TOP      0.041700
     35 H173        0.8460    2.5560   -3.5980 h1        1 TOP      0.041700
     36 H201       -4.0900    0.8710   -2.3180 h1        1 TOP      0.046367
     37 H202       -3.5100   -0.6940   -1.5440 h1        1 TOP      0.046367
     38 H203       -3.2640    0.9060   -0.6740 h1        1 TOP      0.046367
     39 H21        -1.8030   -0.6570    0.0190 ha        1 TOP      0.144000
@<TRIPOS>BOND
     1    1    2 ar  
     2    1    8 ar  
     3    1   22 1   
     4    2    3 ar  
     5    3    4 1   
     6    3    5 ar  
     7    4   23 1   
     8    4   24 1   
     9    5    6 ar  
    10    6    7 1   
    11    6    8 ar  
    12    7   25 1   
    13    7   26 1   
    14    8    9 1   
    15    9   10 1   
    16    9   27 1   
    17    9   28 1   
    18   10   11 ar  
    19   10   21 ar  
    20   11   12 ar  
    21   11   29 1   
    22   12   13 1   
    23   12   15 ar  
    24   13   14 1   
    25   14   30 1   
    26   14   31 1   
    27   14   32 1   
    28   15   16 1   
    29   15   18 ar  
    30   16   17 1   
    31   17   33 1   
    32   17   34 1   
    33   17   35 1   
    34   18   19 1   
    35   18   21 ar  
    36   19   20 1   
    37   20   36 1   
    38   20   37 1   
    39   20   38 1   
    40   21   39 1   
@<TRIPOS>SUBSTRUCTURE
     1 TOP         1 TEMP              0 ****  ****    0 ROOT
