@<TRIPOS>MOLECULE
TOQ
   28    29     1     0     0
SMALL
bcc


@<TRIPOS>ATOM
      1 C           4.1530   -0.0810   -0.2760 c         1 TOQ      0.885600
      2 N           2.1530   -1.5400   -0.8440 n3        1 TOQ     -0.886800
      3 O           4.8600   -1.1110   -0.4680 o         1 TOQ     -0.842800
      4 O6         -4.6560   -1.1870    0.1590 oh        1 TOQ     -0.533100
      5 O7         -4.0730    1.5010   -0.2410 oh        1 TOQ     -0.514100
      6 CA          2.6070   -0.1980   -0.5030 c3        1 TOQ      0.022500
      7 CB          1.8970    0.3830    0.7280 c3        1 TOQ     -0.012200
      8 CG          0.5380    0.8680    0.4480 cc        1 TOQ     -0.071400
      9 CD1         0.1820    2.1880    0.1710 cd        1 TOQ     -0.138100
     10 CD2        -0.6880    0.0930    0.4300 ca        1 TOQ     -0.078800
     11 NE1        -1.2100    2.3020    0.0230 na        1 TOQ     -0.184400
     12 CE2        -1.7550    1.0250    0.1370 ca        1 TOQ     -0.051200
     13 CE3        -0.9780   -1.2600    0.6160 ca        1 TOQ     -0.049000
     14 CH2        -3.3310   -0.7850    0.2430 ca        1 TOQ      0.033100
     15 CZ2        -3.0860    0.5770    0.0380 ca        1 TOQ      0.073100
     16 CZ3        -2.2900   -1.6940    0.5250 ca        1 TOQ     -0.211000
     17 OXT         4.6100    1.0460    0.0640 o         1 TOQ     -0.842800
     18 HN          2.7540   -1.8770   -1.5780 hn        1 TOQ      0.328800
     19 HNA         2.3200   -2.1390   -0.0530 hn        1 TOQ      0.328800
     20 HO6        -4.6520   -2.1460    0.0340 ho        1 TOQ      0.417000
     21 HO7        -4.8960    1.0060   -0.3710 ho        1 TOQ      0.426000
     22 HA          2.3700    0.4600   -1.3880 h1        1 TOQ      0.045700
     23 HB          1.8560   -0.3840    1.5480 hc        1 TOQ      0.058700
     24 HBA         2.5320    1.2390    1.0930 hc        1 TOQ      0.058700
     25 HD1         0.8230    3.0670    0.0860 h4        1 TOQ      0.170000
     26 HE3        -0.1560   -1.9670    0.8110 ha        1 TOQ      0.155000
     27 HZ3        -2.5360   -2.7560    0.6640 ha        1 TOQ      0.121000
     28 HNE1       -1.6890    3.0740   -0.3560 hn        1 TOQ      0.291700
@<TRIPOS>BOND
     1    1    3 1   
     2    1    6 1   
     3    1   17 1   
     4    2    6 1   
     5    2   18 1   
     6    2   19 1   
     7    4   14 1   
     8    4   20 1   
     9    5   15 1   
    10    5   21 1   
    11    6    7 1   
    12    6   22 1   
    13    7    8 1   
    14    7   23 1   
    15    7   24 1   
    16    8    9 2   
    17    8   10 1   
    18    9   11 1   
    19    9   25 1   
    20   10   12 ar  
    21   10   13 ar  
    22   11   12 1   
    23   11   28 1   
    24   12   15 ar  
    25   13   16 ar  
    26   13   26 1   
    27   14   15 ar  
    28   14   16 ar  
    29   16   27 1   
@<TRIPOS>SUBSTRUCTURE
     1 TOQ         1 TEMP              0 ****  ****    0 ROOT
