@<TRIPOS>MOLECULE
TOQ
   28    24     1     0     0
SMALL
bcc


@<TRIPOS>ATOM
      1 C           1.9680   -3.2140   -0.9800 c1        1 TOQ      0.304000
      2 N           0.8320   -3.6300    1.0890 n3        1 TOQ     -0.323000
      3 O           3.1570   -3.4100   -0.6170 o         1 TOQ     -0.589000
      4 O6         -3.0530    3.7190    0.7460 oh        1 TOQ     -0.288000
      5 O7         -0.5820    4.1610   -0.4770 oh        1 TOQ     -0.266000
      6 CA          0.9490   -2.7050    0.0130 c3        1 TOQ     -0.123000
      7 CB          1.3940   -1.3640    0.5490 c3        1 TOQ     -0.075000
      8 CG          0.6550   -0.2610   -0.1770 c2        1 TOQ     -0.141000
      9 CD1         1.5890    0.4540   -0.9010 c1        1 TOQ     -0.056000
     10 CD2        -0.4080    0.5750    0.0870 c1        1 TOQ     -0.068000
     11 NE1         1.1050    1.7200   -1.0830 n2        1 TOQ     -0.204000
     12 CE2        -0.1330    1.7980   -0.4710 c1        1 TOQ     -0.018000
     13 CE3        -1.6220    0.3690    0.7660 c1        1 TOQ     -0.081000
     14 CH2        -2.2630    2.6410    0.3070 c2        1 TOQ     -0.029000
     15 CZ2        -1.0660    2.8440   -0.3630 c2        1 TOQ      0.042000
     16 CZ3        -2.5420    1.4030    0.8720 c2        1 TOQ     -0.204000
     17 OXT         1.6230   -3.4590   -2.1660 os        1 TOQ     -0.570000
     18 HN          0.0820   -3.4360    1.5780 hn        1 TOQ      0.126500
     19 HNA         0.7670   -4.4810    0.7540 hn        1 TOQ      0.126500
     20 HO6        -3.8780    3.6330    0.4250 ho        1 TOQ      0.213000
     21 HO7        -0.9710    4.5600   -1.1700 ho        1 TOQ      0.225000
     22 HA          0.0830   -2.6080   -0.4290 h1        1 TOQ      0.087000
     23 HB          1.1980   -1.3140    1.5050 hc        1 TOQ      0.082000
     24 HBA         2.3570   -1.2600    0.4070 hc        1 TOQ      0.082000
     25 HD1         2.4380    0.1110   -1.2380 DU        1 TOQ      0.210000
     26 HE3        -1.8090   -0.4940    1.1800 DU        1 TOQ      0.210000
     27 HZ3        -3.3940    1.2530    1.3230 ha        1 TOQ      0.117000
     28 HNE1        1.5250    2.3950   -1.5290 DU        1 TOQ      0.210000
@<TRIPOS>BOND
     1    1    3 1   
     2    1    6 1   
     3    2    6 1   
     4    2   18 1   
     5    2   19 1   
     6    4   14 1   
     7    4   20 1   
     8    5   15 1   
     9    5   21 1   
    10    6    7 1   
    11    6   22 1   
    12    7    8 1   
    13    7   23 1   
    14    7   24 1   
    15    8    9 1   
    16    8   10 1   
    17    9   11 1   
    18   10   13 1   
    19   11   12 1   
    20   12   15 1   
    21   13   16 1   
    22   14   15 1   
    23   14   16 1   
    24   16   27 1   
@<TRIPOS>SUBSTRUCTURE
     1 TOQ         1 TEMP              0 ****  ****    0 ROOT
