@<TRIPOS>MOLECULE
TOR
   43    45     1     0     0
SMALL
bcc


@<TRIPOS>ATOM
      1 CAT         0.3180    3.5000    1.7730 c3        1 TOR     -0.107600
      2 CAU         0.1100    2.8780    0.4010 c3        1 TOR      0.346600
      3 CAV        -0.6200    3.8140   -0.5520 c3        1 TOR     -0.107600
      4 OAR        -0.6150    1.6500    0.5410 os        1 TOR     -0.439600
      5 OAQ         1.3870    2.5110   -0.1450 os        1 TOR     -0.438600
      6 CAK         1.3250    1.2060   -0.7310 c3        1 TOR      0.095100
      7 CAG         2.5940    0.4550   -0.3250 c3        1 TOR      0.130100
      8 OAF         2.9050   -0.5030   -1.3400 os        1 TOR     -0.437600
      9 CAE         2.9520   -1.8340   -0.8000 c3        1 TOR      0.348600
     10 CAD         4.2890   -2.4640   -1.1660 c3        1 TOR     -0.112600
     11 CAJ         1.7720   -2.6500   -1.3040 c3        1 TOR     -0.112600
     12 OAA         2.8910   -1.6790    0.6250 os        1 TOR     -0.433600
     13 CAB         2.5160   -0.3460    0.9810 c3        1 TOR      0.099100
     14 CAC         1.1390   -0.3380    1.6320 c3        1 TOR      0.116400
     15 OAH         0.0920   -0.4610    0.6760 os        1 TOR     -0.431600
     16 CAL        -0.0140    0.6140   -0.2330 c3        1 TOR      0.283600
     17 CAM        -0.9190    0.1560   -1.3950 c3        1 TOR      0.206400
     18 OAN        -2.2000   -0.1940   -0.9750 os        1 TOR     -0.556500
     19 SAO        -2.6270   -1.7430   -0.4320 s6        1 TOR      1.723400
     20 OAS        -3.9530   -1.8440   -0.8360 o         1 TOR     -0.657300
     21 OAI        -1.6510   -2.5440   -1.0150 o         1 TOR     -0.657300
     22 NAP        -2.5100   -1.6670    1.1400 n3        1 TOR     -1.026700
     23 HAT        -0.6740    3.7460    2.2170 hc        1 TOR      0.055033
     24 HATA        0.8540    2.7890    2.4440 hc        1 TOR      0.055033
     25 HATB        0.9250    4.4300    1.6650 hc        1 TOR      0.055033
     26 HAV        -0.0240    4.7470   -0.6850 hc        1 TOR      0.055033
     27 HAVA       -0.7560    3.3220   -1.5440 hc        1 TOR      0.055033
     28 HAVB       -1.6220    4.0640   -0.1310 hc        1 TOR      0.055033
     29 HAK         1.3140    1.3280   -1.8490 h1        1 TOR      0.090700
     30 HAG         3.4480    1.1890   -0.3050 h1        1 TOR      0.092700
     31 HAD         5.1280   -1.8020   -0.8490 hc        1 TOR      0.057867
     32 HADA        4.3830   -3.4490   -0.6510 hc        1 TOR      0.057867
     33 HADB        4.3340   -2.6100   -2.2710 hc        1 TOR      0.057867
     34 HAJ         1.7270   -2.5890   -2.4170 hc        1 TOR      0.057867
     35 HAJA        1.8980   -3.7140   -0.9950 hc        1 TOR      0.057867
     36 HAJB        0.8120   -2.2650   -0.8780 hc        1 TOR      0.057867
     37 HAB         3.2830   -0.0030    1.7280 h1        1 TOR      0.083700
     38 HAC         1.0080   -1.2430    2.2840 h1        1 TOR      0.073200
     39 HACA        1.0030    0.6070    2.2210 h1        1 TOR      0.073200
     40 HAM        -1.0560    1.0260   -2.0950 h1        1 TOR      0.076200
     41 HAMA       -0.4140   -0.7060   -1.9150 h1        1 TOR      0.076200
     42 HNAP       -3.2820   -1.5260    1.7440 hn        1 TOR      0.462300
     43 HNAA       -1.6400   -1.6050    1.6170 hn        1 TOR      0.462300
@<TRIPOS>BOND
     1    1    2 1   
     2    1   23 1   
     3    1   24 1   
     4    1   25 1   
     5    2    3 1   
     6    2    4 1   
     7    2    5 1   
     8    3   26 1   
     9    3   27 1   
    10    3   28 1   
    11    4   16 1   
    12    5    6 1   
    13    6    7 1   
    14    6   16 1   
    15    6   29 1   
    16    7    8 1   
    17    7   13 1   
    18    7   30 1   
    19    8    9 1   
    20    9   10 1   
    21    9   11 1   
    22    9   12 1   
    23   10   31 1   
    24   10   32 1   
    25   10   33 1   
    26   11   34 1   
    27   11   35 1   
    28   11   36 1   
    29   12   13 1   
    30   13   14 1   
    31   13   37 1   
    32   14   15 1   
    33   14   38 1   
    34   14   39 1   
    35   15   16 1   
    36   16   17 1   
    37   17   18 1   
    38   17   40 1   
    39   17   41 1   
    40   18   19 1   
    41   19   20 2   
    42   19   21 2   
    43   19   22 1   
    44   22   42 1   
    45   22   43 1   
@<TRIPOS>SUBSTRUCTURE
     1 TOR         1 TEMP              0 ****  ****    0 ROOT
