@<TRIPOS>MOLECULE
TOR
   43    45     1     0     0
SMALL
bcc


@<TRIPOS>ATOM
      1 CAT         0.3560   -0.9640    0.9620 c3        1 TOR     -0.114600
      2 CAU         1.5950   -0.3440    0.3310 c3        1 TOR      0.350600
      3 CAV         2.3410   -1.3290   -0.5590 c3        1 TOR     -0.114600
      4 OAR         2.4620    0.1400    1.3640 os        1 TOR     -0.452600
      5 OAQ         1.2110    0.8080   -0.4380 os        1 TOR     -0.440600
      6 CAK         1.9460    1.9680   -0.0410 c3        1 TOR      0.094100
      7 CAG         0.9420    3.0860    0.2490 c3        1 TOR      0.124100
      8 OAF         1.5410    4.3420   -0.0880 os        1 TOR     -0.439600
      9 CAE         1.5910    5.2110    1.0540 c3        1 TOR      0.349600
     10 CAD         1.0080    6.5630    0.6690 c3        1 TOR     -0.113600
     11 CAJ         3.0170    5.3230    1.5720 c3        1 TOR     -0.113600
     12 OAA         0.7420    4.6040    2.0360 os        1 TOR     -0.432600
     13 CAB         0.4810    3.2350    1.7060 c3        1 TOR      0.095100
     14 CAC         1.1860    2.3060    2.6870 c3        1 TOR      0.106400
     15 OAH         2.5640    2.1390    2.3780 os        1 TOR     -0.375600
     16 CAL         2.8170    1.5050    1.1490 c3        1 TOR      0.290600
     17 CAM         4.3250    1.6410    0.8560 c3        1 TOR      0.210400
     18 OAN         5.1050    1.0900    1.8750 os        1 TOR     -0.563500
     19 SAO         5.7030   -0.4950    1.8490 s6        1 TOR      1.724400
     20 OAS         5.1740   -1.1110    2.9700 o         1 TOR     -0.653800
     21 OAI         5.4060   -0.9240    0.5560 o         1 TOR     -0.653800
     22 NAP         7.2650   -0.2650    2.0190 n3        1 TOR     -1.028700
     23 HAT        -0.2310   -1.4920    0.1750 hc        1 TOR      0.058033
     24 HATA       -0.2830   -0.1760    1.4250 hc        1 TOR      0.058033
     25 HATB        0.6720   -1.6890    1.7490 hc        1 TOR      0.058033
     26 HAV         1.8230   -1.4010   -1.5450 hc        1 TOR      0.058033
     27 HAVA        2.3580   -2.3310   -0.0710 hc        1 TOR      0.058033
     28 HAVB        3.3950   -0.9910   -0.7150 hc        1 TOR      0.058033
     29 HAK         2.5850    2.2730   -0.9160 h1        1 TOR      0.090700
     30 HAG         0.0650    2.9590   -0.4450 h1        1 TOR      0.091700
     31 HAD         0.9470    7.2080    1.5770 hc        1 TOR      0.055367
     32 HADA       -0.0140    6.4330    0.2420 hc        1 TOR      0.055367
     33 HADB        1.6660    7.0430   -0.0920 hc        1 TOR      0.055367
     34 HAJ         3.6880    5.6550    0.7450 hc        1 TOR      0.055367
     35 HAJA        3.3630    4.3310    1.9550 hc        1 TOR      0.055367
     36 HAJB        3.0520    6.0640    2.4040 hc        1 TOR      0.055367
     37 HAB        -0.6310    3.1110    1.8040 h1        1 TOR      0.082700
     38 HAC         0.6750    1.3070    2.7000 h1        1 TOR      0.077200
     39 HACA        1.2010    2.7590    3.7150 h1        1 TOR      0.077200
     40 HAM         4.5830    2.7350    0.8250 h1        1 TOR      0.069200
     41 HAMA        4.5380    1.1420   -0.1290 h1        1 TOR      0.069200
     42 HNAP        7.7190   -0.2200    2.8990 hn        1 TOR      0.455800
     43 HNAA        7.8840   -0.0840    1.2680 hn        1 TOR      0.455800
@<TRIPOS>BOND
     1    1    2 1   
     2    1   23 1   
     3    1   24 1   
     4    1   25 1   
     5    2    3 1   
     6    2    4 1   
     7    2    5 1   
     8    3   26 1   
     9    3   27 1   
    10    3   28 1   
    11    4   16 1   
    12    5    6 1   
    13    6    7 1   
    14    6   16 1   
    15    6   29 1   
    16    7    8 1   
    17    7   13 1   
    18    7   30 1   
    19    8    9 1   
    20    9   10 1   
    21    9   11 1   
    22    9   12 1   
    23   10   31 1   
    24   10   32 1   
    25   10   33 1   
    26   11   34 1   
    27   11   35 1   
    28   11   36 1   
    29   12   13 1   
    30   13   14 1   
    31   13   37 1   
    32   14   15 1   
    33   14   38 1   
    34   14   39 1   
    35   15   16 1   
    36   16   17 1   
    37   17   18 1   
    38   17   40 1   
    39   17   41 1   
    40   18   19 1   
    41   19   20 2   
    42   19   21 2   
    43   19   22 1   
    44   22   42 1   
    45   22   43 1   
@<TRIPOS>SUBSTRUCTURE
     1 TOR         1 TEMP              0 ****  ****    0 ROOT
