@<TRIPOS>MOLECULE
TOS
   18    18     1     0     0
SMALL
bcc


@<TRIPOS>ATOM
      1 S           0.3030    0.0570   -0.1700 sx        1 TOS      0.633500
      2 O1S         0.8690    0.0520    1.1850 o         1 TOS     -0.535200
      3 O2S        -1.1700   -0.6950    0.2240 oh        1 TOS     -0.594800
      4 C1         -0.1860    1.6480   -0.5080 ca        1 TOS     -0.194500
      5 C2         -0.9680    1.8900   -1.6430 ca        1 TOS     -0.037500
      6 C3         -1.3240    3.1870   -1.9990 ca        1 TOS     -0.155000
      7 C4         -0.9040    4.2730   -1.2200 ca        1 TOS     -0.026300
      8 C5         -0.1270    4.0350   -0.0790 ca        1 TOS     -0.155000
      9 C6          0.2190    2.7350    0.2740 ca        1 TOS     -0.037500
     10 C          -1.2920    5.6530   -1.5900 c3        1 TOS     -0.064800
     11 HOS2       -1.3130   -0.7420    1.1720 ho        1 TOS      0.449000
     12 H2         -1.3140    1.0420   -2.2560 ha        1 TOS      0.146500
     13 H3         -1.9400    3.3630   -2.8940 ha        1 TOS      0.137500
     14 H5          0.2050    4.8800    0.5420 ha        1 TOS      0.137500
     15 H6          0.8180    2.5470    1.1830 ha        1 TOS      0.146500
     16 H1         -2.2790    5.9050   -1.1240 hc        1 TOS      0.050367
     17 H2A        -1.3920    5.7580   -2.6980 hc        1 TOS      0.050367
     18 H3A        -0.5370    6.3940   -1.2290 hc        1 TOS      0.050367
@<TRIPOS>BOND
     1    1    2 2   
     2    1    3 1   
     3    1    4 1   
     4    3   11 1   
     5    4    5 ar  
     6    4    9 ar  
     7    5    6 ar  
     8    5   12 1   
     9    6    7 ar  
    10    6   13 1   
    11    7    8 ar  
    12    7   10 1   
    13    8    9 ar  
    14    8   14 1   
    15    9   15 1   
    16   10   16 1   
    17   10   17 1   
    18   10   18 1   
@<TRIPOS>SUBSTRUCTURE
     1 TOS         1 TEMP              0 ****  ****    0 ROOT
