@<TRIPOS>MOLECULE
TOS
   18    18     1     0     0
SMALL
bcc


@<TRIPOS>ATOM
      1 S           0.4720    0.1470   -0.0540 sx        1 TOS      0.633500
      2 O1S         0.9350    0.1990    1.3370 o         1 TOS     -0.535200
      3 O2S        -0.9650   -0.7120    0.2440 oh        1 TOS     -0.594800
      4 C1         -0.1110    1.6920   -0.4530 ca        1 TOS     -0.194500
      5 C2         -0.8230    1.8620   -1.6450 ca        1 TOS     -0.037500
      6 C3         -1.2490    3.1230   -2.0460 ca        1 TOS     -0.155000
      7 C4         -0.9700    4.2470   -1.2570 ca        1 TOS     -0.026300
      8 C5         -0.2630    4.0810   -0.0590 ca        1 TOS     -0.155000
      9 C6          0.1540    2.8140    0.3390 ca        1 TOS     -0.037500
     10 C          -1.4330    5.5890   -1.6750 c3        1 TOS     -0.064800
     11 HOS2       -1.1740   -0.7590    1.1790 ho        1 TOS      0.449000
     12 H2         -1.0590    0.9830   -2.2670 ha        1 TOS      0.146500
     13 H3         -1.8090    3.2420   -2.9860 ha        1 TOS      0.137500
     14 H5         -0.0410    4.9560    0.5700 ha        1 TOS      0.137500
     15 H6          0.6970    2.6830    1.2920 ha        1 TOS      0.146500
     16 H1         -2.4610    5.7770   -1.2720 hc        1 TOS      0.050367
     17 H2A        -1.4750    5.6700   -2.7890 hc        1 TOS      0.050367
     18 H3A        -0.7540    6.3880   -1.2860 hc        1 TOS      0.050367
@<TRIPOS>BOND
     1    1    2 2   
     2    1    3 1   
     3    1    4 1   
     4    3   11 1   
     5    4    5 ar  
     6    4    9 ar  
     7    5    6 ar  
     8    5   12 1   
     9    6    7 ar  
    10    6   13 1   
    11    7    8 ar  
    12    7   10 1   
    13    8    9 ar  
    14    8   14 1   
    15    9   15 1   
    16   10   16 1   
    17   10   17 1   
    18   10   18 1   
@<TRIPOS>SUBSTRUCTURE
     1 TOS         1 TEMP              0 ****  ****    0 ROOT
