@<TRIPOS>MOLECULE
TOS
   18    18     1     0     0
SMALL
bcc


@<TRIPOS>ATOM
      1 S           1.9920   -0.3680   -0.3660 sx        1 TOS      0.633500
      2 O1S         2.5760    0.9070   -0.8000 o         1 TOS     -0.535200
      3 O2S         2.5130   -0.2880    1.2510 oh        1 TOS     -0.594800
      4 C1          0.3170   -0.1320   -0.2130 ca        1 TOS     -0.194500
      5 C2         -0.4540   -1.1220    0.4070 ca        1 TOS     -0.037500
      6 C3         -1.8380   -1.0040    0.4820 ca        1 TOS     -0.155000
      7 C4         -2.4810    0.1140   -0.0650 ca        1 TOS     -0.026300
      8 C5         -1.7140    1.1100   -0.6810 ca        1 TOS     -0.155000
      9 C6         -0.3290    0.9880   -0.7460 ca        1 TOS     -0.037500
     10 C          -3.9530    0.2480    0.0250 c3        1 TOS     -0.064800
     11 HOS2        2.8510    0.5790    1.4820 ho        1 TOS      0.449000
     12 H2          0.0440   -2.0000    0.8520 ha        1 TOS      0.146500
     13 H3         -2.4310   -1.7900    0.9740 ha        1 TOS      0.137500
     14 H5         -2.2090    1.9940   -1.1100 ha        1 TOS      0.137500
     15 H6          0.2760    1.7830   -1.2170 ha        1 TOS      0.146500
     16 H1         -4.2270    0.7720    0.9760 hc        1 TOS      0.050367
     17 H2A        -4.3550    0.8450   -0.8310 hc        1 TOS      0.050367
     18 H3A        -4.4480   -0.7540    0.0230 hc        1 TOS      0.050367
@<TRIPOS>BOND
     1    1    2 2   
     2    1    3 1   
     3    1    4 1   
     4    3   11 1   
     5    4    5 ar  
     6    4    9 ar  
     7    5    6 ar  
     8    5   12 1   
     9    6    7 ar  
    10    6   13 1   
    11    7    8 ar  
    12    7   10 1   
    13    8    9 ar  
    14    8   14 1   
    15    9   15 1   
    16   10   16 1   
    17   10   17 1   
    18   10   18 1   
@<TRIPOS>SUBSTRUCTURE
     1 TOS         1 TEMP              0 ****  ****    0 ROOT
