@<TRIPOS>MOLECULE
TOU
   10     9     1     0     0
SMALL
bcc


@<TRIPOS>ATOM
      1 C           0.1650    0.0000   -0.0000 c         1 TOU     -0.074600
      2 S           1.6670    0.0000   -0.0000 s         1 TOU      0.463600
      3 N1         -0.6750    0.0370    1.2450 n4        1 TOU     -0.698400
      4 N2         -0.6760   -0.0360   -1.2450 n4        1 TOU     -0.698400
      5 HN11       -0.0300    0.0610    2.0610 hn        1 TOU      0.501133
      6 HN12       -1.2750   -0.8000    1.3380 hn        1 TOU      0.501133
      7 HN21       -1.2750   -0.8760   -1.2880 hn        1 TOU      0.501133
      8 HN22       -0.0310   -0.0600   -2.0610 hn        1 TOU      0.501133
      9 H13        -1.2750    0.8770    1.2890 hn        1 TOU      0.501133
     10 H23        -1.2750    0.8000   -1.3370 hn        1 TOU      0.501133
@<TRIPOS>BOND
     1    1    2 2   
     2    1    3 1   
     3    1    4 1   
     4    3    5 1   
     5    3    6 1   
     6    3    9 1   
     7    4    7 1   
     8    4    8 1   
     9    4   10 1   
@<TRIPOS>SUBSTRUCTURE
     1 TOU         1 TEMP              0 ****  ****    0 ROOT
