@<TRIPOS>MOLECULE
TOU
   10     9     1     0     0
SMALL
bcc


@<TRIPOS>ATOM
      1 C           0.1640    0.0060   -0.0080 c         1 TOU     -0.074600
      2 S           1.6660    0.0210   -0.0270 s         1 TOU      0.463600
      3 N1         -0.6600    0.0320    1.2470 nz        1 TOU     -0.698400
      4 N2         -0.6910   -0.0350   -1.2420 nz        1 TOU     -0.698400
      5 HN11       -0.0060    0.0600    2.0560 hn        1 TOU      0.501133
      6 HN12       -1.2500   -0.8110    1.3460 hn        1 TOU      0.501133
      7 HN21       -1.2820   -0.8810   -1.2800 hn        1 TOU      0.501133
      8 HN22       -0.0560   -0.0510   -2.0670 hn        1 TOU      0.501133
      9 H13        -1.2680    0.8660    1.3010 hn        1 TOU      0.501133
     10 H23        -1.3000    0.7950   -1.3250 hn        1 TOU      0.501133
@<TRIPOS>BOND
     1    1    2 2   
     2    1    3 1   
     3    1    4 1   
     4    3    5 1   
     5    3    6 1   
     6    3    9 1   
     7    4    7 1   
     8    4    8 1   
     9    4   10 1   
@<TRIPOS>SUBSTRUCTURE
     1 TOU         1 TEMP              0 ****  ****    0 ROOT
