@<TRIPOS>MOLECULE
TOU
    8     7     1     0     0
SMALL
bcc


@<TRIPOS>ATOM
      1 C           0.4040   -0.0000   -0.0010 c         1 TOU      0.597400
      2 S          -1.2260   -0.0000   -0.0010 s         1 TOU     -0.616400
      3 N1          1.1020   -1.1870    0.0000 n         1 TOU     -0.639000
      4 N2          1.1020    1.1870   -0.0010 n         1 TOU     -0.639000
      5 HN11        2.0880   -1.2400    0.0000 hn        1 TOU      0.324500
      6 HN12        0.5690   -2.0240    0.0010 hn        1 TOU      0.324500
      7 HN21        2.0880    1.2400   -0.0010 hn        1 TOU      0.324500
      8 HN22        0.5690    2.0240   -0.0020 hn        1 TOU      0.324500
@<TRIPOS>BOND
     1    1    2 2   
     2    1    3 1   
     3    1    4 1   
     4    3    5 1   
     5    3    6 1   
     6    4    7 1   
     7    4    8 1   
@<TRIPOS>SUBSTRUCTURE
     1 TOU         1 TEMP              0 ****  ****    0 ROOT
