@<TRIPOS>MOLECULE
TOU
   10     9     1     0     0
SMALL
bcc


@<TRIPOS>ATOM
      1 C           0.1650   -0.0030   -0.0010 c         1 TOU     -0.074600
      2 S           1.6670   -0.0090   -0.0020 s         1 TOU      0.463600
      3 N1         -0.6740    0.0120    1.2460 n4        1 TOU     -0.698400
      4 N2         -0.6770   -0.0110   -1.2450 n4        1 TOU     -0.698400
      5 HN11       -1.2700    0.8540    1.3070 hn        1 TOU      0.501133
      6 HN12       -0.0290    0.0170    2.0620 hn        1 TOU      0.501133
      7 HN21       -1.2800   -0.8470   -1.3050 hn        1 TOU      0.501133
      8 HN22       -1.2720    0.8300   -1.3210 hn        1 TOU      0.501133
      9 H13        -1.2770   -0.8240    1.3220 hn        1 TOU      0.501133
     10 H23        -0.0330   -0.0220   -2.0620 hn        1 TOU      0.501133
@<TRIPOS>BOND
     1    1    2 2   
     2    1    3 1   
     3    1    4 1   
     4    3    5 1   
     5    3    6 1   
     6    3    9 1   
     7    4    7 1   
     8    4    8 1   
     9    4   10 1   
@<TRIPOS>SUBSTRUCTURE
     1 TOU         1 TEMP              0 ****  ****    0 ROOT
