@<TRIPOS>MOLECULE
TOX
   28    29     1     0     0
SMALL
bcc


@<TRIPOS>ATOM
      1 N          -2.1560    1.0270   -1.2380 n3        1 TOX     -0.887800
      2 CA         -2.2550   -0.2180   -0.4890 c3        1 TOX      0.022500
      3 CB         -1.4930   -0.1770    0.8440 c3        1 TOX     -0.027200
      4 CG         -0.0360   -0.2910    0.6790 cc        1 TOX     -0.009400
      5 CD1         0.7140   -1.4410    0.7650 cd        1 TOX     -0.213100
      6 NE1         2.1390   -1.1590    0.7090 na        1 TOX      0.045500
      7 CE2         2.2160    0.2450    0.3640 ca        1 TOX     -0.085200
      8 CD2         0.8960    0.8150    0.4210 ca        1 TOX     -0.061800
      9 CE3         0.7220    2.1770    0.2370 ca        1 TOX     -0.072000
     10 CZ3         1.8480    2.9670   -0.0130 ca        1 TOX     -0.150000
     11 CH2         3.1250    2.4080   -0.0750 ca        1 TOX     -0.136000
     12 CZ2         3.3300    1.0380    0.1130 ca        1 TOX     -0.113000
     13 C          -3.7240   -0.6810   -0.1930 c         1 TOX      0.887600
     14 O          -4.6670    0.0120   -0.6680 o         1 TOX     -0.838300
     15 O2          2.7350   -2.1330   -1.2280 oh        1 TOX     -0.425000
     16 O1          2.9070   -2.0330    0.0580 os        1 TOX     -0.047200
     17 H1         -2.7410    0.9310   -2.0510 hn        1 TOX      0.331300
     18 H2         -2.5680    1.7600   -0.6840 hn        1 TOX      0.331300
     19 H4         -1.7960   -1.0250   -1.1320 h1        1 TOX      0.044700
     20 H5         -1.7340    0.7690    1.3980 hc        1 TOX      0.065700
     21 H6         -1.8730   -1.0430    1.4580 hc        1 TOX      0.065700
     22 H7          0.3910   -2.4680    0.9380 h4        1 TOX      0.175000
     23 H8         -0.2870    2.6150    0.2660 ha        1 TOX      0.153000
     24 H9          1.7210    4.0480   -0.1710 ha        1 TOX      0.121000
     25 H10         3.9900    3.0540   -0.2830 ha        1 TOX      0.118000
     26 H11         4.3360    0.6010    0.0550 ha        1 TOX      0.137000
     27 H13         2.0050   -2.7690   -1.4010 ho        1 TOX      0.402000
     28 OXT        -3.8740   -1.7320    0.4870 o         1 TOX     -0.838300
@<TRIPOS>BOND
     1    1    2 1   
     2    1   17 1   
     3    1   18 1   
     4    2    3 1   
     5    2   13 1   
     6    2   19 1   
     7    3    4 1   
     8    3   20 1   
     9    3   21 1   
    10    4    5 2   
    11    4    8 1   
    12    5    6 1   
    13    5   22 1   
    14    6    7 1   
    15    6   16 1   
    16    7    8 ar  
    17    7   12 ar  
    18    8    9 ar  
    19    9   10 ar  
    20    9   23 1   
    21   10   11 ar  
    22   10   24 1   
    23   11   12 ar  
    24   11   25 1   
    25   12   26 1   
    26   13   14 1   
    27   13   28 1   
    28   15   16 1   
    29   15   27 1   
@<TRIPOS>SUBSTRUCTURE
     1 TOX         1 TEMP              0 ****  ****    0 ROOT
