@<TRIPOS>MOLECULE
TP0
   45    47     1     0     0
SMALL
bcc


@<TRIPOS>ATOM
      1 N1         -0.0980    0.1320   -0.1220 nx        1 TP0     -0.680400
      2 C3          4.0730   -1.5570    1.7820 ce        1 TP0      0.087600
      3 C4          6.1080   -0.4660    2.6550 ca        1 TP0     -0.051300
      4 C5          3.7050   -1.6100    4.2870 ca        1 TP0     -0.051300
      5 C6          5.5350   -1.4100    1.7850 ca        1 TP0     -0.083800
      6 C7          3.4670   -2.1120    2.9980 ca        1 TP0     -0.083800
      7 C8          3.3730   -1.1990    0.6880 c2        1 TP0     -0.233200
      8 C10         7.4950   -0.3010    2.6720 ca        1 TP0     -0.129000
      9 C11         3.0690   -2.2320    5.3800 ca        1 TP0     -0.129000
     10 C12         6.3470   -2.1770    0.9460 ca        1 TP0     -0.118500
     11 C13         2.6390   -3.2400    2.8380 ca        1 TP0     -0.118500
     12 C14         1.3960    0.0860    0.0510 c3        1 TP0      0.105800
     13 C15         8.3030   -1.0720    1.8370 ca        1 TP0     -0.108000
     14 C16         2.2440   -3.3360    5.2100 ca        1 TP0     -0.108000
     15 C17         7.7320   -2.0090    0.9770 ca        1 TP0     -0.131000
     16 C18         2.0340   -3.8510    3.9280 ca        1 TP0     -0.131000
     17 C19        -0.7890    0.2890    1.1840 c3        1 TP0      0.081600
     18 C20        -0.4860    1.2230   -1.0540 c3        1 TP0      0.081600
     19 C21         5.2110    0.3390    3.5250 c3        1 TP0     -0.036100
     20 C22         4.6080   -0.4800    4.6470 c3        1 TP0     -0.036100
     21 C29         1.8990   -1.2660    0.5550 c3        1 TP0     -0.057200
     22 H8          3.9080   -0.8340   -0.2050 ha        1 TP0      0.140000
     23 H10         7.9500    0.4390    3.3490 ha        1 TP0      0.143000
     24 H11         3.2480   -1.8390    6.3930 ha        1 TP0      0.143000
     25 H12         5.8960   -2.9180    0.2700 ha        1 TP0      0.132500
     26 H13         2.4960   -3.6590    1.8300 ha        1 TP0      0.132500
     27 H14         1.6870    0.9000    0.7740 hx        1 TP0      0.106200
     28 H14A        1.8640    0.3100   -0.9510 hx        1 TP0      0.106200
     29 H15         9.3960   -0.9410    1.8600 ha        1 TP0      0.145500
     30 H16         1.7700   -3.8120    6.0810 ha        1 TP0      0.145500
     31 H17         8.3720   -2.6190    0.3220 ha        1 TP0      0.143000
     32 H18         1.4050   -4.7420    3.7870 ha        1 TP0      0.143000
     33 H19        -0.4710   -0.5360    1.8770 hx        1 TP0      0.105700
     34 H19A       -1.9000    0.2420    1.0250 hx        1 TP0      0.105700
     35 H19B       -0.5180    1.2800    1.6360 hx        1 TP0      0.105700
     36 H20        -0.1100    2.2040   -0.6570 hx        1 TP0      0.105700
     37 H20A       -0.0350    1.0290   -2.0640 hx        1 TP0      0.105700
     38 H20B       -1.6050    1.2570   -1.1420 hx        1 TP0      0.105700
     39 H21         5.7840    1.1910    3.9820 hc        1 TP0      0.056950
     40 H21A        4.3920    0.7870    2.9000 hc        1 TP0      0.056950
     41 H22         4.0380    0.2240    5.3160 hc        1 TP0      0.056950
     42 H22A        5.4490   -0.9090    5.2640 hc        1 TP0      0.056950
     43 H29         1.6290   -2.0770   -0.1760 hc        1 TP0      0.069700
     44 H29A        1.4220   -1.5200    1.5410 hc        1 TP0      0.069700
     45 H111       -0.3930   -0.7650   -0.5330 hn        1 TP0      0.449800
@<TRIPOS>BOND
     1    1   12 1   
     2    1   17 1   
     3    1   18 1   
     4    1   45 1   
     5    2    5 1   
     6    2    6 1   
     7    2    7 2   
     8    3    5 ar  
     9    3    8 ar  
    10    3   19 1   
    11    4    6 ar  
    12    4    9 ar  
    13    4   20 1   
    14    5   10 ar  
    15    6   11 ar  
    16    7   21 1   
    17    7   22 1   
    18    8   13 ar  
    19    8   23 1   
    20    9   14 ar  
    21    9   24 1   
    22   10   15 ar  
    23   10   25 1   
    24   11   16 ar  
    25   11   26 1   
    26   12   21 1   
    27   12   27 1   
    28   12   28 1   
    29   13   15 ar  
    30   13   29 1   
    31   14   16 ar  
    32   14   30 1   
    33   15   31 1   
    34   16   32 1   
    35   17   33 1   
    36   17   34 1   
    37   17   35 1   
    38   18   36 1   
    39   18   37 1   
    40   18   38 1   
    41   19   20 1   
    42   19   39 1   
    43   19   40 1   
    44   20   41 1   
    45   20   42 1   
    46   21   43 1   
    47   21   44 1   
@<TRIPOS>SUBSTRUCTURE
     1 TP0         1 TEMP              0 ****  ****    0 ROOT
