@<TRIPOS>MOLECULE
TP0
   45    47     1     0     0
SMALL
bcc


@<TRIPOS>ATOM
      1 N1         -0.0990    0.1380   -0.1160 n4        1 TP0     -0.680400
      2 C3          4.0720   -1.5580    1.7800 ce        1 TP0      0.087600
      3 C4          6.1100   -0.4710    2.6510 ca        1 TP0     -0.051300
      4 C5          3.7070   -1.6120    4.2860 ca        1 TP0     -0.051300
      5 C6          5.5340   -1.4130    1.7820 ca        1 TP0     -0.083800
      6 C7          3.4670   -2.1130    2.9970 ca        1 TP0     -0.083800
      7 C8          3.3710   -1.1980    0.6880 c2        1 TP0     -0.233200
      8 C10         7.4970   -0.3070    2.6670 ca        1 TP0     -0.129000
      9 C11         3.0720   -2.2340    5.3790 ca        1 TP0     -0.129000
     10 C12         6.3440   -2.1800    0.9410 ca        1 TP0     -0.118500
     11 C13         2.6370   -3.2400    2.8380 ca        1 TP0     -0.118500
     12 C14         1.3940    0.0910    0.0550 c3        1 TP0      0.105800
     13 C15         8.3030   -1.0790    1.8300 ca        1 TP0     -0.108000
     14 C16         2.2450   -3.3370    5.2090 ca        1 TP0     -0.108000
     15 C17         7.7290   -2.0140    0.9700 ca        1 TP0     -0.131000
     16 C18         2.0320   -3.8500    3.9280 ca        1 TP0     -0.131000
     17 C19        -0.7890    0.2950    1.1910 c3        1 TP0      0.081600
     18 C20        -0.4870    1.2310   -1.0460 c3        1 TP0      0.081600
     19 C21         5.2150    0.3350    3.5230 c3        1 TP0     -0.036100
     20 C22         4.6130   -0.4830    4.6450 c3        1 TP0     -0.036100
     21 C29         1.8960   -1.2630    0.5570 c3        1 TP0     -0.057200
     22 H8          3.9050   -0.8330   -0.2060 ha        1 TP0      0.140000
     23 H10         7.9540    0.4310    3.3430 ha        1 TP0      0.143000
     24 H11         3.2530   -1.8420    6.3930 ha        1 TP0      0.143000
     25 H12         5.8910   -2.9200    0.2650 ha        1 TP0      0.132500
     26 H13         2.4920   -3.6580    1.8290 ha        1 TP0      0.132500
     27 H14         1.8620    0.3150   -0.9470 hx        1 TP0      0.106200
     28 H14A        1.6870    0.9040    0.7780 hx        1 TP0      0.106200
     29 H15         9.3960   -0.9500    1.8510 ha        1 TP0      0.145500
     30 H16         1.7720   -3.8130    6.0820 ha        1 TP0      0.145500
     31 H17         8.3670   -2.6250    0.3130 ha        1 TP0      0.143000
     32 H18         1.4020   -4.7410    3.7870 ha        1 TP0      0.143000
     33 H19        -0.4710   -0.5310    1.8820 hx        1 TP0      0.105700
     34 H19A       -1.9000    0.2490    1.0330 hx        1 TP0      0.105700
     35 H19B       -0.5160    1.2860    1.6430 hx        1 TP0      0.105700
     36 H20        -1.6060    1.2670   -1.1330 hx        1 TP0      0.105700
     37 H20A       -0.1090    2.2110   -0.6490 hx        1 TP0      0.105700
     38 H20B       -0.0380    1.0380   -2.0580 hx        1 TP0      0.105700
     39 H21         5.7900    1.1860    3.9800 hc        1 TP0      0.056950
     40 H21A        4.3960    0.7850    2.8990 hc        1 TP0      0.056950
     41 H22         5.4530   -0.9140    5.2610 hc        1 TP0      0.056950
     42 H22A        4.0440    0.2210    5.3160 hc        1 TP0      0.056950
     43 H29         1.4210   -1.5170    1.5440 hc        1 TP0      0.069700
     44 H29A        1.6240   -2.0730   -0.1740 hc        1 TP0      0.069700
     45 H111       -0.3960   -0.7580   -0.5280 hn        1 TP0      0.449800
@<TRIPOS>BOND
     1    1   12 1   
     2    1   17 1   
     3    1   18 1   
     4    1   45 1   
     5    2    5 1   
     6    2    6 1   
     7    2    7 2   
     8    3    5 ar  
     9    3    8 ar  
    10    3   19 1   
    11    4    6 ar  
    12    4    9 ar  
    13    4   20 1   
    14    5   10 ar  
    15    6   11 ar  
    16    7   21 1   
    17    7   22 1   
    18    8   13 ar  
    19    8   23 1   
    20    9   14 ar  
    21    9   24 1   
    22   10   15 ar  
    23   10   25 1   
    24   11   16 ar  
    25   11   26 1   
    26   12   21 1   
    27   12   27 1   
    28   12   28 1   
    29   13   15 ar  
    30   13   29 1   
    31   14   16 ar  
    32   14   30 1   
    33   15   31 1   
    34   16   32 1   
    35   17   33 1   
    36   17   34 1   
    37   17   35 1   
    38   18   36 1   
    39   18   37 1   
    40   18   38 1   
    41   19   20 1   
    42   19   39 1   
    43   19   40 1   
    44   20   41 1   
    45   20   42 1   
    46   21   43 1   
    47   21   44 1   
@<TRIPOS>SUBSTRUCTURE
     1 TP0         1 TEMP              0 ****  ****    0 ROOT
