@<TRIPOS>MOLECULE
TP0
   44    38     1     0     0
SMALL
bcc


@<TRIPOS>ATOM
      1 N1         -0.7470    1.7950   -3.3140 n3        1 TP0     -0.265000
      2 C3         -0.2080   -0.6740    0.6140 c1        1 TP0     -0.033500
      3 C4          2.0760   -0.0010    0.9660 c1        1 TP0     -0.052000
      4 C5         -0.4830   -0.9120    2.9960 c1        1 TP0     -0.052000
      5 C6          1.2750   -0.9410    0.3360 c1        1 TP0     -0.032000
      6 C7         -0.7140   -1.5360    1.7810 c1        1 TP0     -0.033500
      7 C8         -0.9660    0.2240   -0.0630 c1        1 TP0     -0.132000
      8 C10         3.4020    0.1830    0.5470 c1        1 TP0     -0.134000
      9 C11        -1.3230   -1.1740    4.0890 c1        1 TP0     -0.134000
     10 C12         1.7890   -1.7060   -0.7160 c1        1 TP0     -0.115000
     11 C13        -1.7850   -2.4280    1.6450 c1        1 TP0     -0.132000
     12 C14        -1.5330    1.4830   -2.1400 c3        1 TP0     -0.062000
     13 C15         3.9130   -0.5790   -0.5000 c1        1 TP0     -0.130250
     14 C16        -2.3890   -2.0610    3.9530 c1        1 TP0     -0.130250
     15 C17         3.1080   -1.5240   -1.1320 c1        1 TP0     -0.130250
     16 C18        -2.6200   -2.6870    2.7340 c1        1 TP0     -0.130250
     17 C19        -1.6390    2.1340   -4.4200 c3        1 TP0     -0.120000
     18 C20         0.1200    2.9160   -3.0310 c3        1 TP0     -0.120000
     19 C21         1.3880    0.5560    2.2190 c3        1 TP0     -0.117500
     20 C22         0.9930   -0.5630    3.1580 c3        1 TP0     -0.117500
     21 C29        -1.0900    0.1250   -1.5720 c2        1 TP0     -0.140000
     22 H8         -1.4670    0.9020    0.4220 ha        1 TP0      0.130000
     23 H10         3.9700    0.8480    0.9930 ha        1 TP0      0.130000
     24 H11        -1.1620   -0.7360    4.9420 ha        1 TP0      0.130000
     25 H12         1.2210   -2.3730   -1.1610 ha        1 TP0      0.136000
     26 H13        -1.9470   -2.8650    0.7940 ha        1 TP0      0.130000
     27 H14        -1.4000    2.1780   -1.4640 h1        1 TP0      0.070500
     28 H14A       -2.4780    1.4410   -2.3820 h1        1 TP0      0.070500
     29 H15         4.8410   -0.4500   -0.7930 ha        1 TP0      0.131250
     30 H16        -2.9740   -2.2440    4.7150 ha        1 TP0      0.131250
     31 H17         3.4650   -2.0570   -1.8650 ha        1 TP0      0.131250
     32 H18        -3.3640   -3.3070    2.6390 ha        1 TP0      0.131250
     33 H19        -2.0550    1.3100   -4.7730 h1        1 TP0      0.070000
     34 H19A       -1.1240    2.5730   -5.1340 h1        1 TP0      0.070000
     35 H19B       -2.3420    2.7450   -4.0990 h1        1 TP0      0.070000
     36 H20        -0.4200    3.6820   -2.7400 h1        1 TP0      0.070000
     37 H20A        0.6200    3.1570   -3.8430 h1        1 TP0      0.070000
     38 H20B        0.7540    2.6700   -2.3160 h1        1 TP0      0.070000
     39 H21         1.9990    1.1590    2.6780 hc        1 TP0      0.092000
     40 H21A        0.5850    1.0520    1.9530 hc        1 TP0      0.092000
     41 H22         1.5360   -1.3570    2.9600 hc        1 TP0      0.092000
     42 H22A        1.1580   -0.2820    4.0800 hc        1 TP0      0.092000
     43 H29        -1.7530   -0.5550   -1.8010 ha        1 TP0      0.100500
     44 H29A       -0.2300   -0.1200   -1.9530 ha        1 TP0      0.100500
@<TRIPOS>BOND
     1    1   12 1   
     2    1   17 1   
     3    1   18 1   
     4    2    6 1   
     5    2    7 1   
     6    3    8 1   
     7    3   19 1   
     8    4    9 1   
     9    4   20 1   
    10    5   10 1   
    11    6   11 1   
    12    7   22 1   
    13    8   23 1   
    14    9   24 1   
    15   10   25 1   
    16   11   26 1   
    17   12   21 1   
    18   12   27 1   
    19   12   28 1   
    20   13   15 1   
    21   13   29 1   
    22   14   16 1   
    23   14   30 1   
    24   15   31 1   
    25   16   32 1   
    26   17   33 1   
    27   17   34 1   
    28   17   35 1   
    29   18   36 1   
    30   18   37 1   
    31   18   38 1   
    32   19   20 1   
    33   19   39 1   
    34   19   40 1   
    35   20   41 1   
    36   20   42 1   
    37   21   43 1   
    38   21   44 1   
@<TRIPOS>SUBSTRUCTURE
     1 TP0         1 TEMP              0 ****  ****    0 ROOT
