@<TRIPOS>MOLECULE
TP0
   45    47     1     0     0
SMALL
bcc


@<TRIPOS>ATOM
      1 N1         -0.0950    0.1430   -0.1200 n4        1 TP0     -0.680400
      2 C3          4.0710   -1.5590    1.7800 ce        1 TP0      0.087600
      3 C4          6.1100   -0.4740    2.6540 ca        1 TP0     -0.051300
      4 C5          3.7030   -1.6130    4.2850 ca        1 TP0     -0.051300
      5 C6          5.5340   -1.4160    1.7840 ca        1 TP0     -0.083800
      6 C7          3.4650   -2.1140    2.9960 ca        1 TP0     -0.083800
      7 C8          3.3720   -1.1980    0.6870 c2        1 TP0     -0.233200
      8 C10         7.4960   -0.3120    2.6720 ca        1 TP0     -0.129000
      9 C11         3.0660   -2.2350    5.3770 ca        1 TP0     -0.129000
     10 C12         6.3440   -2.1850    0.9440 ca        1 TP0     -0.118500
     11 C13         2.6340   -3.2410    2.8360 ca        1 TP0     -0.118500
     12 C14         1.3980    0.0940    0.0540 c3        1 TP0      0.105800
     13 C15         8.3030   -1.0850    1.8360 ca        1 TP0     -0.108000
     14 C16         2.2390   -3.3370    5.2070 ca        1 TP0     -0.108000
     15 C17         7.7290   -2.0200    0.9750 ca        1 TP0     -0.131000
     16 C18         2.0280   -3.8510    3.9250 ca        1 TP0     -0.131000
     17 C19        -0.7880    0.2960    1.1860 c3        1 TP0      0.081600
     18 C20        -0.4800    1.2390   -1.0460 c3        1 TP0      0.081600
     19 C21         5.2140    0.3320    3.5240 c3        1 TP0     -0.036100
     20 C22         4.6090   -0.4850    4.6460 c3        1 TP0     -0.036100
     21 C29         1.8980   -1.2620    0.5540 c3        1 TP0     -0.057200
     22 H8          3.9090   -0.8340   -0.2060 ha        1 TP0      0.140000
     23 H10         7.9540    0.4250    3.3490 ha        1 TP0      0.143000
     24 H11         3.2460   -1.8430    6.3910 ha        1 TP0      0.143000
     25 H12         5.8910   -2.9240    0.2670 ha        1 TP0      0.132500
     26 H13         2.4910   -3.6580    1.8270 ha        1 TP0      0.132500
     27 H14         1.6900    0.9040    0.7810 hx        1 TP0      0.106200
     28 H14A        1.8680    0.3210   -0.9460 hx        1 TP0      0.106200
     29 H15         9.3960   -0.9570    1.8590 ha        1 TP0      0.145500
     30 H16         1.7640   -3.8130    6.0780 ha        1 TP0      0.145500
     31 H17         8.3680   -2.6310    0.3200 ha        1 TP0      0.143000
     32 H18         1.3970   -4.7410    3.7830 ha        1 TP0      0.143000
     33 H19        -0.5140    1.2840    1.6430 hx        1 TP0      0.105700
     34 H19A       -0.4720   -0.5330    1.8750 hx        1 TP0      0.105700
     35 H19B       -1.8980    0.2520    1.0260 hx        1 TP0      0.105700
     36 H20        -0.1020    2.2170   -0.6450 hx        1 TP0      0.105700
     37 H20A       -0.0290    1.0500   -2.0580 hx        1 TP0      0.105700
     38 H20B       -1.5990    1.2760   -1.1350 hx        1 TP0      0.105700
     39 H21         5.7900    1.1830    3.9820 hc        1 TP0      0.056950
     40 H21A        4.3960    0.7830    2.8990 hc        1 TP0      0.056950
     41 H22         5.4480   -0.9160    5.2630 hc        1 TP0      0.056950
     42 H22A        4.0400    0.2200    5.3150 hc        1 TP0      0.056950
     43 H29         1.6260   -2.0700   -0.1800 hc        1 TP0      0.069700
     44 H29A        1.4210   -1.5180    1.5390 hc        1 TP0      0.069700
     45 H111       -0.3920   -0.7510   -0.5350 hn        1 TP0      0.449800
@<TRIPOS>BOND
     1    1   12 1   
     2    1   17 1   
     3    1   18 1   
     4    1   45 1   
     5    2    5 1   
     6    2    6 1   
     7    2    7 2   
     8    3    5 ar  
     9    3    8 ar  
    10    3   19 1   
    11    4    6 ar  
    12    4    9 ar  
    13    4   20 1   
    14    5   10 ar  
    15    6   11 ar  
    16    7   21 1   
    17    7   22 1   
    18    8   13 ar  
    19    8   23 1   
    20    9   14 ar  
    21    9   24 1   
    22   10   15 ar  
    23   10   25 1   
    24   11   16 ar  
    25   11   26 1   
    26   12   21 1   
    27   12   27 1   
    28   12   28 1   
    29   13   15 ar  
    30   13   29 1   
    31   14   16 ar  
    32   14   30 1   
    33   15   31 1   
    34   16   32 1   
    35   17   33 1   
    36   17   34 1   
    37   17   35 1   
    38   18   36 1   
    39   18   37 1   
    40   18   38 1   
    41   19   20 1   
    42   19   39 1   
    43   19   40 1   
    44   20   41 1   
    45   20   42 1   
    46   21   43 1   
    47   21   44 1   
@<TRIPOS>SUBSTRUCTURE
     1 TP0         1 TEMP              0 ****  ****    0 ROOT
