@<TRIPOS>MOLECULE
TP0
   44    46     1     0     0
SMALL
bcc


@<TRIPOS>ATOM
      1 N1          4.2990   -1.6870    0.1180 n3        1 TP0     -0.739600
      2 C3         -0.4020   -0.2450   -0.3980 ce        1 TP0     -0.016400
      3 C4         -2.5230   -0.5140    0.8460 ca        1 TP0     -0.058800
      4 C5         -0.7920    2.0690    0.5630 ca        1 TP0     -0.058800
      5 C6         -1.7890   -0.7280   -0.3330 ca        1 TP0     -0.042800
      6 C7         -0.2170    1.2110   -0.3870 ca        1 TP0     -0.042800
      7 C8          0.6080   -1.1310   -0.4750 c2        1 TP0     -0.145200
      8 C10        -3.8370   -0.9780    0.9360 ca        1 TP0     -0.134000
      9 C11        -0.5420    3.4520    0.4650 ca        1 TP0     -0.134000
     10 C12        -2.3760   -1.4030   -1.4070 ca        1 TP0     -0.117500
     11 C13         0.5740    1.7590   -1.4160 ca        1 TP0     -0.117500
     12 C14         2.8570   -1.8040    0.2960 c3        1 TP0      0.173800
     13 C15        -4.4190   -1.6470   -0.1400 ca        1 TP0     -0.126000
     14 C16         0.2440    3.9790   -0.5500 ca        1 TP0     -0.126000
     15 C17        -3.6910   -1.8590   -1.3100 ca        1 TP0     -0.135000
     16 C18         0.8040    3.1260   -1.5020 ca        1 TP0     -0.135000
     17 C19         4.8320   -0.4170    0.5540 c3        1 TP0      0.156100
     18 C20         5.0080   -2.8140    0.6830 c3        1 TP0      0.156100
     19 C21        -1.8620    0.1980    1.9720 c3        1 TP0     -0.031600
     20 C22        -1.6860    1.6740    1.6900 c3        1 TP0     -0.031600
     21 C29         2.0500   -0.7990   -0.5300 c3        1 TP0     -0.056200
     22 H8          0.3740   -2.2100   -0.5040 ha        1 TP0      0.127000
     23 H10        -4.4130   -0.8150    1.8590 ha        1 TP0      0.130000
     24 H11        -0.9870    4.1270    1.2130 ha        1 TP0      0.130000
     25 H12        -1.7990   -1.5700   -2.3280 ha        1 TP0      0.135000
     26 H13         1.0110    1.0830   -2.1670 ha        1 TP0      0.135000
     27 H14         2.5630   -2.8450   -0.0240 h1        1 TP0      0.031200
     28 H14A        2.5630   -1.6880    1.3810 h1        1 TP0      0.031200
     29 H15        -5.4550   -2.0090   -0.0640 ha        1 TP0      0.130500
     30 H16         0.4220    5.0630   -0.6060 ha        1 TP0      0.130500
     31 H17        -4.1510   -2.3860   -2.1580 ha        1 TP0      0.131500
     32 H18         1.4220    3.5320   -2.3160 ha        1 TP0      0.131500
     33 H19         4.6350   -0.2010    1.6410 h1        1 TP0      0.030700
     34 H19A        5.9410   -0.4070    0.3870 h1        1 TP0      0.030700
     35 H19B        4.3720    0.4000   -0.0610 h1        1 TP0      0.030700
     36 H20         4.6300   -3.7580    0.2100 h1        1 TP0      0.030700
     37 H20A        6.0990   -2.7100    0.4490 h1        1 TP0      0.030700
     38 H20B        4.8890   -2.9020    1.7980 h1        1 TP0      0.030700
     39 H21        -2.4740    0.0870    2.9080 hc        1 TP0      0.052200
     40 H21A       -0.8600   -0.2720    2.1690 hc        1 TP0      0.052200
     41 H22        -1.2930    2.1550    2.6300 hc        1 TP0      0.052200
     42 H22A       -2.7000    2.1240    1.4910 hc        1 TP0      0.052200
     43 H29         2.3890   -0.8280   -1.6020 hc        1 TP0      0.061700
     44 H29A        2.2300    0.2430   -0.1510 hc        1 TP0      0.061700
@<TRIPOS>BOND
     1    1   12 1   
     2    1   17 1   
     3    1   18 1   
     4    2    5 1   
     5    2    6 1   
     6    2    7 2   
     7    3    5 ar  
     8    3    8 ar  
     9    3   19 1   
    10    4    6 ar  
    11    4    9 ar  
    12    4   20 1   
    13    5   10 ar  
    14    6   11 ar  
    15    7   21 1   
    16    7   22 1   
    17    8   13 ar  
    18    8   23 1   
    19    9   14 ar  
    20    9   24 1   
    21   10   15 ar  
    22   10   25 1   
    23   11   16 ar  
    24   11   26 1   
    25   12   21 1   
    26   12   27 1   
    27   12   28 1   
    28   13   15 ar  
    29   13   29 1   
    30   14   16 ar  
    31   14   30 1   
    32   15   31 1   
    33   16   32 1   
    34   17   33 1   
    35   17   34 1   
    36   17   35 1   
    37   18   36 1   
    38   18   37 1   
    39   18   38 1   
    40   19   20 1   
    41   19   39 1   
    42   19   40 1   
    43   20   41 1   
    44   20   42 1   
    45   21   43 1   
    46   21   44 1   
@<TRIPOS>SUBSTRUCTURE
     1 TP0         1 TEMP              0 ****  ****    0 ROOT
