@<TRIPOS>MOLECULE
TP1
   38    38     1     0     0
SMALL
bcc


@<TRIPOS>ATOM
      1 C8'        -1.3880   -0.4420    0.4000 c3        1 TP1     -0.009000
      2 C7'        -0.3780   -0.8940   -0.6710 c         1 TP1      0.633100
      3 O7'         0.0420   -2.0720   -0.6410 o         1 TP1     -0.628100
      4 C5'        -0.4570    1.3480   -1.7240 c3        1 TP1     -0.064000
      5 C'         -1.8910    1.4450   -2.3300 c         1 TP1      0.899600
      6 O1'        -2.8410    1.5800   -1.5090 o         1 TP1     -0.822300
      7 OXT        -1.9920    1.3950   -3.5830 o         1 TP1     -0.822300
      8 N4'         0.0700    0.0020   -1.6260 n         1 TP1     -0.427800
      9 C3'         0.6370   -0.5210   -2.8550 c3        1 TP1      0.067000
     10 C2'         2.1110   -0.0970   -3.0530 c3        1 TP1      0.147800
     11 N1'         2.6300   -0.5020   -4.3470 n3        1 TP1     -0.825200
     12 C1'         3.8240    0.2020   -4.7290 c3        1 TP1      0.157100
     13 N1         -0.7820   -0.2550    1.7030 n         1 TP1     -0.341000
     14 C6          0.1920    0.7050    1.8940 cc        1 TP1      0.069600
     15 C2         -1.1190   -1.1330    2.7670 c         1 TP1      0.806500
     16 O2         -2.0050   -2.0070    2.6570 o         1 TP1     -0.638500
     17 N3         -0.4490   -0.9770    3.9940 n         1 TP1     -0.588500
     18 C4          0.5420   -0.0070    4.2150 c         1 TP1      0.723700
     19 O4          1.0890    0.0370    5.3330 o         1 TP1     -0.648500
     20 C5          0.8450    0.8770    3.0820 cd        1 TP1     -0.295400
     21 C5M         1.8560    1.9310    3.2870 c3        1 TP1     -0.018900
     22 H8'1       -1.9350    0.5060    0.0950 h1        1 TP1      0.134200
     23 H8'2       -2.1530   -1.2720    0.4730 h1        1 TP1      0.134200
     24 H5'1       -0.4590    1.8200   -0.7040 h1        1 TP1      0.032700
     25 H5'2        0.2390    1.9400   -2.3790 h1        1 TP1      0.032700
     26 H3'1        0.0110   -0.1400   -3.7170 h1        1 TP1      0.078700
     27 H3'2        0.5880   -1.6470   -2.8450 h1        1 TP1      0.078700
     28 H2'1        2.7490   -0.5930   -2.2690 h1        1 TP1      0.031200
     29 H2'2        2.1980    1.0200   -2.9020 h1        1 TP1      0.031200
     30 H1'         1.9230   -0.4030   -5.0540 hn        1 TP1      0.360800
     31 H1'1        4.1670   -0.1860   -5.7230 h1        1 TP1      0.020700
     32 H1'2        3.6930    1.3180   -4.8090 h1        1 TP1      0.020700
     33 H1'3        4.6240    0.0030   -3.9680 h1        1 TP1      0.020700
     34 H6          0.4100    1.3420    1.0130 h4        1 TP1      0.180000
     35 HN3        -0.6920   -1.6110    4.7230 hn        1 TP1      0.342500
     36 HM51        2.7110    1.5310    3.8880 hc        1 TP1      0.042033
     37 HM52        2.2450    2.3120    2.3110 hc        1 TP1      0.042033
     38 HM53        1.4110    2.7890    3.8520 hc        1 TP1      0.042033
@<TRIPOS>BOND
     1    1    2 1   
     2    1   13 1   
     3    1   22 1   
     4    1   23 1   
     5    2    3 2   
     6    2    8 1   
     7    4    5 1   
     8    4    8 1   
     9    4   24 1   
    10    4   25 1   
    11    5    6 1   
    12    5    7 1   
    13    8    9 1   
    14    9   10 1   
    15    9   26 1   
    16    9   27 1   
    17   10   11 1   
    18   10   28 1   
    19   10   29 1   
    20   11   12 1   
    21   11   30 1   
    22   12   31 1   
    23   12   32 1   
    24   12   33 1   
    25   13   14 1   
    26   13   15 1   
    27   14   20 2   
    28   14   34 1   
    29   15   16 2   
    30   15   17 1   
    31   17   18 1   
    32   17   35 1   
    33   18   19 2   
    34   18   20 1   
    35   20   21 1   
    36   21   36 1   
    37   21   37 1   
    38   21   38 1   
@<TRIPOS>SUBSTRUCTURE
     1 TP1         1 TEMP              0 ****  ****    0 ROOT
