@<TRIPOS>MOLECULE
TP2
   42    43     1     0     0
SMALL
bcc


@<TRIPOS>ATOM
      1 S1         -0.0090    1.4230    0.8830 sh        1 TP2     -0.261900
      2 C2          1.1230    0.2650    1.5580 c3        1 TP2     -0.059300
      3 C3          2.5360    0.6940    1.1980 c3        1 TP2      0.106800
      4 N4          3.5790   -0.1210    1.8920 n4        1 TP2     -0.678800
      5 C5          4.9870    0.2630    1.5340 c         1 TP2      0.517100
      6 C6          6.1520   -0.4570    2.2440 c3        1 TP2      0.195500
      7 N7          5.8110   -1.1780    3.4380 n3        1 TP2     -0.818500
      8 S8          5.2650   -2.7490    3.4930 sy        1 TP2      1.530200
      9 C9          6.5380   -3.6600    3.0020 ca        1 TP2     -0.468500
     10 C10         7.4680   -4.1460    3.9380 ca        1 TP2     -0.001000
     11 C11         8.5220   -4.9610    3.5500 ca        1 TP2     -0.156000
     12 C12         8.6780   -5.3250    2.2040 ca        1 TP2      0.036700
     13 C13         7.7530   -4.8510    1.2600 ca        1 TP2     -0.156000
     14 C14         6.7040   -4.0360    1.6570 ca        1 TP2     -0.001000
     15 C15         9.7860   -6.2110    1.7900 c3        1 TP2     -0.084800
     16 O16         4.2280   -2.7550    2.5110 o         1 TP2     -0.659300
     17 O17         4.8850   -3.0320    4.8100 o         1 TP2     -0.659300
     18 C18         6.3510   -0.5040    4.6110 c3        1 TP2      0.207800
     19 C19         7.2690    0.6320    4.1360 c3        1 TP2     -0.096400
     20 C20         7.2240    0.6050    2.6130 c3        1 TP2     -0.082400
     21 O21         5.1290    1.0990    0.6540 o         1 TP2     -0.422100
     22 HS1        -0.2020    0.8860   -0.3110 hs        1 TP2      0.210800
     23 HC21        0.9200   -0.7800    1.2160 h1        1 TP2      0.100700
     24 HC22        0.9610    0.2980    2.6670 h1        1 TP2      0.100700
     25 HC31        2.6970    1.7760    1.4770 hx        1 TP2      0.115700
     26 HC32        2.7080    0.5930    0.0870 hx        1 TP2      0.115700
     27 HN41        3.4610   -0.0280    2.9070 hn        1 TP2      0.480800
     28 HC61        6.5480   -1.1660    1.4510 h1        1 TP2      0.105700
     29 H101        7.3430   -3.8870    5.0060 ha        1 TP2      0.150500
     30 H111        9.2360   -5.3330    4.3030 ha        1 TP2      0.160500
     31 H131        7.8600   -5.1380    0.2020 ha        1 TP2      0.160500
     32 H141        5.9660   -3.6940    0.9090 ha        1 TP2      0.150500
     33 H151       10.6810   -6.0720    2.4460 hc        1 TP2      0.070033
     34 H152        9.4590   -7.2810    1.8690 hc        1 TP2      0.070033
     35 H153       10.0860   -6.0160    0.7300 hc        1 TP2      0.070033
     36 H181        6.9180   -1.2440    5.2420 h1        1 TP2      0.068200
     37 H182        5.5030   -0.1000    5.2320 h1        1 TP2      0.068200
     38 H191        6.9110    1.6140    4.5330 hc        1 TP2      0.078200
     39 H192        8.3120    0.4760    4.5080 hc        1 TP2      0.078200
     40 H201        6.9780    1.6070    2.1850 hc        1 TP2      0.086700
     41 H202        8.2080    0.2830    2.1870 hc        1 TP2      0.086700
     42 H42         3.4430   -1.1250    1.6580 hn        1 TP2      0.480800
@<TRIPOS>BOND
     1    1    2 1   
     2    1   22 1   
     3    2    3 1   
     4    2   23 1   
     5    2   24 1   
     6    3    4 1   
     7    3   25 1   
     8    3   26 1   
     9    4    5 1   
    10    4   27 1   
    11    4   42 1   
    12    5    6 1   
    13    5   21 2   
    14    6    7 1   
    15    6   20 1   
    16    6   28 1   
    17    7    8 1   
    18    7   18 1   
    19    8    9 1   
    20    8   16 2   
    21    8   17 2   
    22    9   10 ar  
    23    9   14 ar  
    24   10   11 ar  
    25   10   29 1   
    26   11   12 ar  
    27   11   30 1   
    28   12   13 ar  
    29   12   15 1   
    30   13   14 ar  
    31   13   31 1   
    32   14   32 1   
    33   15   33 1   
    34   15   34 1   
    35   15   35 1   
    36   18   19 1   
    37   18   36 1   
    38   18   37 1   
    39   19   20 1   
    40   19   38 1   
    41   19   39 1   
    42   20   40 1   
    43   20   41 1   
@<TRIPOS>SUBSTRUCTURE
     1 TP2         1 TEMP              0 ****  ****    0 ROOT
