@<TRIPOS>MOLECULE
TP2
   42    43     1     0     0
SMALL
bcc


@<TRIPOS>ATOM
      1 S1         -0.0390    1.4030    0.9770 sh        1 TP2     -0.261900
      2 C2          1.1070    0.2440    1.6270 c3        1 TP2     -0.059300
      3 C3          2.5130    0.6860    1.2600 c3        1 TP2      0.106800
      4 N4          3.5680   -0.1290    1.9340 n4        1 TP2     -0.678800
      5 C5          4.9700    0.2670    1.5670 c         1 TP2      0.517100
      6 C6          6.1460   -0.4530    2.2580 c3        1 TP2      0.195500
      7 N7          5.8210   -1.1890    3.4460 n3        1 TP2     -0.818500
      8 S8          5.2850   -2.7640    3.4900 sy        1 TP2      1.530200
      9 C9          6.5590   -3.6620    2.9760 ca        1 TP2     -0.468500
     10 C10         7.5010   -4.1520    3.8980 ca        1 TP2     -0.001000
     11 C11         8.5560   -4.9570    3.4910 ca        1 TP2     -0.156000
     12 C12         8.7010   -5.3040    2.1400 ca        1 TP2      0.036700
     13 C13         7.7640   -4.8260    1.2100 ca        1 TP2     -0.156000
     14 C14         6.7140   -4.0220    1.6250 ca        1 TP2     -0.001000
     15 C15         9.8100   -6.1800    1.7040 c3        1 TP2     -0.084800
     16 O16         4.2390   -2.7660    2.5180 o         1 TP2     -0.659300
     17 O17         4.9190   -3.0640    4.8070 o         1 TP2     -0.659300
     18 C18         6.3680   -0.5250    4.6210 c3        1 TP2      0.207800
     19 C19         7.2750    0.6220    4.1500 c3        1 TP2     -0.096400
     20 C20         7.2150    0.6110    2.6280 c3        1 TP2     -0.082400
     21 O21         5.0980    1.1150    0.6950 o         1 TP2     -0.422100
     22 HS1        -0.2400    0.8790   -0.2210 hs        1 TP2      0.210800
     23 HC21        0.9540    0.2640    2.7390 h1        1 TP2      0.100700
     24 HC22        0.9070   -0.7970    1.2760 h1        1 TP2      0.100700
     25 HC31        2.6690    1.7670    1.5490 hx        1 TP2      0.115700
     26 HC32        2.6750    0.6000    0.1460 hx        1 TP2      0.115700
     27 HN41        3.4580   -0.0480    2.9510 hn        1 TP2      0.480800
     28 HC61        6.5380   -1.1510    1.4530 h1        1 TP2      0.105700
     29 H101        7.3840   -3.9060    4.9700 ha        1 TP2      0.150500
     30 H111        9.2800   -5.3330    4.2320 ha        1 TP2      0.160500
     31 H131        7.8620   -5.1010    0.1470 ha        1 TP2      0.160500
     32 H141        5.9670   -3.6760    0.8880 ha        1 TP2      0.150500
     33 H151        9.4900   -7.2520    1.7740 hc        1 TP2      0.070033
     34 H152       10.0990   -5.9710    0.6440 hc        1 TP2      0.070033
     35 H153       10.7110   -6.0430    2.3540 hc        1 TP2      0.070033
     36 H181        5.5250   -0.1330    5.2550 h1        1 TP2      0.068200
     37 H182        6.9460   -1.2690    5.2390 h1        1 TP2      0.068200
     38 H191        8.3230    0.4690    4.5100 hc        1 TP2      0.078200
     39 H192        6.9150    1.5970    4.5620 hc        1 TP2      0.078200
     40 H201        6.9590    1.6160    2.2130 hc        1 TP2      0.086700
     41 H202        8.1970    0.3000    2.1880 hc        1 TP2      0.086700
     42 H42         3.4360   -1.1320    1.6900 hn        1 TP2      0.480800
@<TRIPOS>BOND
     1    1    2 1   
     2    1   22 1   
     3    2    3 1   
     4    2   23 1   
     5    2   24 1   
     6    3    4 1   
     7    3   25 1   
     8    3   26 1   
     9    4    5 1   
    10    4   27 1   
    11    4   42 1   
    12    5    6 1   
    13    5   21 2   
    14    6    7 1   
    15    6   20 1   
    16    6   28 1   
    17    7    8 1   
    18    7   18 1   
    19    8    9 1   
    20    8   16 2   
    21    8   17 2   
    22    9   10 ar  
    23    9   14 ar  
    24   10   11 ar  
    25   10   29 1   
    26   11   12 ar  
    27   11   30 1   
    28   12   13 ar  
    29   12   15 1   
    30   13   14 ar  
    31   13   31 1   
    32   14   32 1   
    33   15   33 1   
    34   15   34 1   
    35   15   35 1   
    36   18   19 1   
    37   18   36 1   
    38   18   37 1   
    39   19   20 1   
    40   19   38 1   
    41   19   39 1   
    42   20   40 1   
    43   20   41 1   
@<TRIPOS>SUBSTRUCTURE
     1 TP2         1 TEMP              0 ****  ****    0 ROOT
