@<TRIPOS>MOLECULE
TP2
   42    43     1     0     0
SMALL
bcc


@<TRIPOS>ATOM
      1 S1         -0.0450    1.3890    0.9700 sh        1 TP2     -0.261900
      2 C2          1.1020    0.2310    1.6190 c3        1 TP2     -0.059300
      3 C3          2.5080    0.6800    1.2590 c3        1 TP2      0.106800
      4 N4          3.5640   -0.1350    1.9330 ny        1 TP2     -0.678800
      5 C5          4.9660    0.2690    1.5740 c         1 TP2      0.517100
      6 C6          6.1410   -0.4510    2.2660 c3        1 TP2      0.195500
      7 N7          5.8140   -1.1950    3.4490 n3        1 TP2     -0.818500
      8 S8          5.2850   -2.7720    3.4810 sy        1 TP2      1.530200
      9 C9          6.5640   -3.6620    2.9680 ca        1 TP2     -0.468500
     10 C10         7.5040   -4.1540    3.8920 ca        1 TP2     -0.001000
     11 C11         8.5640   -4.9520    3.4850 ca        1 TP2     -0.156000
     12 C12         8.7160   -5.2920    2.1320 ca        1 TP2      0.036700
     13 C13         7.7820   -4.8110    1.2010 ca        1 TP2     -0.156000
     14 C14         6.7270   -4.0130    1.6160 ca        1 TP2     -0.001000
     15 C15         9.8310   -6.1600    1.6970 c3        1 TP2     -0.084800
     16 O16         4.2430   -2.7720    2.5050 o         1 TP2     -0.659300
     17 O17         4.9140   -3.0810    4.7950 o         1 TP2     -0.659300
     18 C18         6.3540   -0.5360    4.6300 c3        1 TP2      0.207800
     19 C19         7.2580    0.6180    4.1700 c3        1 TP2     -0.096400
     20 C20         7.2050    0.6150    2.6470 c3        1 TP2     -0.082400
     21 O21         5.0940    1.1220    0.7090 o         1 TP2     -0.422100
     22 HS1        -0.2400    0.8700   -0.2320 hs        1 TP2      0.210800
     23 HC21        0.9450    0.2440    2.7300 h1        1 TP2      0.100700
     24 HC22        0.9080   -0.8090    1.2610 h1        1 TP2      0.100700
     25 HC31        2.6750    0.6010    0.1460 hx        1 TP2      0.115700
     26 HC32        2.6600    1.7600    1.5550 hx        1 TP2      0.115700
     27 HN41        3.4500   -0.0600    2.9500 hn        1 TP2      0.480800
     28 HC61        6.5400   -1.1420    1.4590 h1        1 TP2      0.105700
     29 H101        7.3810   -3.9150    4.9640 ha        1 TP2      0.150500
     30 H111        9.2850   -5.3300    4.2280 ha        1 TP2      0.160500
     31 H131        7.8860   -5.0790    0.1370 ha        1 TP2      0.160500
     32 H141        5.9820   -3.6660    0.8770 ha        1 TP2      0.150500
     33 H151       10.7270   -6.0250    2.3530 hc        1 TP2      0.070033
     34 H152        9.5140   -7.2340    1.7570 hc        1 TP2      0.070033
     35 H153       10.1260   -5.9420    0.6410 hc        1 TP2      0.070033
     36 H181        6.9320   -1.2810    5.2460 h1        1 TP2      0.068200
     37 H182        5.5060   -0.1500    5.2630 h1        1 TP2      0.068200
     38 H191        6.8920    1.5890    4.5850 hc        1 TP2      0.078200
     39 H192        8.3050    0.4670    4.5330 hc        1 TP2      0.078200
     40 H201        6.9470    1.6220    2.2360 hc        1 TP2      0.086700
     41 H202        8.1900    0.3110    2.2100 hc        1 TP2      0.086700
     42 H42         3.4370   -1.1370    1.6830 hn        1 TP2      0.480800
@<TRIPOS>BOND
     1    1    2 1   
     2    1   22 1   
     3    2    3 1   
     4    2   23 1   
     5    2   24 1   
     6    3    4 1   
     7    3   25 1   
     8    3   26 1   
     9    4    5 1   
    10    4   27 1   
    11    4   42 1   
    12    5    6 1   
    13    5   21 2   
    14    6    7 1   
    15    6   20 1   
    16    6   28 1   
    17    7    8 1   
    18    7   18 1   
    19    8    9 1   
    20    8   16 2   
    21    8   17 2   
    22    9   10 ar  
    23    9   14 ar  
    24   10   11 ar  
    25   10   29 1   
    26   11   12 ar  
    27   11   30 1   
    28   12   13 ar  
    29   12   15 1   
    30   13   14 ar  
    31   13   31 1   
    32   14   32 1   
    33   15   33 1   
    34   15   34 1   
    35   15   35 1   
    36   18   19 1   
    37   18   36 1   
    38   18   37 1   
    39   19   20 1   
    40   19   38 1   
    41   19   39 1   
    42   20   40 1   
    43   20   41 1   
@<TRIPOS>SUBSTRUCTURE
     1 TP2         1 TEMP              0 ****  ****    0 ROOT
