@<TRIPOS>MOLECULE
TP2
   41    42     1     0     0
SMALL
bcc


@<TRIPOS>ATOM
      1 S1          0.7400    0.7320    6.4810 sh        1 TP2     -0.367900
      2 C2          0.8260   -0.0590    4.8990 c3        1 TP2     -0.025300
      3 C3         -0.2480    0.5980    4.0360 c3        1 TP2      0.097000
      4 N4         -0.2060    0.2160    2.6510 n         1 TP2     -0.562900
      5 C5         -1.0610   -0.7250    2.1250 c         1 TP2      0.643100
      6 C6         -0.8730   -1.1050    0.6330 c3        1 TP2      0.182500
      7 N7         -0.9690    0.0260   -0.2710 n3        1 TP2     -0.809500
      8 S8          0.2680    0.9580   -0.7670 sy        1 TP2      1.517200
      9 C9          0.7870    0.2060   -2.1820 ca        1 TP2     -0.399500
     10 C10         0.2860    0.6000   -3.4290 ca        1 TP2     -0.011500
     11 C11         0.7310    0.0030   -4.6030 ca        1 TP2     -0.160000
     12 C12         1.6990   -1.0090   -4.5560 ca        1 TP2     -0.005300
     13 C13         2.2120   -1.4050   -3.3130 ca        1 TP2     -0.160000
     14 C14         1.7590   -0.8020   -2.1450 ca        1 TP2     -0.011500
     15 C15         2.1890   -1.6370   -5.8030 c3        1 TP2     -0.069800
     16 O16         1.3090    0.8720    0.1930 o         1 TP2     -0.655300
     17 O17        -0.1950    2.2480   -1.0920 o         1 TP2     -0.655300
     18 C18        -2.2600    0.0210   -0.9350 c3        1 TP2      0.222800
     19 C19        -2.9040   -1.3590   -0.7200 c3        1 TP2     -0.086400
     20 C20        -1.9580   -2.1220    0.2010 c3        1 TP2     -0.083400
     21 O21        -1.9530   -1.2580    2.8130 o         1 TP2     -0.609100
     22 HS1         1.5930   -0.0350    7.1360 hs        1 TP2      0.202800
     23 HC21        0.6370   -1.1550    4.9930 h1        1 TP2      0.065700
     24 HC22        1.8410    0.0820    4.4550 h1        1 TP2      0.065700
     25 HC31       -0.1160    1.7180    4.0860 h1        1 TP2      0.078200
     26 HC32       -1.2630    0.3380    4.4570 h1        1 TP2      0.078200
     27 HN41        0.5910    0.5090    2.1300 hn        1 TP2      0.340500
     28 HC61        0.1540   -1.5690    0.5450 h1        1 TP2      0.063700
     29 H101       -0.4620    1.4120   -3.4770 ha        1 TP2      0.151000
     30 H111        0.3270    0.3270   -5.5740 ha        1 TP2      0.142500
     31 H131        2.9780   -2.1940   -3.2640 ha        1 TP2      0.142500
     32 H141        2.1830   -1.1060   -1.1710 ha        1 TP2      0.151000
     33 H151        3.0680   -1.0640   -6.1940 hc        1 TP2      0.054700
     34 H152        2.5120   -2.6920   -5.6220 hc        1 TP2      0.054700
     35 H153        1.3950   -1.6380   -6.5910 hc        1 TP2      0.054700
     36 H181       -2.9100    0.8310   -0.5010 h1        1 TP2      0.051700
     37 H182       -2.1180    0.2330   -2.0320 h1        1 TP2      0.051700
     38 H191       -3.9110   -1.2430   -0.2500 hc        1 TP2      0.057200
     39 H192       -3.0340   -1.8890   -1.6940 hc        1 TP2      0.057200
     40 H201       -2.4980   -2.5340    1.0890 hc        1 TP2      0.073200
     41 H202       -1.4730   -2.9710   -0.3400 hc        1 TP2      0.073200
@<TRIPOS>BOND
     1    1    2 1   
     2    1   22 1   
     3    2    3 1   
     4    2   23 1   
     5    2   24 1   
     6    3    4 1   
     7    3   25 1   
     8    3   26 1   
     9    4    5 1   
    10    4   27 1   
    11    5    6 1   
    12    5   21 2   
    13    6    7 1   
    14    6   20 1   
    15    6   28 1   
    16    7    8 1   
    17    7   18 1   
    18    8    9 1   
    19    8   16 2   
    20    8   17 2   
    21    9   10 ar  
    22    9   14 ar  
    23   10   11 ar  
    24   10   29 1   
    25   11   12 ar  
    26   11   30 1   
    27   12   13 ar  
    28   12   15 1   
    29   13   14 ar  
    30   13   31 1   
    31   14   32 1   
    32   15   33 1   
    33   15   34 1   
    34   15   35 1   
    35   18   19 1   
    36   18   36 1   
    37   18   37 1   
    38   19   20 1   
    39   19   38 1   
    40   19   39 1   
    41   20   40 1   
    42   20   41 1   
@<TRIPOS>SUBSTRUCTURE
     1 TP2         1 TEMP              0 ****  ****    0 ROOT
