@<TRIPOS>MOLECULE
TP3
   46    47     1     0     0
SMALL
bcc


@<TRIPOS>ATOM
      1 C1         -2.2110    1.4440   -4.2470 c3        1 TP3     -0.081400
      2 C2         -1.6800    0.0410   -3.9050 c3        1 TP3      0.238800
      3 N3         -0.2650    0.0150   -4.1910 n3        1 TP3     -0.808500
      4 C4          0.1020    1.1630   -5.0200 c3        1 TP3      0.116500
      5 C5         -1.0400    2.1910   -4.8730 c3        1 TP3     -0.076400
      6 C6          0.3620    0.8420   -6.5300 c         1 TP3      0.908600
      7 O7          0.7550   -0.3110   -6.8490 o         1 TP3     -0.837800
      8 O8          0.2000    1.7920   -7.3490 o         1 TP3     -0.837800
      9 S9          0.7630   -1.0820   -3.6340 sy        1 TP3      1.535200
     10 C10         0.3930   -1.0880   -1.9500 ca        1 TP3     -0.348500
     11 O11         2.1120   -0.6690   -3.7430 o         1 TP3     -0.669800
     12 O12         0.4740   -2.3950   -4.0740 o         1 TP3     -0.669800
     13 C13        -0.4730   -2.0510   -1.4170 ca        1 TP3     -0.044000
     14 C14        -0.7300   -2.1120   -0.0520 ca        1 TP3     -0.132000
     15 C15        -0.1270   -1.1960    0.8190 ca        1 TP3     -0.065600
     16 C16         0.7350   -0.2250    0.3020 ca        1 TP3     -0.132000
     17 C17         0.9890   -0.1800   -1.0690 ca        1 TP3     -0.044000
     18 C18        -0.4040   -1.3380    2.2940 c         1 TP3      0.642700
     19 N19        -0.5350   -0.1910    3.0280 n         1 TP3     -0.479900
     20 C20        -1.0910   -0.1730    4.3750 c3        1 TP3     -0.046300
     21 C21        -0.2040    0.5870    5.3740 c3        1 TP3     -0.050400
     22 C22         1.0800   -0.1320    5.7120 c3        1 TP3     -0.179400
     23 C23         1.9240    0.6150    6.7510 c         1 TP3      0.903600
     24 O24        -0.4420   -2.4950    2.7800 o         1 TP3     -0.654100
     25 C25        -2.5160    0.4830    4.3840 c         1 TP3      0.901600
     26 O26        -3.3260    0.0950    5.2710 o         1 TP3     -0.854300
     27 O27        -2.7970    1.3520    3.5070 o         1 TP3     -0.854300
     28 O28         2.2130    0.0220    7.8370 o         1 TP3     -0.878800
     29 O29         2.3500    1.7820    6.4930 o         1 TP3     -0.878800
     30 HC11       -3.0670    1.3660   -4.9600 hc        1 TP3      0.031200
     31 HC12       -2.5760    1.9580   -3.3240 hc        1 TP3      0.031200
     32 HC21       -2.2130   -0.7330   -4.5250 h1        1 TP3      0.033700
     33 HC22       -1.8560   -0.1980   -2.8180 h1        1 TP3      0.033700
     34 HC41        1.0660    1.5910   -4.6210 h1        1 TP3      0.048700
     35 HC51       -1.2990    2.6070   -5.8790 hc        1 TP3      0.050700
     36 HC52       -0.7170    3.0370   -4.2170 hc        1 TP3      0.050700
     37 H131       -0.9370   -2.7850   -2.0980 ha        1 TP3      0.139000
     38 H141       -1.3940   -2.8850    0.3640 ha        1 TP3      0.148500
     39 H161        1.2230    0.4970    0.9750 ha        1 TP3      0.148500
     40 H171        1.6870    0.5740   -1.4690 ha        1 TP3      0.139000
     41 H191       -0.7080    0.6570    2.5260 hn        1 TP3      0.313500
     42 H201       -1.1980   -1.2390    4.7290 h1        1 TP3      0.070700
     43 H211       -0.8180    0.7140    6.3050 hc        1 TP3      0.048200
     44 H212        0.0330    1.6110    4.9860 hc        1 TP3      0.048200
     45 H221        1.7030   -0.2500    4.7890 hc        1 TP3      0.021200
     46 H222        0.8490   -1.1560    6.1020 hc        1 TP3      0.021200
@<TRIPOS>BOND
     1    1    2 1   
     2    1    5 1   
     3    1   30 1   
     4    1   31 1   
     5    2    3 1   
     6    2   32 1   
     7    2   33 1   
     8    3    4 1   
     9    3    9 1   
    10    4    5 1   
    11    4    6 1   
    12    4   34 1   
    13    5   35 1   
    14    5   36 1   
    15    6    7 1   
    16    6    8 1   
    17    9   10 1   
    18    9   11 2   
    19    9   12 2   
    20   10   13 ar  
    21   10   17 ar  
    22   13   14 ar  
    23   13   37 1   
    24   14   15 ar  
    25   14   38 1   
    26   15   16 ar  
    27   15   18 1   
    28   16   17 ar  
    29   16   39 1   
    30   17   40 1   
    31   18   19 1   
    32   18   24 2   
    33   19   20 1   
    34   19   41 1   
    35   20   21 1   
    36   20   25 1   
    37   20   42 1   
    38   21   22 1   
    39   21   43 1   
    40   21   44 1   
    41   22   23 1   
    42   22   45 1   
    43   22   46 1   
    44   23   28 1   
    45   23   29 1   
    46   25   26 1   
    47   25   27 1   
@<TRIPOS>SUBSTRUCTURE
     1 TP3         1 TEMP              0 ****  ****    0 ROOT
