@<TRIPOS>MOLECULE
TP3
   47    48     1     0     0
SMALL
bcc


@<TRIPOS>ATOM
      1 C1         -0.1220   -0.2490    0.0770 c3        1 TP3     -0.090400
      2 C2          0.8970   -1.0260    0.9320 c3        1 TP3      0.238800
      3 N3          1.4130   -0.1440    1.9500 n3        1 TP3     -0.778500
      4 C4          0.6600    1.1040    1.9640 c3        1 TP3      0.094500
      5 C5         -0.2880    1.1070    0.7510 c3        1 TP3     -0.068400
      6 C6          1.6250    2.3210    1.9590 c         1 TP3      0.908600
      7 O7          1.1990    3.4760    1.7380 o         1 TP3     -0.812800
      8 O8          2.8450    2.0170    2.2050 o         1 TP3     -0.812800
      9 S9          2.9600   -0.1860    2.5220 sy        1 TP3      1.538200
     10 C10         2.9880   -1.9680    2.7600 ca        1 TP3     -0.273500
     11 O11         3.1000    0.2550    3.8520 o         1 TP3     -0.658800
     12 O12         3.9660   -0.0520    1.5460 o         1 TP3     -0.658800
     13 C13         3.6140   -2.8070    1.8360 ca        1 TP3     -0.056500
     14 C14         3.6730   -4.1840    2.0410 ca        1 TP3     -0.127500
     15 C15         3.0920   -4.7490    3.1830 ca        1 TP3     -0.112600
     16 C16         2.4700   -3.9170    4.1180 ca        1 TP3     -0.127500
     17 C17         2.4260   -2.5390    3.9010 ca        1 TP3     -0.056500
     18 C18         3.1950   -6.2310    3.3580 c         1 TP3      0.645700
     19 N19         2.2200   -6.8760    4.0880 n         1 TP3     -0.524900
     20 C20         2.0530   -8.3160    4.0380 c3        1 TP3     -0.058300
     21 C21         2.6500   -9.0380    5.2530 c3        1 TP3     -0.075400
     22 C22         4.1660   -9.1070    5.2160 c3        1 TP3     -0.191400
     23 C23         4.7870   -8.6790    6.5070 c         1 TP3      0.639100
     24 O24         4.1880   -6.8480    2.8990 o         1 TP3     -0.659100
     25 C25         0.5370   -8.7410    3.9510 c         1 TP3      0.912600
     26 O26        -0.3500   -7.8620    4.1200 o         1 TP3     -0.827300
     27 O27         0.3220   -9.9600    3.7170 o         1 TP3     -0.827300
     28 O28         5.5710   -9.3200    7.2160 o         1 TP3     -0.552000
     29 O29         4.5090   -7.4360    7.0050 oh        1 TP3     -0.601100
     30 HC11        0.2570   -0.1340   -0.9670 hc        1 TP3      0.031700
     31 HC12       -1.0900   -0.8040    0.0330 hc        1 TP3      0.031700
     32 HC21        1.7370   -1.4190    0.2920 h1        1 TP3      0.035700
     33 HC22        0.3970   -1.9090    1.4200 h1        1 TP3      0.035700
     34 HC41        0.0590    1.1530    2.9160 h1        1 TP3      0.053700
     35 HC51       -0.0200    1.9470    0.0630 hc        1 TP3      0.045700
     36 HC52       -1.3410    1.2630    1.0880 hc        1 TP3      0.045700
     37 H131        4.0820   -2.3640    0.9400 ha        1 TP3      0.145000
     38 H141        4.1840   -4.8400    1.3190 ha        1 TP3      0.135500
     39 H161        2.0190   -4.3340    5.0310 ha        1 TP3      0.135500
     40 H171        1.9520   -1.8830    4.6510 ha        1 TP3      0.145000
     41 H191        1.3550   -6.3900    4.2360 hn        1 TP3      0.330500
     42 H201        2.5600   -8.7150    3.1110 h1        1 TP3      0.062700
     43 H211        2.2960   -8.5510    6.1990 hc        1 TP3      0.059700
     44 H212        2.2300  -10.0810    5.2400 hc        1 TP3      0.059700
     45 H221        4.4990  -10.1550    4.9930 hc        1 TP3      0.089200
     46 H222        4.5700   -8.4440    4.3990 hc        1 TP3      0.089200
     47 H192        3.9020   -6.9780    6.4020 ho        1 TP3      0.446000
@<TRIPOS>BOND
     1    1    2 1   
     2    1    5 1   
     3    1   30 1   
     4    1   31 1   
     5    2    3 1   
     6    2   32 1   
     7    2   33 1   
     8    3    4 1   
     9    3    9 1   
    10    4    5 1   
    11    4    6 1   
    12    4   34 1   
    13    5   35 1   
    14    5   36 1   
    15    6    7 1   
    16    6    8 1   
    17    9   10 1   
    18    9   11 2   
    19    9   12 2   
    20   10   13 ar  
    21   10   17 ar  
    22   13   14 ar  
    23   13   37 1   
    24   14   15 ar  
    25   14   38 1   
    26   15   16 ar  
    27   15   18 1   
    28   16   17 ar  
    29   16   39 1   
    30   17   40 1   
    31   18   19 1   
    32   18   24 2   
    33   19   20 1   
    34   19   41 1   
    35   20   21 1   
    36   20   25 1   
    37   20   42 1   
    38   21   22 1   
    39   21   43 1   
    40   21   44 1   
    41   22   23 1   
    42   22   45 1   
    43   22   46 1   
    44   23   28 2   
    45   23   29 1   
    46   25   26 1   
    47   25   27 1   
    48   29   47 1   
@<TRIPOS>SUBSTRUCTURE
     1 TP3         1 TEMP              0 ****  ****    0 ROOT
