@<TRIPOS>MOLECULE
TP3
   47    48     1     0     0
SMALL
bcc


@<TRIPOS>ATOM
      1 C1         -0.1280   -0.2590    0.0740 c3        1 TP3     -0.090400
      2 C2          0.8910   -1.0300    0.9330 c3        1 TP3      0.238800
      3 N3          1.3930   -0.1490    1.9580 n3        1 TP3     -0.778500
      4 C4          0.6290    1.0940    1.9720 c3        1 TP3      0.094500
      5 C5         -0.3100    1.0940    0.7520 c3        1 TP3     -0.068400
      6 C6          1.5840    2.3190    1.9780 c         1 TP3      0.908600
      7 O7          1.1500    3.4710    1.7600 o         1 TP3     -0.812800
      8 O8          2.8050    2.0240    2.2320 o         1 TP3     -0.812800
      9 S9          2.9360   -0.1800    2.5410 sy        1 TP3      1.538200
     10 C10         2.9770   -1.9620    2.7720 ca        1 TP3     -0.273500
     11 O11         3.0630    0.2570    3.8730 o         1 TP3     -0.658800
     12 O12         3.9480   -0.0340    1.5720 o         1 TP3     -0.658800
     13 C13         3.6160   -2.7920    1.8490 ca        1 TP3     -0.056500
     14 C14         3.6860   -4.1690    2.0490 ca        1 TP3     -0.127500
     15 C15         3.1010   -4.7440    3.1850 ca        1 TP3     -0.112600
     16 C16         2.4650   -3.9210    4.1190 ca        1 TP3     -0.127500
     17 C17         2.4120   -2.5430    3.9070 ca        1 TP3     -0.056500
     18 C18         3.2150   -6.2260    3.3550 c         1 TP3      0.645700
     19 N19         2.2400   -6.8820    4.0740 ns        1 TP3     -0.524900
     20 C20         2.0860   -8.3230    4.0180 c3        1 TP3     -0.058300
     21 C21         2.6790   -9.0450    5.2340 c3        1 TP3     -0.075400
     22 C22         4.1950   -9.1010    5.2100 c3        1 TP3     -0.191400
     23 C23         4.8030   -8.6730    6.5070 c         1 TP3      0.639100
     24 O24         4.2170   -6.8330    2.9010 o         1 TP3     -0.659100
     25 C25         0.5730   -8.7610    3.9170 c         1 TP3      0.912600
     26 O26        -0.3220   -7.8890    4.0820 o         1 TP3     -0.827300
     27 O27         0.3710   -9.9800    3.6750 o         1 TP3     -0.827300
     28 O28         5.5860   -9.3100    7.2200 o         1 TP3     -0.552000
     29 O29         4.5100   -7.4350    7.0070 oh        1 TP3     -0.601100
     30 HC11       -1.0910   -0.8210    0.0210 hc        1 TP3      0.031700
     31 HC12        0.2570   -0.1360   -0.9670 hc        1 TP3      0.031700
     32 HC21        1.7390   -1.4130    0.2970 h1        1 TP3      0.035700
     33 HC22        0.3950   -1.9190    1.4150 h1        1 TP3      0.035700
     34 HC41        0.0220    1.1330    2.9200 h1        1 TP3      0.053700
     35 HC51       -0.0450    1.9380    0.0700 hc        1 TP3      0.045700
     36 HC52       -1.3670    1.2390    1.0830 hc        1 TP3      0.045700
     37 H131        4.0880   -2.3420    0.9590 ha        1 TP3      0.145000
     38 H141        4.2070   -4.8180    1.3290 ha        1 TP3      0.135500
     39 H161        2.0110   -4.3460    5.0270 ha        1 TP3      0.135500
     40 H171        1.9270   -1.8930    4.6550 ha        1 TP3      0.145000
     41 H191        3.9040   -6.9790    6.4020 ho        1 TP3      0.446000
     42 H201        2.6030   -8.7140    3.0930 h1        1 TP3      0.062700
     43 H211        2.3130   -8.5640    6.1790 hc        1 TP3      0.059700
     44 H212        2.2670  -10.0910    5.2140 hc        1 TP3      0.059700
     45 H221        4.5380  -10.1450    4.9850 hc        1 TP3      0.089200
     46 H222        4.6000   -8.4310    4.3980 hc        1 TP3      0.089200
     47 H192        1.3690   -6.4030    4.2180 hn        1 TP3      0.330500
@<TRIPOS>BOND
     1    1    2 1   
     2    1    5 1   
     3    1   30 1   
     4    1   31 1   
     5    2    3 1   
     6    2   32 1   
     7    2   33 1   
     8    3    4 1   
     9    3    9 1   
    10    4    5 1   
    11    4    6 1   
    12    4   34 1   
    13    5   35 1   
    14    5   36 1   
    15    6    7 1   
    16    6    8 1   
    17    9   10 1   
    18    9   11 2   
    19    9   12 2   
    20   10   13 ar  
    21   10   17 ar  
    22   13   14 ar  
    23   13   37 1   
    24   14   15 ar  
    25   14   38 1   
    26   15   16 ar  
    27   15   18 1   
    28   16   17 ar  
    29   16   39 1   
    30   17   40 1   
    31   18   19 1   
    32   18   24 2   
    33   19   20 1   
    34   19   47 1   
    35   20   21 1   
    36   20   25 1   
    37   20   42 1   
    38   21   22 1   
    39   21   43 1   
    40   21   44 1   
    41   22   23 1   
    42   22   45 1   
    43   22   46 1   
    44   23   28 2   
    45   23   29 1   
    46   25   26 1   
    47   25   27 1   
    48   29   41 1   
@<TRIPOS>SUBSTRUCTURE
     1 TP3         1 TEMP              0 ****  ****    0 ROOT
