@<TRIPOS>MOLECULE
TP3
   47    48     1     0     0
SMALL
bcc


@<TRIPOS>ATOM
      1 C1         -0.1590   -0.2740    0.0780 c3        1 TP3     -0.090400
      2 C2          0.8710   -1.0450    0.9250 c3        1 TP3      0.238800
      3 N3          1.4030   -0.1550    1.9280 n3        1 TP3     -0.778500
      4 C4          0.6510    1.0940    1.9420 c3        1 TP3      0.094500
      5 C5         -0.3140    1.0880    0.7430 c3        1 TP3     -0.068400
      6 C6          1.6170    2.3100    1.9130 c         1 TP3      0.908600
      7 O7          1.1890    3.4630    1.6890 o         1 TP3     -0.812800
      8 O8          2.8400    2.0070    2.1450 o         1 TP3     -0.812800
      9 S9          2.9580   -0.1940    2.4790 sy        1 TP3      1.538200
     10 C10         2.9870   -1.9740    2.7310 ca        1 TP3     -0.273500
     11 O11         3.1160    0.2580    3.8020 o         1 TP3     -0.658800
     12 O12         3.9500   -0.0700    1.4870 o         1 TP3     -0.658800
     13 C13         3.6000   -2.8210    1.8060 ca        1 TP3     -0.056500
     14 C14         3.6600   -4.1960    2.0220 ca        1 TP3     -0.127500
     15 C15         3.0940   -4.7510    3.1760 ca        1 TP3     -0.112600
     16 C16         2.4840   -3.9120    4.1120 ca        1 TP3     -0.127500
     17 C17         2.4390   -2.5350    3.8840 ca        1 TP3     -0.056500
     18 C18         3.1970   -6.2320    3.3630 c         1 TP3      0.645700
     19 N19         2.2290   -6.8700    4.1080 n         1 TP3     -0.524900
     20 C20         2.0610   -8.3100    4.0720 c3        1 TP3     -0.058300
     21 C21         2.6690   -9.0230    5.2870 c3        1 TP3     -0.075400
     22 C22         4.1850   -9.0920    5.2360 c3        1 TP3     -0.191400
     23 C23         4.8190   -8.6530    6.5170 c         1 TP3      0.639100
     24 O24         4.1850   -6.8540    2.8980 o         1 TP3     -0.659100
     25 C25         0.5430   -8.7350    4.0040 c         1 TP3      0.912600
     26 O26        -0.3410   -7.8530    4.1740 o         1 TP3     -0.827300
     27 O27         0.3250   -9.9560    3.7820 o         1 TP3     -0.827300
     28 O28         5.6090   -9.2880    7.2240 o         1 TP3     -0.552000
     29 O29         4.5460   -7.4060    7.0060 oh        1 TP3     -0.601100
     30 HC11       -1.1280   -0.8280    0.0520 hc        1 TP3      0.031700
     31 HC12        0.2050   -0.1680   -0.9730 hc        1 TP3      0.031700
     32 HC21        1.7020   -1.4440    0.2760 h1        1 TP3      0.035700
     33 HC22        0.3770   -1.9230    1.4280 h1        1 TP3      0.035700
     34 HC41        0.0640    1.1510    2.9030 h1        1 TP3      0.052700
     35 HC51       -0.0560    1.9220    0.0440 hc        1 TP3      0.045700
     36 HC52       -1.3620    1.2480    1.0940 hc        1 TP3      0.045700
     37 H131        4.0570   -2.3860    0.9010 ha        1 TP3      0.145000
     38 H141        4.1610   -4.8590    1.2990 ha        1 TP3      0.135500
     39 H161        2.0440   -4.3200    5.0340 ha        1 TP3      0.135500
     40 H171        1.9750   -1.8720    4.6340 ha        1 TP3      0.145000
     41 H191        3.9330   -6.9520    6.4060 ho        1 TP3      0.446000
     42 H201        2.5580   -8.7170    3.1430 h1        1 TP3      0.062700
     43 H211        2.3250   -8.5270    6.2320 hc        1 TP3      0.059700
     44 H212        2.2490  -10.0650    5.2870 hc        1 TP3      0.059700
     45 H221        4.5810   -8.4360    4.4090 hc        1 TP3      0.089200
     46 H222        4.5150  -10.1420    5.0190 hc        1 TP3      0.089200
     47 H192        1.3660   -6.3820    4.2610 hn        1 TP3      0.330500
@<TRIPOS>BOND
     1    1    2 1   
     2    1    5 1   
     3    1   30 1   
     4    1   31 1   
     5    2    3 1   
     6    2   32 1   
     7    2   33 1   
     8    3    4 1   
     9    3    9 1   
    10    4    5 1   
    11    4    6 1   
    12    4   34 1   
    13    5   35 1   
    14    5   36 1   
    15    6    7 1   
    16    6    8 1   
    17    9   10 1   
    18    9   11 2   
    19    9   12 2   
    20   10   13 ar  
    21   10   17 ar  
    22   13   14 ar  
    23   13   37 1   
    24   14   15 ar  
    25   14   38 1   
    26   15   16 ar  
    27   15   18 1   
    28   16   17 ar  
    29   16   39 1   
    30   17   40 1   
    31   18   19 1   
    32   18   24 2   
    33   19   20 1   
    34   19   47 1   
    35   20   21 1   
    36   20   25 1   
    37   20   42 1   
    38   21   22 1   
    39   21   43 1   
    40   21   44 1   
    41   22   23 1   
    42   22   45 1   
    43   22   46 1   
    44   23   28 2   
    45   23   29 1   
    46   25   26 1   
    47   25   27 1   
    48   29   41 1   
@<TRIPOS>SUBSTRUCTURE
     1 TP3         1 TEMP              0 ****  ****    0 ROOT
