@<TRIPOS>MOLECULE
TP4
   58    59     1     0     0
SMALL
bcc


@<TRIPOS>ATOM
      1 C1         -0.0760   -0.7320    0.5620 c3        1 TP4     -0.087400
      2 C2          1.4590   -0.7720    0.5260 c3        1 TP4      0.217800
      3 N3          1.9610   -0.1130    1.7200 n3        1 TP4     -0.808500
      4 C4          0.8840    0.5120    2.4460 c3        1 TP4      0.202500
      5 C5         -0.4530    0.1020    1.7820 c3        1 TP4     -0.080400
      6 C6          1.0220    2.0490    2.4100 c         1 TP4      0.519100
      7 O7          0.7140    2.7780    1.4760 o         1 TP4     -0.434100
      8 N8          1.5970    2.7010    3.6220 ny        1 TP4     -0.682800
      9 S9          3.4970   -0.2860    2.2930 sy        1 TP4      1.536200
     10 C10         3.5630   -1.8630    2.7750 ca        1 TP4     -0.434500
     11 O11         4.4200   -0.0350    1.2650 o         1 TP4     -0.671300
     12 O12         3.5570    0.6090    3.4030 o         1 TP4     -0.671300
     13 C13         4.0790   -2.8420    1.9090 ca        1 TP4     -0.019000
     14 C14         4.0780   -4.1840    2.2650 ca        1 TP4     -0.118500
     15 C15         3.5470   -4.5730    3.5000 ca        1 TP4     -0.031600
     16 C16         3.0800   -3.6090    4.3990 ca        1 TP4     -0.118500
     17 C17         3.0950   -2.2670    4.0350 ca        1 TP4     -0.019000
     18 C18         3.4520   -6.0410    3.8100 c         1 TP4      0.641700
     19 N19         2.2160   -6.5000    4.1980 ns        1 TP4     -0.484900
     20 C20         1.8110   -7.8730    3.9360 c3        1 TP4     -0.085300
     21 C21         1.3820   -8.6190    5.1990 c3        1 TP4     -0.067400
     22 C22         2.5400   -9.0640    6.0690 c3        1 TP4     -0.168400
     23 C23         3.0160   -7.9860    6.9940 c         1 TP4      0.638100
     24 O24         4.4790   -6.7570    3.7660 o         1 TP4     -0.634100
     25 C25         0.6060   -7.9280    2.9070 c         1 TP4      0.913600
     26 O26         0.0860   -6.8350    2.5510 o         1 TP4     -0.816300
     27 O27         0.2730   -9.0740    2.5180 o         1 TP4     -0.816300
     28 O28         4.1320   -7.2640    6.6810 oh        1 TP4     -0.606100
     29 O29         2.5280   -7.6760    8.0850 o         1 TP4     -0.531000
     30 C30         0.5310    2.9840    4.6490 c3        1 TP4      0.122800
     31 C31         1.0440    3.7910    5.8140 c3        1 TP4     -0.270400
     32 C32        -0.1570    4.6040    6.4170 c         1 TP4      0.931600
     33 O33        -0.0810    4.8770    7.6350 o         1 TP4     -0.798300
     34 O34        -1.0760    4.9200    5.6140 o         1 TP4     -0.798300
     35 HC11       -0.4910   -1.7680    0.6440 hc        1 TP4      0.073200
     36 HC12       -0.4730   -0.2730   -0.3760 hc        1 TP4      0.073200
     37 HC21        1.8490   -0.2390   -0.3860 h1        1 TP4      0.062200
     38 HC22        1.8290   -1.8360    0.5050 h1        1 TP4      0.062200
     39 HC41        0.8990    0.1790    3.5280 h1        1 TP4      0.082700
     40 HC51       -1.0570   -0.4970    2.5090 hc        1 TP4      0.078700
     41 HC52       -1.0480    1.0010    1.4870 hc        1 TP4      0.078700
     42 HN81        2.3290    2.1010    4.0360 hn        1 TP4      0.468300
     43 H131        4.4920   -2.5330    0.9320 ha        1 TP4      0.148000
     44 H141        4.4810   -4.9500    1.5820 ha        1 TP4      0.170000
     45 H161        2.6970   -3.9140    5.3870 ha        1 TP4      0.170000
     46 H171        2.7320   -1.5050    4.7460 ha        1 TP4      0.148000
     47 H191        4.4250   -7.4780    5.7800 ho        1 TP4      0.450000
     48 H201        2.6710   -8.4270    3.4600 h1        1 TP4      0.068700
     49 H211        0.8300   -9.5340    4.8450 hc        1 TP4      0.073700
     50 H212        0.6660   -8.0030    5.8020 hc        1 TP4      0.073700
     51 H221        2.2070   -9.9270    6.7060 hc        1 TP4      0.064700
     52 H222        3.3890   -9.4170    5.4260 hc        1 TP4      0.064700
     53 H301       -0.2970    3.5700    4.1370 hx        1 TP4      0.109700
     54 H302        0.1270    1.9930    4.9950 hx        1 TP4      0.109700
     55 H311        1.8030    4.5530    5.5090 hc        1 TP4      0.054700
     56 H312        1.4830    3.1400    6.6060 hc        1 TP4      0.054700
     57 H82         2.0270    3.5960    3.3600 hn        1 TP4      0.468300
     58 H192        1.4480   -5.8640    4.0510 hn        1 TP4      0.321500
@<TRIPOS>BOND
     1    1    2 1   
     2    1    5 1   
     3    1   35 1   
     4    1   36 1   
     5    2    3 1   
     6    2   37 1   
     7    2   38 1   
     8    3    4 1   
     9    3    9 1   
    10    4    5 1   
    11    4    6 1   
    12    4   39 1   
    13    5   40 1   
    14    5   41 1   
    15    6    7 2   
    16    6    8 1   
    17    8   30 1   
    18    8   42 1   
    19    8   57 1   
    20    9   10 1   
    21    9   11 2   
    22    9   12 2   
    23   10   13 ar  
    24   10   17 ar  
    25   13   14 ar  
    26   13   43 1   
    27   14   15 ar  
    28   14   44 1   
    29   15   16 ar  
    30   15   18 1   
    31   16   17 ar  
    32   16   45 1   
    33   17   46 1   
    34   18   19 1   
    35   18   24 2   
    36   19   20 1   
    37   19   58 1   
    38   20   21 1   
    39   20   25 1   
    40   20   48 1   
    41   21   22 1   
    42   21   49 1   
    43   21   50 1   
    44   22   23 1   
    45   22   51 1   
    46   22   52 1   
    47   23   28 1   
    48   23   29 2   
    49   25   26 1   
    50   25   27 1   
    51   28   47 1   
    52   30   31 1   
    53   30   53 1   
    54   30   54 1   
    55   31   32 1   
    56   31   55 1   
    57   31   56 1   
    58   32   33 1   
    59   32   34 1   
@<TRIPOS>SUBSTRUCTURE
     1 TP4         1 TEMP              0 ****  ****    0 ROOT
