@<TRIPOS>MOLECULE
TP4
   58    59     1     0     0
SMALL
bcc


@<TRIPOS>ATOM
      1 C1         -0.0740   -0.6620    0.4640 c3        1 TP4     -0.087400
      2 C2          1.4590   -0.7630    0.4460 c3        1 TP4      0.218800
      3 N3          1.9750   -0.1110    1.6360 n3        1 TP4     -0.809500
      4 C4          0.9150    0.5590    2.3490 c3        1 TP4      0.203500
      5 C5         -0.4310    0.1900    1.6770 c3        1 TP4     -0.080400
      6 C6          1.1050    2.0900    2.3010 c         1 TP4      0.519100
      7 O7          0.8390    2.8190    1.3550 o         1 TP4     -0.434100
      8 N8          1.6810    2.7350    3.5160 n4        1 TP4     -0.682800
      9 S9          3.5030   -0.3150    2.2150 sy        1 TP4      1.536200
     10 C10         3.5320   -1.8890    2.7140 ca        1 TP4     -0.432500
     11 O11         4.4360   -0.0990    1.1880 o         1 TP4     -0.670800
     12 O12         3.5820    0.5880    3.3160 o         1 TP4     -0.670800
     13 C13         4.0960   -2.8790    1.8920 ca        1 TP4     -0.017500
     14 C14         4.0770   -4.2170    2.2660 ca        1 TP4     -0.120000
     15 C15         3.4780   -4.5920    3.4740 ca        1 TP4     -0.035600
     16 C16         2.9580   -3.6150    4.3300 ca        1 TP4     -0.120000
     17 C17         2.9920   -2.2780    3.9490 ca        1 TP4     -0.017500
     18 C18         3.3770   -6.0590    3.7930 c         1 TP4      0.630700
     19 N19         2.1530   -6.5020    4.2430 n         1 TP4     -0.503900
     20 C20         1.7350   -7.8800    4.0180 c3        1 TP4     -0.081300
     21 C21         1.6540   -8.7020    5.3040 c3        1 TP4     -0.075400
     22 C22         3.0160   -8.9930    5.9050 c3        1 TP4     -0.185400
     23 C23         3.1580   -8.5130    7.3150 c         1 TP4      0.634100
     24 O24         4.3880   -6.7870    3.6890 o         1 TP4     -0.608100
     25 C25         0.3230   -7.9370    3.3030 c         1 TP4      0.915600
     26 O26        -0.2580   -6.8430    3.0630 o         1 TP4     -0.814800
     27 O27        -0.0980   -9.0820    3.0130 o         1 TP4     -0.814800
     28 O28         3.6070   -9.1440    8.2760 o         1 TP4     -0.529000
     29 O29         2.8010   -7.2320    7.6380 oh        1 TP4     -0.601100
     30 C30         0.6110    3.0390    4.5340 c3        1 TP4      0.123800
     31 C31         1.1290    3.8380    5.7010 c3        1 TP4     -0.271400
     32 C32        -0.0740    4.6420    6.3150 c         1 TP4      0.932600
     33 O33         0.0030    4.8990    7.5360 o         1 TP4     -0.797800
     34 O34        -0.9940    4.9660    5.5160 o         1 TP4     -0.797800
     35 HC11       -0.4420   -0.1900   -0.4800 hc        1 TP4      0.072700
     36 HC12       -0.5310   -1.6790    0.5440 hc        1 TP4      0.072700
     37 HC21        1.7860   -1.8410    0.4410 h1        1 TP4      0.062200
     38 HC22        1.8790   -0.2580   -0.4690 h1        1 TP4      0.062200
     39 HC41        0.9100    0.2340    3.4330 h1        1 TP4      0.082700
     40 HC51       -0.9940    1.1070    1.3740 hc        1 TP4      0.079200
     41 HC52       -1.0600   -0.3840    2.4030 hc        1 TP4      0.079200
     42 HN81        2.1300    3.6210    3.2560 hn        1 TP4      0.468300
     43 H131        4.5650   -2.5830    0.9360 ha        1 TP4      0.149000
     44 H141        4.5230   -4.9910    1.6200 ha        1 TP4      0.166500
     45 H161        2.5160   -3.9020    5.2980 ha        1 TP4      0.166500
     46 H171        2.5870   -1.5080    4.6280 ha        1 TP4      0.149000
     47 H191        2.4430   -6.7900    6.8550 ho        1 TP4      0.437000
     48 H201        2.4710   -8.3820    3.3250 h1        1 TP4      0.066700
     49 H211        1.1500   -9.6680    5.0210 hc        1 TP4      0.068700
     50 H212        0.9860   -8.1930    6.0470 hc        1 TP4      0.068700
     51 H221        3.8290   -8.5030    5.2980 hc        1 TP4      0.086200
     52 H222        3.2120  -10.0980    5.8940 hc        1 TP4      0.086200
     53 H301        0.1850    2.0580    4.8780 hx        1 TP4      0.109200
     54 H302       -0.2020    3.6400    4.0130 hx        1 TP4      0.109200
     55 H311        1.8830    4.6050    5.3960 hc        1 TP4      0.054700
     56 H312        1.5740    3.1840    6.4860 hc        1 TP4      0.054700
     57 H82         2.3970    2.1220    3.9390 hn        1 TP4      0.468300
     58 H192        1.3810   -5.8650    4.1170 hn        1 TP4      0.324500
@<TRIPOS>BOND
     1    1    2 1   
     2    1    5 1   
     3    1   35 1   
     4    1   36 1   
     5    2    3 1   
     6    2   37 1   
     7    2   38 1   
     8    3    4 1   
     9    3    9 1   
    10    4    5 1   
    11    4    6 1   
    12    4   39 1   
    13    5   40 1   
    14    5   41 1   
    15    6    7 2   
    16    6    8 1   
    17    8   30 1   
    18    8   42 1   
    19    8   57 1   
    20    9   10 1   
    21    9   11 2   
    22    9   12 2   
    23   10   13 ar  
    24   10   17 ar  
    25   13   14 ar  
    26   13   43 1   
    27   14   15 ar  
    28   14   44 1   
    29   15   16 ar  
    30   15   18 1   
    31   16   17 ar  
    32   16   45 1   
    33   17   46 1   
    34   18   19 1   
    35   18   24 2   
    36   19   20 1   
    37   19   58 1   
    38   20   21 1   
    39   20   25 1   
    40   20   48 1   
    41   21   22 1   
    42   21   49 1   
    43   21   50 1   
    44   22   23 1   
    45   22   51 1   
    46   22   52 1   
    47   23   28 2   
    48   23   29 1   
    49   25   26 1   
    50   25   27 1   
    51   29   47 1   
    52   30   31 1   
    53   30   53 1   
    54   30   54 1   
    55   31   32 1   
    56   31   55 1   
    57   31   56 1   
    58   32   33 1   
    59   32   34 1   
@<TRIPOS>SUBSTRUCTURE
     1 TP4         1 TEMP              0 ****  ****    0 ROOT
