@<TRIPOS>MOLECULE
TP4
   58    59     1     0     0
SMALL
bcc


@<TRIPOS>ATOM
      1 C1          0.0160   -0.5960    0.4460 c3        1 TP4     -0.087400
      2 C2          1.5490   -0.7000    0.4670 c3        1 TP4      0.218800
      3 N3          2.0330   -0.0710    1.6840 n3        1 TP4     -0.809500
      4 C4          0.9550    0.5870    2.3800 c3        1 TP4      0.203500
      5 C5         -0.3730    0.2330    1.6650 c3        1 TP4     -0.080400
      6 C6          1.1490    2.1180    2.3680 c         1 TP4      0.519100
      7 O7          0.9090    2.8660    1.4290 o         1 TP4     -0.434100
      8 N8          1.6920    2.7370    3.6110 n4        1 TP4     -0.682800
      9 S9          3.5450   -0.2900    2.3000 sy        1 TP4      1.536200
     10 C10         3.5580   -1.8730    2.7700 ca        1 TP4     -0.432500
     11 O11         4.5060   -0.0560    1.3030 o         1 TP4     -0.670800
     12 O12         3.5950    0.5920    3.4200 o         1 TP4     -0.670800
     13 C13         4.1410   -2.8490    1.9440 ca        1 TP4     -0.017500
     14 C14         4.1090   -4.1930    2.2920 ca        1 TP4     -0.120000
     15 C15         3.4780   -4.5900    3.4780 ca        1 TP4     -0.035600
     16 C16         2.9380   -3.6280    4.3380 ca        1 TP4     -0.120000
     17 C17         2.9850   -2.2840    3.9830 ca        1 TP4     -0.017500
     18 C18         3.3680   -6.0620    3.7660 c         1 TP4      0.630700
     19 N19         2.1320   -6.5110    4.1780 n         1 TP4     -0.503900
     20 C20         1.7170   -7.8830    3.9170 c3        1 TP4     -0.081300
     21 C21         1.6040   -8.7290    5.1860 c3        1 TP4     -0.075400
     22 C22         2.9500   -9.0330    5.8150 c3        1 TP4     -0.185400
     23 C23         3.0590   -8.5790    7.2360 c         1 TP4      0.634100
     24 O24         4.3790   -6.7900    3.6730 o         1 TP4     -0.608100
     25 C25         0.3230   -7.9250    3.1680 c         1 TP4      0.915600
     26 O26        -0.2510   -6.8240    2.9340 o         1 TP4     -0.814800
     27 O27        -0.0930   -9.0630    2.8480 o         1 TP4     -0.814800
     28 O28         2.6960   -7.3040    7.5740 oh        1 TP4     -0.601100
     29 O29         3.4840   -9.2290    8.1960 o         1 TP4     -0.529000
     30 C30         0.5940    3.0240    4.6040 c3        1 TP4      0.123800
     31 C31         1.0800    3.7990    5.8010 c3        1 TP4     -0.271400
     32 C32        -0.1380    4.5930    6.3960 c         1 TP4      0.932600
     33 O33        -0.0950    4.8260    7.6240 o         1 TP4     -0.797800
     34 O34        -1.0330    4.9360    5.5780 o         1 TP4     -0.797800
     35 HC11       -0.4450   -1.6140    0.4930 hc        1 TP4      0.072700
     36 HC12       -0.3250   -0.1050   -0.4980 hc        1 TP4      0.072700
     37 HC21        1.9940   -0.1780   -0.4260 h1        1 TP4      0.062200
     38 HC22        1.8740   -1.7780    0.4500 h1        1 TP4      0.062200
     39 HC41        0.9190    0.2400    3.4570 h1        1 TP4      0.082700
     40 HC51       -0.9260    1.1570    1.3640 hc        1 TP4      0.079200
     41 HC52       -1.0220   -0.3530    2.3610 hc        1 TP4      0.079200
     42 HN81        2.1490    3.6280    3.3800 hn        1 TP4      0.468300
     43 H131        4.6340   -2.5360    1.0060 ha        1 TP4      0.149000
     44 H141        4.5700   -4.9570    1.6440 ha        1 TP4      0.166500
     45 H161        2.4710   -3.9320    5.2880 ha        1 TP4      0.166500
     46 H171        2.5640   -1.5260    4.6660 ha        1 TP4      0.149000
     47 H191        2.3580   -6.8470    6.7900 ho        1 TP4      0.437000
     48 H201        2.4690   -8.3740    3.2330 h1        1 TP4      0.066700
     49 H211        0.9190   -8.2320    5.9220 hc        1 TP4      0.068700
     50 H212        1.1050   -9.6880    4.8740 hc        1 TP4      0.068700
     51 H221        3.1450  -10.1380    5.7890 hc        1 TP4      0.086200
     52 H222        3.7780   -8.5340    5.2360 hc        1 TP4      0.086200
     53 H301       -0.2030    3.6370    4.0730 hx        1 TP4      0.109200
     54 H302        0.1580    2.0360    4.9160 hx        1 TP4      0.109200
     55 H311        1.8450    4.5690    5.5330 hc        1 TP4      0.054700
     56 H312        1.5020    3.1280    6.5850 hc        1 TP4      0.054700
     57 H82         2.3950    2.1150    4.0400 hn        1 TP4      0.468300
     58 H192        1.3650   -5.8700    4.0450 hn        1 TP4      0.324500
@<TRIPOS>BOND
     1    1    2 1   
     2    1    5 1   
     3    1   35 1   
     4    1   36 1   
     5    2    3 1   
     6    2   37 1   
     7    2   38 1   
     8    3    4 1   
     9    3    9 1   
    10    4    5 1   
    11    4    6 1   
    12    4   39 1   
    13    5   40 1   
    14    5   41 1   
    15    6    7 2   
    16    6    8 1   
    17    8   30 1   
    18    8   42 1   
    19    8   57 1   
    20    9   10 1   
    21    9   11 2   
    22    9   12 2   
    23   10   13 ar  
    24   10   17 ar  
    25   13   14 ar  
    26   13   43 1   
    27   14   15 ar  
    28   14   44 1   
    29   15   16 ar  
    30   15   18 1   
    31   16   17 ar  
    32   16   45 1   
    33   17   46 1   
    34   18   19 1   
    35   18   24 2   
    36   19   20 1   
    37   19   58 1   
    38   20   21 1   
    39   20   25 1   
    40   20   48 1   
    41   21   22 1   
    42   21   49 1   
    43   21   50 1   
    44   22   23 1   
    45   22   51 1   
    46   22   52 1   
    47   23   28 1   
    48   23   29 2   
    49   25   26 1   
    50   25   27 1   
    51   28   47 1   
    52   30   31 1   
    53   30   53 1   
    54   30   54 1   
    55   31   32 1   
    56   31   55 1   
    57   31   56 1   
    58   32   33 1   
    59   32   34 1   
@<TRIPOS>SUBSTRUCTURE
     1 TP4         1 TEMP              0 ****  ****    0 ROOT
