@<TRIPOS>MOLECULE
TP4
   56    57     1     0     0
SMALL
bcc


@<TRIPOS>ATOM
      1 C1          2.1250   -2.5530   -2.1200 c3        1 TP4     -0.084400
      2 C2          2.3590   -1.0340   -2.1740 c3        1 TP4      0.225800
      3 N3          1.1500   -0.4080   -2.6700 n3        1 TP4     -0.805500
      4 C4          0.2830   -1.4080   -3.2700 c3        1 TP4      0.170500
      5 C5          0.7660   -2.7900   -2.7690 c3        1 TP4     -0.081400
      6 C6          0.2930   -1.3590   -4.8240 c         1 TP4      0.638100
      7 O7          0.8380   -2.2770   -5.4760 o         1 TP4     -0.644100
      8 N8         -0.2940   -0.2740   -5.4130 n         1 TP4     -0.547900
      9 S9          0.6950    1.1100   -2.2970 sy        1 TP4      1.515200
     10 C10         0.6880    1.1150   -0.6180 ca        1 TP4     -0.403500
     11 O11         1.6650    2.0410   -2.7350 o         1 TP4     -0.664800
     12 O12        -0.6190    1.3130   -2.7910 o         1 TP4     -0.664800
     13 C13         1.7900    1.6270    0.0870 ca        1 TP4     -0.032000
     14 C14         1.8040    1.6580    1.4750 ca        1 TP4     -0.130000
     15 C15         0.7110    1.1640    2.1990 ca        1 TP4     -0.042600
     16 C16        -0.3980    0.6580    1.5140 ca        1 TP4     -0.130000
     17 C17        -0.4040    0.6410    0.1210 ca        1 TP4     -0.032000
     18 C18         0.7680    1.2290    3.7050 c         1 TP4      0.638700
     19 N19         0.3940    0.1040    4.3850 n         1 TP4     -0.467900
     20 C20         0.7500   -0.1220    5.7820 c3        1 TP4     -0.052300
     21 C21        -0.4340   -0.6420    6.6090 c3        1 TP4     -0.050400
     22 C22        -1.5050    0.3970    6.8430 c3        1 TP4     -0.181400
     23 C23        -2.6950   -0.1500    7.6410 c         1 TP4      0.904600
     24 O24         1.0900    2.3190    4.2360 o         1 TP4     -0.642100
     25 C25         1.9330   -1.1470    5.8960 c         1 TP4      0.901600
     26 O26         2.6660   -1.0740    6.9200 o         1 TP4     -0.850800
     27 O27         2.1110   -1.9780    4.9570 o         1 TP4     -0.850800
     28 O28        -3.0020    0.4190    8.7340 o         1 TP4     -0.874800
     29 O29        -3.3660   -1.1190    7.1740 o         1 TP4     -0.874800
     30 C30        -0.4710   -0.1570   -6.8460 c3        1 TP4      0.089000
     31 C31        -1.9210   -0.0760   -7.3020 c3        1 TP4     -0.215400
     32 C32        -2.0010    0.2000   -8.8140 c         1 TP4      0.912600
     33 O33        -2.9560   -0.3300   -9.4540 o         1 TP4     -0.855300
     34 O34        -1.1370    0.9540   -9.3480 o         1 TP4     -0.855300
     35 HC11        2.1350   -2.9120   -1.0620 hc        1 TP4      0.051200
     36 HC12        2.9330   -3.0850   -2.6770 hc        1 TP4      0.051200
     37 HC21        2.6040   -0.6290   -1.1510 h1        1 TP4      0.047700
     38 HC22        3.2160   -0.7960   -2.8640 h1        1 TP4      0.047700
     39 HC41       -0.7810   -1.2280   -2.9300 h1        1 TP4      0.067700
     40 HC51        0.0350   -3.1930   -2.0260 hc        1 TP4      0.065200
     41 HC52        0.8430   -3.5120   -3.6190 hc        1 TP4      0.065200
     42 HN81       -0.8070    0.3650   -4.8450 hn        1 TP4      0.324500
     43 H131        2.6490    2.0240   -0.4810 ha        1 TP4      0.141000
     44 H141        2.6640    2.0750    2.0230 ha        1 TP4      0.159000
     45 H161       -1.2650    0.2760    2.0770 ha        1 TP4      0.159000
     46 H171       -1.2880    0.2580   -0.4160 ha        1 TP4      0.141000
     47 H191        0.3610   -0.7490    3.8620 hn        1 TP4      0.311500
     48 H201        1.0960    0.8570    6.2230 h1        1 TP4      0.071700
     49 H211       -0.8910   -1.5420    6.1200 hc        1 TP4      0.050700
     50 H212       -0.0090   -0.9730    7.5940 hc        1 TP4      0.050700
     51 H221       -1.0700    1.2720    7.3910 hc        1 TP4      0.019700
     52 H222       -1.8980    0.7680    5.8630 hc        1 TP4      0.019700
     53 H301        0.0250   -1.0350   -7.3470 h1        1 TP4      0.067700
     54 H302        0.0590    0.7800   -7.1850 h1        1 TP4      0.067700
     55 H311       -2.4540    0.7570   -6.7780 hc        1 TP4      0.028700
     56 H312       -2.4620   -1.0280   -7.0760 hc        1 TP4      0.028700
@<TRIPOS>BOND
     1    1    2 1   
     2    1    5 1   
     3    1   35 1   
     4    1   36 1   
     5    2    3 1   
     6    2   37 1   
     7    2   38 1   
     8    3    4 1   
     9    3    9 1   
    10    4    5 1   
    11    4    6 1   
    12    4   39 1   
    13    5   40 1   
    14    5   41 1   
    15    6    7 2   
    16    6    8 1   
    17    8   30 1   
    18    8   42 1   
    19    9   10 1   
    20    9   11 2   
    21    9   12 2   
    22   10   13 ar  
    23   10   17 ar  
    24   13   14 ar  
    25   13   43 1   
    26   14   15 ar  
    27   14   44 1   
    28   15   16 ar  
    29   15   18 1   
    30   16   17 ar  
    31   16   45 1   
    32   17   46 1   
    33   18   19 1   
    34   18   24 2   
    35   19   20 1   
    36   19   47 1   
    37   20   21 1   
    38   20   25 1   
    39   20   48 1   
    40   21   22 1   
    41   21   49 1   
    42   21   50 1   
    43   22   23 1   
    44   22   51 1   
    45   22   52 1   
    46   23   28 1   
    47   23   29 1   
    48   25   26 1   
    49   25   27 1   
    50   30   31 1   
    51   30   53 1   
    52   30   54 1   
    53   31   32 1   
    54   31   55 1   
    55   31   56 1   
    56   32   33 1   
    57   32   34 1   
@<TRIPOS>SUBSTRUCTURE
     1 TP4         1 TEMP              0 ****  ****    0 ROOT
