@<TRIPOS>MOLECULE
TP5
   15    15     1     0     0
SMALL
bcc


@<TRIPOS>ATOM
      1 C4          0.1370   -0.6790    0.2370 cc        1 TP5     -0.204100
      2 S1          1.7560   -0.4580    0.0710 ss        1 TP5      0.273200
      3 C5          1.9230    0.3750    1.4940 cc        1 TP5     -0.193100
      4 C3          0.7210    0.5050    2.1630 cd        1 TP5     -0.108000
      5 C1         -0.3330   -0.1160    1.4230 cd        1 TP5     -0.311900
      6 C2         -1.7040   -0.1810    1.9150 cf        1 TP5      0.624800
      7 N2         -2.6810    0.4090    0.9250 nz        1 TP5     -0.824600
      8 N1         -2.2020   -0.6200    3.0060 n2        1 TP5     -0.717100
      9 HC4        -0.4660   -1.2370   -0.4810 h4        1 TP5      0.180000
     10 HC5         2.8780    0.7660    1.8550 h4        1 TP5      0.207000
     11 HC3         0.5820    1.0110    3.1220 ha        1 TP5      0.176000
     12 HN21       -3.6580    0.2580    1.2080 hn        1 TP5      0.469133
     13 HN22       -2.5130   -0.0270    0.0140 hn        1 TP5      0.469133
     14 HN1        -1.5860   -1.0270    3.6800 hn        1 TP5      0.489400
     15 H23        -2.4980    1.4160    0.8570 hn        1 TP5      0.469133
@<TRIPOS>BOND
     1    1    2 1   
     2    1    5 2   
     3    1    9 1   
     4    2    3 1   
     5    3    4 2   
     6    3   10 1   
     7    4    5 1   
     8    4   11 1   
     9    5    6 1   
    10    6    7 1   
    11    6    8 2   
    12    7   12 1   
    13    7   13 1   
    14    7   15 1   
    15    8   14 1   
@<TRIPOS>SUBSTRUCTURE
     1 TP5         1 TEMP              0 ****  ****    0 ROOT
