@<TRIPOS>MOLECULE
TP5
   14    14     1     0     0
SMALL
bcc


@<TRIPOS>ATOM
      1 C4          0.4890    0.9740    0.3820 cc        1 TP5     -0.160100
      2 S1          2.0890    0.5270    0.2620 ss        1 TP5      0.036200
      3 C5          1.7380   -1.0550   -0.1500 cc        1 TP5     -0.184100
      4 C3          0.3810   -1.2800   -0.1990 cd        1 TP5     -0.107000
      5 C1         -0.3550   -0.0870    0.1090 cd        1 TP5     -0.172900
      6 C2         -1.8370   -0.0410    0.1370 cf        1 TP5      0.674800
      7 N2         -2.3910    1.2120   -0.2220 nh        1 TP5     -0.954800
      8 N1         -2.4850   -1.0950    0.5360 n2        1 TP5     -0.828100
      9 HC4         0.1760    1.9780    0.6660 h4        1 TP5      0.177000
     10 HC5         2.5100   -1.7980   -0.3430 h4        1 TP5      0.174000
     11 HC3        -0.1020   -2.2340   -0.4260 ha        1 TP5      0.172000
     12 HN21       -1.7970    1.7980   -0.7620 hn        1 TP5      0.395300
     13 HN22       -3.3370    1.2040   -0.5280 hn        1 TP5      0.395300
     14 HN1        -3.4810   -1.0290    0.5380 hn        1 TP5      0.381400
@<TRIPOS>BOND
     1    1    2 1   
     2    1    5 2   
     3    1    9 1   
     4    2    3 1   
     5    3    4 2   
     6    3   10 1   
     7    4    5 1   
     8    4   11 1   
     9    5    6 1   
    10    6    7 1   
    11    6    8 2   
    12    7   12 1   
    13    7   13 1   
    14    8   14 1   
@<TRIPOS>SUBSTRUCTURE
     1 TP5         1 TEMP              0 ****  ****    0 ROOT
