@<TRIPOS>MOLECULE
TP5
   15    15     1     0     0
SMALL
bcc


@<TRIPOS>ATOM
      1 C4          0.1360   -0.6360    0.2120 cc        1 TP5     -0.204100
      2 S1          1.7550   -0.4140    0.0570 ss        1 TP5      0.273200
      3 C5          1.9240    0.3630    1.5100 cc        1 TP5     -0.193100
      4 C3          0.7210    0.4720    2.1820 cd        1 TP5     -0.108000
      5 C1         -0.3340   -0.1170    1.4180 cd        1 TP5     -0.311900
      6 C2         -1.7060   -0.1950    1.9060 cf        1 TP5      0.624800
      7 N2         -2.6790    0.4370    0.9390 n4        1 TP5     -0.824600
      8 N1         -2.2070   -0.6750    2.9780 n2        1 TP5     -0.717100
      9 HC4        -0.4680   -1.1640   -0.5270 h4        1 TP5      0.180000
     10 HC5         2.8800    0.7370    1.8870 h4        1 TP5      0.207000
     11 HC3         0.5830    0.9420    3.1590 ha        1 TP5      0.176000
     12 HN21       -3.6560    0.2780    1.2140 hn        1 TP5      0.469133
     13 HN22       -2.5110    0.0360    0.0110 hn        1 TP5      0.469133
     14 HN1        -1.5930   -1.1110    3.6360 hn        1 TP5      0.489400
     15 H23        -2.4920    1.4440    0.9100 hn        1 TP5      0.469133
@<TRIPOS>BOND
     1    1    2 1   
     2    1    5 2   
     3    1    9 1   
     4    2    3 1   
     5    3    4 2   
     6    3   10 1   
     7    4    5 1   
     8    4   11 1   
     9    5    6 1   
    10    6    7 1   
    11    6    8 2   
    12    7   12 1   
    13    7   13 1   
    14    7   15 1   
    15    8   14 1   
@<TRIPOS>SUBSTRUCTURE
     1 TP5         1 TEMP              0 ****  ****    0 ROOT
