@<TRIPOS>MOLECULE
TP5
   15    15     1     0     0
SMALL
bcc


@<TRIPOS>ATOM
      1 C4          0.1420   -0.6750    0.2380 cc        1 TP5     -0.204100
      2 S1          1.7560   -0.4310    0.0630 ss        1 TP5      0.273200
      3 C5          1.9180    0.4130    1.4790 cc        1 TP5     -0.193100
      4 C3          0.7170    0.5310    2.1530 cd        1 TP5     -0.108000
      5 C1         -0.3310   -0.1120    1.4230 cd        1 TP5     -0.311900
      6 C2         -1.6990   -0.1930    1.9220 cf        1 TP5      0.624800
      7 N2         -2.6890    0.3750    0.9320 n4        1 TP5     -0.824600
      8 N1         -2.1850   -0.6310    3.0190 n2        1 TP5     -0.717100
      9 HC4        -0.4570   -1.2470   -0.4730 h4        1 TP5      0.180000
     10 HC5         2.8690    0.8220    1.8330 h4        1 TP5      0.207000
     11 HC3         0.5760    1.0410    3.1090 ha        1 TP5      0.176000
     12 HN21       -2.5210    1.3830    0.8560 hn        1 TP5      0.469133
     13 HN22       -3.6620    0.2110    1.2210 hn        1 TP5      0.469133
     14 HN1        -1.5590   -1.0240    3.6920 hn        1 TP5      0.489400
     15 H23        -2.5190   -0.0660    0.0230 hn        1 TP5      0.469133
@<TRIPOS>BOND
     1    1    2 1   
     2    1    5 2   
     3    1    9 1   
     4    2    3 1   
     5    3    4 2   
     6    3   10 1   
     7    4    5 1   
     8    4   11 1   
     9    5    6 1   
    10    6    7 1   
    11    6    8 2   
    12    7   12 1   
    13    7   13 1   
    14    7   15 1   
    15    8   14 1   
@<TRIPOS>SUBSTRUCTURE
     1 TP5         1 TEMP              0 ****  ****    0 ROOT
