@<TRIPOS>MOLECULE
TP6
   54    55     1     0     0
SMALL
bcc


@<TRIPOS>ATOM
      1 O2P        -7.3220   -2.3180    0.7910 o         1 TP6     -0.842000
      2 P          -6.7950   -1.8060    2.0780 p5        1 TP6      1.428800
      3 O3P        -7.5790   -1.5070    3.2890 o         1 TP6     -0.842000
      4 O1P        -5.5980   -2.8760    2.3980 oh        1 TP6     -0.783400
      5 O27        -5.8610   -0.4870    1.7380 os        1 TP6     -0.575200
      6 C19        -5.1760   -0.4860    0.5250 c3        1 TP6      0.191400
      7 C18        -3.6730   -0.3540    0.7570 c3        1 TP6     -0.105400
      8 C17        -2.9410   -0.2110   -0.5590 c3        1 TP6     -0.072400
      9 C16        -1.4580    0.0250   -0.3620 c3        1 TP6     -0.105400
     10 C15        -0.7720    0.1710   -1.7210 c3        1 TP6      0.071000
     11 N5          0.6420    0.4590   -1.7290 n         1 TP6     -0.258000
     12 C9          1.1180    1.7430   -1.3350 cc        1 TP6     -0.338600
     13 C4          0.6080    3.0380   -1.6750 c         1 TP6      0.759700
     14 O2         -0.4390    3.3180   -2.2960 o         1 TP6     -0.680500
     15 N3          1.4150    4.1200   -1.2350 n         1 TP6     -0.593500
     16 C6          1.5750   -0.4880   -1.1610 c         1 TP6      0.735500
     17 O4          1.5060   -1.7240   -1.2840 o         1 TP6     -0.637500
     18 N7          2.7380    0.2280   -0.6390 n         1 TP6     -0.076600
     19 C8          2.3530    1.5820   -0.6270 cd        1 TP6      0.106200
     20 N1          3.0900    2.6840   -0.2260 n         1 TP6     -0.438100
     21 C2          2.6090    3.9700   -0.5170 c         1 TP6      0.807500
     22 O1          3.2560    4.9820   -0.1430 o         1 TP6     -0.705500
     23 C10         3.6080   -0.3760    0.2430 c2        1 TP6     -0.477500
     24 C11         4.9280    0.1690    0.5510 c3        1 TP6      0.163800
     25 O19         4.9010    1.1920    1.5690 oh        1 TP6     -0.687800
     26 C12         5.8590   -0.9480    1.0720 c3        1 TP6      0.106100
     27 O21         7.0810   -0.4070    1.5680 oh        1 TP6     -0.634800
     28 C13         6.2450   -1.9850    0.0050 c3        1 TP6      0.122100
     29 O23         5.8740   -1.6400   -1.3140 oh        1 TP6     -0.629800
     30 C14         5.6360   -3.3510    0.3500 c3        1 TP6      0.096400
     31 O26         5.9840   -4.3180   -0.6230 oh        1 TP6     -0.621800
     32 H191       -5.5270    0.4010   -0.0780 h1        1 TP6      0.019700
     33 H192       -5.4030   -1.4250   -0.0540 h1        1 TP6      0.019700
     34 H181       -3.3010   -1.2540    1.3130 hc        1 TP6      0.045700
     35 H182       -3.4810    0.5380    1.4060 hc        1 TP6      0.045700
     36 H171       -3.3780    0.6470   -1.1380 hc        1 TP6      0.032700
     37 H172       -3.0950   -1.1370   -1.1740 hc        1 TP6      0.032700
     38 H161       -1.0070   -0.8330    0.2020 hc        1 TP6      0.049200
     39 H162       -1.3010    0.9520    0.2490 hc        1 TP6      0.049200
     40 H151       -1.2680    1.0100   -2.2910 h1        1 TP6      0.067700
     41 H152       -0.8990   -0.7930   -2.2920 h1        1 TP6      0.067700
     42 H3          1.1100    5.0500   -1.4120 hn        1 TP6      0.332500
     43 H1          3.9010    2.5830    0.3520 hn        1 TP6      0.376500
     44 H101        3.2510   -1.2780    0.7430 h4        1 TP6      0.007800
     45 H102       -5.3940   -3.4110    1.6400 ho        1 TP6      0.421000
     46 H11         5.4280    0.6950   -0.3140 h1        1 TP6      0.054700
     47 HA          4.2030    0.9570    2.1890 ho        1 TP6      0.404000
     48 H12         5.3520   -1.4650    1.9370 h1        1 TP6      0.034700
     49 H21         6.9010    0.4980    1.8530 ho        1 TP6      0.416000
     50 H13         7.3700   -2.0710   -0.0400 h1        1 TP6      0.075700
     51 H23         4.9280   -1.4110   -1.3030 ho        1 TP6      0.448000
     52 H141        4.5180   -3.2670    0.4160 h1        1 TP6      0.051200
     53 H142        6.0510   -3.7400    1.3150 h1        1 TP6      0.051200
     54 H26         5.8070   -3.9170   -1.4850 ho        1 TP6      0.413000
@<TRIPOS>BOND
     1    1    2 1   
     2    2    3 1   
     3    2    4 1   
     4    2    5 1   
     5    4   45 1   
     6    5    6 1   
     7    6    7 1   
     8    6   32 1   
     9    6   33 1   
    10    7    8 1   
    11    7   34 1   
    12    7   35 1   
    13    8    9 1   
    14    8   36 1   
    15    8   37 1   
    16    9   10 1   
    17    9   38 1   
    18    9   39 1   
    19   10   11 1   
    20   10   40 1   
    21   10   41 1   
    22   11   12 1   
    23   11   16 1   
    24   12   13 1   
    25   12   19 2   
    26   13   14 2   
    27   13   15 1   
    28   15   21 1   
    29   15   42 1   
    30   16   17 2   
    31   16   18 1   
    32   18   19 1   
    33   18   23 2   
    34   19   20 1   
    35   20   21 1   
    36   20   43 1   
    37   21   22 2   
    38   23   24 1   
    39   23   44 1   
    40   24   25 1   
    41   24   26 1   
    42   24   46 1   
    43   25   47 1   
    44   26   27 1   
    45   26   28 1   
    46   26   48 1   
    47   27   49 1   
    48   28   29 1   
    49   28   30 1   
    50   28   50 1   
    51   29   51 1   
    52   30   31 1   
    53   30   52 1   
    54   30   53 1   
    55   31   54 1   
@<TRIPOS>SUBSTRUCTURE
     1 TP6         1 TEMP              0 ****  ****    0 ROOT
