@<TRIPOS>MOLECULE
TP6
   54    55     1     0     0
SMALL
bcc


@<TRIPOS>ATOM
      1 O2P         0.0000    0.0000    0.0000 o         1 TP6     -0.722167
      2 P           1.6100    0.0000    0.0000 p5        1 TP6      0.701900
      3 O3P         2.1460    0.0000    1.5180 o         1 TP6     -0.722167
      4 O1P         2.1040   -1.2070   -0.6980 o         1 TP6     -0.722167
      5 O27         2.1450    1.3150   -0.7580 os        1 TP6     -0.459200
      6 C19         1.7390    1.2000   -2.1230 c3        1 TP6      0.235400
      7 C18         2.2200    2.4250   -2.9040 c3        1 TP6     -0.054400
      8 C17         1.7840    2.3010   -4.3650 c3        1 TP6     -0.022400
      9 C16         2.2650    3.5260   -5.1460 c3        1 TP6     -0.049400
     10 C15         1.8290    3.4030   -6.6080 c3        1 TP6      0.028000
     11 N5          2.2890    4.5760   -7.3550 n         1 TP6      0.137000
     12 C9          1.5830    5.7700   -7.5340 cc        1 TP6     -0.349600
     13 C4          0.3200    6.2260   -7.1070 c         1 TP6      0.637700
     14 O2         -0.4000    5.5050   -6.4380 o         1 TP6     -0.665500
     15 N3         -0.0880    7.4630   -7.4560 ns        1 TP6     -0.129500
     16 C6          3.4700    4.6990   -7.9960 c         1 TP6      0.547500
     17 O4          4.3370    3.8470   -8.0480 o         1 TP6     -0.733500
     18 N7          3.5320    5.9180   -8.5650 n         1 TP6      0.083000
     19 C8          2.3750    6.5970   -8.2840 cd        1 TP6     -0.272800
     20 N1          1.9170    7.8530   -8.6100 ns        1 TP6      0.059900
     21 C2          0.7030    8.2620   -8.1940 c         1 TP6      0.579500
     22 O1          0.3150    9.3750   -8.4920 o         1 TP6     -0.748500
     23 C10         4.6550    6.4340   -9.3510 c3        1 TP6      0.027000
     24 C11         4.4510    6.0840  -10.8260 c3        1 TP6      0.153100
     25 O19         3.2960    6.7660  -11.3210 oh        1 TP6     -0.585800
     26 C12         5.6800    6.5130  -11.6280 c3        1 TP6      0.171100
     27 O21         5.9350    7.9020  -11.4020 oh        1 TP6     -0.575800
     28 C13         5.4260    6.2780  -13.1180 c3        1 TP6      0.162100
     29 O23         5.1700    4.8900  -13.3440 oh        1 TP6     -0.584800
     30 C14         6.6550    6.7070  -13.9200 c3        1 TP6      0.190400
     31 O26         6.3750    6.5960  -15.3170 oh        1 TP6     -0.597800
     32 H191        0.6580    1.1410   -2.1730 h1        1 TP6     -0.001800
     33 H192        2.1700    0.3050   -2.5540 h1        1 TP6     -0.001800
     34 H181        1.7880    3.3200   -2.4730 hc        1 TP6      0.000700
     35 H182        3.3000    2.4840   -2.8530 hc        1 TP6      0.000700
     36 H171        0.7030    2.2420   -4.4160 hc        1 TP6      0.012200
     37 H172        2.2150    1.4060   -4.7960 hc        1 TP6      0.012200
     38 H161        3.3450    3.5850   -5.0960 hc        1 TP6      0.019700
     39 H162        1.8340    4.4220   -4.7150 hc        1 TP6      0.019700
     40 H151        0.7480    3.3440   -6.6580 h1        1 TP6      0.045700
     41 H152        2.2600    2.5080   -7.0390 h1        1 TP6      0.045700
     42 H3         -0.9850    7.7920   -7.1590 hn        1 TP6      0.200500
     43 H1          2.4880    8.4650   -9.1590 hn        1 TP6      0.181500
     44 H101        4.7090    7.5110   -9.2400 h1        1 TP6      0.044700
     45 H102        5.5770    5.9890   -8.9990 h1        1 TP6      0.044700
     46 H11         4.3090    5.0150  -10.9260 h1        1 TP6      0.043700
     47 HA          2.7020    6.1410  -11.7040 ho        1 TP6      0.394000
     48 H12         6.5380    5.9330  -11.3110 h1        1 TP6      0.018700
     49 H21         6.7930    8.0060  -11.0260 ho        1 TP6      0.386000
     50 H13         4.5680    6.8590  -13.4340 h1        1 TP6      0.032700
     51 H23         4.6130    4.7910  -14.0980 ho        1 TP6      0.400000
     52 H141        7.4920    6.0670  -13.6670 h1        1 TP6     -0.003300
     53 H142        6.9010    7.7350  -13.6810 h1        1 TP6     -0.003300
     54 H26         7.1140    6.9120  -15.8110 ho        1 TP6      0.388000
@<TRIPOS>BOND
     1    1    2 1   
     2    2    3 1   
     3    2    4 1   
     4    2    5 1   
     5    5    6 1   
     6    6    7 1   
     7    6   32 1   
     8    6   33 1   
     9    7    8 1   
    10    7   34 1   
    11    7   35 1   
    12    8    9 1   
    13    8   36 1   
    14    8   37 1   
    15    9   10 1   
    16    9   38 1   
    17    9   39 1   
    18   10   11 1   
    19   10   40 1   
    20   10   41 1   
    21   11   12 1   
    22   11   16 1   
    23   12   13 1   
    24   12   19 2   
    25   13   14 2   
    26   13   15 1   
    27   15   21 1   
    28   15   42 1   
    29   16   17 2   
    30   16   18 1   
    31   18   19 1   
    32   18   23 1   
    33   19   20 1   
    34   20   21 1   
    35   20   43 1   
    36   21   22 2   
    37   23   24 1   
    38   23   44 1   
    39   23   45 1   
    40   24   25 1   
    41   24   26 1   
    42   24   46 1   
    43   25   47 1   
    44   26   27 1   
    45   26   28 1   
    46   26   48 1   
    47   27   49 1   
    48   28   29 1   
    49   28   30 1   
    50   28   50 1   
    51   29   51 1   
    52   30   31 1   
    53   30   52 1   
    54   30   53 1   
    55   31   54 1   
@<TRIPOS>SUBSTRUCTURE
     1 TP6         1 TEMP              0 ****  ****    0 ROOT
