@<TRIPOS>MOLECULE
TP7
   43    42     1     0     0
SMALL
bcc


@<TRIPOS>ATOM
      1 N           0.0880   -0.1800   -0.2580 n3        1 TP7     -0.832200
      2 P           1.0690    3.4980    0.1410 p5        1 TP7      1.429800
      3 O1P        -0.1150    2.6550    0.8970 oh        1 TP7     -0.786400
      4 O2P         2.1450    3.7870    1.1120 o         1 TP7     -0.849500
      5 O3P         0.3680    4.5260   -0.6630 o         1 TP7     -0.849500
      6 O4P         1.5300    2.3150   -0.9000 os        1 TP7     -0.592200
      7 CB          2.1890    1.1900   -0.3810 c3        1 TP7      0.216100
      8 C           2.3030   -1.3630   -0.4680 c         1 TP7      0.881600
      9 O           2.8050   -1.5090    0.6810 o         1 TP7     -0.859300
     10 OXT         2.4120   -2.2390   -1.3840 o         1 TP7     -0.859300
     11 CA          1.4420   -0.1060   -0.8010 c3        1 TP7      0.037500
     12 CG          3.6080    1.1440   -0.9400 c3        1 TP7     -0.102100
     13 O1         -0.5360   -2.2300   -1.3550 oh        1 TP7     -0.656800
     14 C1         -0.4210   -1.5460   -0.1030 c3        1 TP7      0.382300
     15 C2         -1.8460   -1.5520    0.4940 c3        1 TP7     -0.075400
     16 C3         -2.2480   -2.9640    0.8590 c3        1 TP7     -0.079400
     17 C4         -3.6700   -3.0220    1.3750 c3        1 TP7     -0.077400
     18 C5         -4.0520   -4.4380    1.7520 c3        1 TP7     -0.077400
     19 C6         -5.4810   -4.5120    2.2530 c3        1 TP7     -0.074400
     20 C7         -5.8350   -5.9270    2.6350 c3        1 TP7      0.021700
     21 S7         -7.5250   -5.9390    3.1840 sh        1 TP7     -0.401900
     22 HN         -0.8230    2.4330    0.3050 ho        1 TP7      0.424000
     23 HB          2.2310    1.2640    0.7450 h1        1 TP7      0.049700
     24 HA          1.3180   -0.0710   -1.9230 h1        1 TP7      0.055700
     25 HG1         3.5790    1.0860   -2.0530 hc        1 TP7      0.029367
     26 HG2         4.1650    2.0640   -0.6450 hc        1 TP7      0.029367
     27 HG3         4.1380    0.2480   -0.5360 hc        1 TP7      0.029367
     28 HO1         0.3600   -2.2850   -1.7330 ho        1 TP7      0.451000
     29 H1          0.2550   -2.1710    0.5670 h2        1 TP7      0.028700
     30 H21        -2.5600   -1.1340   -0.2600 hc        1 TP7      0.042700
     31 H22        -1.8760   -0.9000    1.4040 hc        1 TP7      0.042700
     32 H31        -1.5480   -3.3650    1.6400 hc        1 TP7      0.047200
     33 H32        -2.1410   -3.6170   -0.0480 hc        1 TP7      0.047200
     34 H41        -3.7760   -2.3520    2.2680 hc        1 TP7      0.035200
     35 H42        -4.3720   -2.6390    0.5880 hc        1 TP7      0.035200
     36 H51        -3.9310   -5.1080    0.8610 hc        1 TP7      0.038700
     37 H52        -3.3550   -4.8140    2.5470 hc        1 TP7      0.038700
     38 H61        -5.6040   -3.8360    3.1400 hc        1 TP7      0.054200
     39 H62        -6.1790   -4.1470    1.4540 hc        1 TP7      0.054200
     40 H71        -5.1650   -6.2900    3.4510 h1        1 TP7      0.057200
     41 H72        -5.7140   -6.6090    1.7590 h1        1 TP7      0.057200
     42 HS7        -7.6340   -7.2200    3.4800 hs        1 TP7      0.185800
     43 H2          0.0480    0.2720    0.6380 hn        1 TP7      0.370800
@<TRIPOS>BOND
     1    1   11 1   
     2    1   14 1   
     3    1   43 1   
     4    2    3 1   
     5    2    4 1   
     6    2    5 1   
     7    2    6 1   
     8    3   22 1   
     9    6    7 1   
    10    7   11 1   
    11    7   12 1   
    12    7   23 1   
    13    8    9 1   
    14    8   10 1   
    15    8   11 1   
    16   11   24 1   
    17   12   25 1   
    18   12   26 1   
    19   12   27 1   
    20   13   14 1   
    21   13   28 1   
    22   14   15 1   
    23   14   29 1   
    24   15   16 1   
    25   15   30 1   
    26   15   31 1   
    27   16   17 1   
    28   16   32 1   
    29   16   33 1   
    30   17   18 1   
    31   17   34 1   
    32   17   35 1   
    33   18   19 1   
    34   18   36 1   
    35   18   37 1   
    36   19   20 1   
    37   19   38 1   
    38   19   39 1   
    39   20   21 1   
    40   20   40 1   
    41   20   41 1   
    42   21   42 1   
@<TRIPOS>SUBSTRUCTURE
     1 TP7         1 TEMP              0 ****  ****    0 ROOT
