@<TRIPOS>MOLECULE
TP7
   42    39     1     0     0
SMALL
bcc


@<TRIPOS>ATOM
      1 N           1.4250    1.4330   -0.2930 n3        1 TP7     -0.321000
      2 P           2.0100    4.7250   -2.2350 p3        1 TP7      2.531000
      3 O1P         2.1350    5.4330   -0.9070 o         1 TP7     -1.269500
      4 O2P         3.0850    5.2190   -3.1730 os        1 TP7     -0.943000
      5 O3P         0.6520    5.0100   -2.8310 o         1 TP7     -1.269500
      6 O4P         2.1740    3.1680   -2.0190 os        1 TP7     -0.753000
      7 CB          3.2310    2.7110   -1.2110 c3        1 TP7      0.092000
      8 C           3.5610    1.2920    0.7820 c1        1 TP7      0.335000
      9 O           4.2580    0.2690    1.0150 o         1 TP7     -0.637000
     10 OXT         3.4770    2.2070    1.6430 os        1 TP7     -0.943000
     11 CA          2.8260    1.4220   -0.5330 c3        1 TP7     -0.089000
     12 CG          4.4520    2.4660   -2.0700 c3        1 TP7     -0.215000
     13 O1          1.0150   -0.4040   -1.6300 oh        1 TP7     -0.434000
     14 C1          0.9290    0.1020   -0.3200 c3        1 TP7      0.159000
     15 C2         -0.5130    0.0920    0.1300 c3        1 TP7     -0.253000
     16 C3         -0.9390   -1.3290    0.4270 c3        1 TP7     -0.131000
     17 C4         -2.3900   -1.3410    0.8570 c3        1 TP7     -0.162000
     18 C5         -2.8180   -2.7630    1.1460 c3        1 TP7     -0.152000
     19 C6         -4.2650   -2.7740    1.5860 c3        1 TP7     -0.156000
     20 C7         -4.7110   -4.2010    1.8190 c3        1 TP7     -0.229000
     21 S7         -6.3610   -4.2070    2.4670 sh        1 TP7     -0.058000
     22 HN          1.2580    1.8030    0.5270 hn        1 TP7      0.205000
     23 HB          3.4380    3.3840   -0.5340 h1        1 TP7      0.073000
     24 HA          3.0520    0.6650   -1.1090 h1        1 TP7      0.075000
     25 HG1         5.0260    1.7990   -1.6390 hc        1 TP7      0.047333
     26 HG2         4.1720    2.1360   -2.9500 hc        1 TP7      0.047333
     27 HG3         4.9480    3.3040   -2.1780 hc        1 TP7      0.047333
     28 HO1         1.3910   -1.2100   -1.6130 ho        1 TP7      0.269000
     29 H1          1.4620   -0.4570    0.2810 h2        1 TP7      0.051000
     30 H21        -0.6070    0.6360    0.9370 hc        1 TP7      0.147000
     31 H22        -1.0780    0.4600   -0.5790 hc        1 TP7      0.147000
     32 H31        -0.8320   -1.8760   -0.3770 hc        1 TP7      0.054500
     33 H32        -0.3830   -1.6920    1.1450 hc        1 TP7      0.054500
     34 H41        -2.4950   -0.7980    1.6630 hc        1 TP7      0.091000
     35 H42        -2.9450   -0.9730    0.1410 hc        1 TP7      0.091000
     36 H51        -2.2580   -3.1340    1.8580 hc        1 TP7      0.063500
     37 H52        -2.7180   -3.3050    0.3380 hc        1 TP7      0.063500
     38 H61        -4.8200   -2.3680    0.8910 hc        1 TP7      0.097500
     39 H62        -4.3580   -2.2650    2.4160 hc        1 TP7      0.097500
     40 H71        -4.6910   -4.6910    0.9720 h1        1 TP7      0.089500
     41 H72        -4.1080   -4.6310    2.4580 h1        1 TP7      0.089500
     42 HS7        -6.6870   -5.3150    2.7000 hs        1 TP7     -0.003000
@<TRIPOS>BOND
     1    1   11 1   
     2    1   14 1   
     3    1   22 1   
     4    2    3 1   
     5    2    5 1   
     6    2    6 1   
     7    6    7 1   
     8    7   11 1   
     9    7   12 1   
    10    7   23 1   
    11    8    9 1   
    12    8   11 1   
    13   11   24 1   
    14   12   25 1   
    15   12   26 1   
    16   12   27 1   
    17   13   14 1   
    18   13   28 1   
    19   14   15 1   
    20   14   29 1   
    21   15   16 1   
    22   15   30 1   
    23   15   31 1   
    24   16   17 1   
    25   16   32 1   
    26   16   33 1   
    27   17   18 1   
    28   17   34 1   
    29   17   35 1   
    30   18   19 1   
    31   18   36 1   
    32   18   37 1   
    33   19   20 1   
    34   19   38 1   
    35   19   39 1   
    36   20   21 1   
    37   20   40 1   
    38   20   41 1   
    39   21   42 1   
@<TRIPOS>SUBSTRUCTURE
     1 TP7         1 TEMP              0 ****  ****    0 ROOT
