@<TRIPOS>MOLECULE
TP7
   41    40     1     0     0
SMALL
bcc


@<TRIPOS>ATOM
      1 N           0.1920   -0.9530   -0.4060 ns        1 TP7     -0.487900
      2 P           0.0140    2.6970    0.2790 p5        1 TP7      1.428800
      3 O1P         0.7950    3.2490    1.4090 o         1 TP7     -0.848500
      4 O2P        -0.8590    1.5020    0.9950 oh        1 TP7     -0.796400
      5 O3P        -0.8620    3.4910   -0.6070 o         1 TP7     -0.848500
      6 O4P         0.9820    1.7560   -0.6530 os        1 TP7     -0.584200
      7 CB          1.8610    0.8760   -0.0030 c3        1 TP7      0.188100
      8 C           2.3920   -1.5160    0.5940 c         1 TP7      0.914600
      9 OXT         1.9100   -1.7400    1.7400 o         1 TP7     -0.853300
     10 O           3.5020   -1.9750    0.1950 o         1 TP7     -0.853300
     11 CA          1.5960   -0.6090   -0.4080 c3        1 TP7     -0.043300
     12 CG          3.2940    1.2270   -0.3810 c3        1 TP7     -0.105100
     13 O1         -0.1020   -1.3350   -2.6750 o         1 TP7     -0.675100
     14 C1         -0.5660   -1.1060   -1.5320 c         1 TP7      0.662100
     15 C2         -2.0830   -1.0680   -1.3450 c3        1 TP7     -0.167400
     16 C3         -2.5700   -2.2200   -0.4970 c3        1 TP7     -0.074400
     17 C4         -4.0830   -2.2520   -0.4340 c3        1 TP7     -0.078400
     18 C5         -4.5620   -3.3550    0.4860 c3        1 TP7     -0.078400
     19 C6         -6.0750   -3.4350    0.5170 c3        1 TP7     -0.074400
     20 C7         -6.5290   -4.4900    1.4930 c3        1 TP7      0.023700
     21 S7         -8.2970   -4.6250    1.3720 sh        1 TP7     -0.407900
     22 H          -0.2820   -0.7200    0.4410 hn        1 TP7      0.314500
     23 HA          2.0000   -0.7770   -1.4460 h1        1 TP7      0.074700
     24 HB          1.7260    0.9740    1.1150 h1        1 TP7      0.043700
     25 HG1C        3.3770    1.3460   -1.4870 hc        1 TP7      0.032367
     26 HG2C        3.9760    0.4070   -0.0480 hc        1 TP7      0.032367
     27 HG3C        3.5930    2.1860    0.1040 hc        1 TP7      0.032367
     28 H21C       -2.5530   -1.1110   -2.3610 hc        1 TP7      0.065700
     29 H22C       -2.3620   -0.0880   -0.8710 hc        1 TP7      0.065700
     30 H31C       -2.1560   -2.1300    0.5420 hc        1 TP7      0.050200
     31 H32C       -2.1910   -3.1870   -0.9220 hc        1 TP7      0.050200
     32 H41C       -4.4640   -1.2630   -0.0670 hc        1 TP7      0.037200
     33 H42C       -4.5030   -2.4090   -1.4620 hc        1 TP7      0.037200
     34 H51C       -4.1730   -3.1700    1.5220 hc        1 TP7      0.041700
     35 H52C       -4.1410   -4.3380    0.1450 hc        1 TP7      0.041700
     36 H61C       -6.4980   -2.4380    0.8100 hc        1 TP7      0.053200
     37 H62C       -6.4600   -3.6740   -0.5100 hc        1 TP7      0.053200
     38 H71C       -6.0580   -5.4730    1.2530 h1        1 TP7      0.058700
     39 H72C       -6.2350   -4.2100    2.5330 h1        1 TP7      0.058700
     40 H7         -8.5020   -5.4980    2.3400 hs        1 TP7      0.186800
     41 H2         -0.4920    1.2600    1.8390 ho        1 TP7      0.426000
@<TRIPOS>BOND
     1    1   11 1   
     2    1   14 1   
     3    1   22 1   
     4    2    3 1   
     5    2    4 1   
     6    2    5 1   
     7    2    6 1   
     8    4   41 1   
     9    6    7 1   
    10    7   11 1   
    11    7   12 1   
    12    7   24 1   
    13    8    9 1   
    14    8   10 1   
    15    8   11 1   
    16   11   23 1   
    17   12   25 1   
    18   12   26 1   
    19   12   27 1   
    20   13   14 2   
    21   14   15 1   
    22   15   16 1   
    23   15   28 1   
    24   15   29 1   
    25   16   17 1   
    26   16   30 1   
    27   16   31 1   
    28   17   18 1   
    29   17   32 1   
    30   17   33 1   
    31   18   19 1   
    32   18   34 1   
    33   18   35 1   
    34   19   20 1   
    35   19   36 1   
    36   19   37 1   
    37   20   21 1   
    38   20   38 1   
    39   20   39 1   
    40   21   40 1   
@<TRIPOS>SUBSTRUCTURE
     1 TP7         1 TEMP              0 ****  ****    0 ROOT
