@<TRIPOS>MOLECULE
TP9
   42    42     1     0     0
SMALL
bcc


@<TRIPOS>ATOM
      1 N1'        -9.3050    6.8030    6.7140 n2        1 TP9     -0.587200
      2 C2'       -10.4530    7.3530    7.2400 cc        1 TP9      0.545200
      3 CM2       -10.2810    8.7120    7.8930 c3        1 TP9     -0.096400
      4 N3'       -11.6910    6.8360    7.2420 nd        1 TP9     -0.800000
      5 C4'       -11.8760    5.5670    6.6390 cd        1 TP9      0.720600
      6 N4'       -13.0970    5.0650    6.6160 n2        1 TP9     -0.952100
      7 C5'       -10.6750    4.9090    6.0720 cd        1 TP9     -0.454800
      8 C6'        -9.4700    5.5860    6.1420 cc        1 TP9      0.085000
      9 C7'       -10.8550    3.5730    5.4320 c3        1 TP9      0.269000
     10 N3         -9.6620    2.9570    4.8870 nh        1 TP9     -0.723000
     11 S1         -7.1720    1.3020    4.7190 sh        1 TP9     -0.488400
     12 C5         -8.6900    0.9220    4.0110 c2        1 TP9     -0.050600
     13 C4         -9.7810    1.7090    4.2450 c2        1 TP9      0.071800
     14 CM4       -11.1240    1.3080    3.7150 c3        1 TP9     -0.048900
     15 C6         -8.6870   -0.2390    3.0870 c3        1 TP9     -0.061200
     16 C7         -8.6810   -1.6010    3.7990 c3        1 TP9      0.202400
     17 O7         -8.0910   -2.5680    2.9950 os        1 TP9     -0.592200
     18 PA         -6.5940   -3.1440    3.4450 p5        1 TP9      1.600800
     19 O1A        -5.9550   -3.6120    2.1990 o         1 TP9     -0.888500
     20 O2A        -6.0360   -2.0560    4.2850 o         1 TP9     -0.888500
     21 O3A        -7.0010   -4.4400    4.3270 os        1 TP9     -0.830800
     22 PB         -7.3090   -5.8190    5.1610 p5        1 TP9      1.592800
     23 O1B        -7.6080   -6.7530    3.8420 oh        1 TP9     -0.807400
     24 O2B        -6.0470   -6.3290    5.7380 o         1 TP9     -0.886000
     25 O3B        -8.5580   -5.7240    5.9420 o         1 TP9     -0.886000
     26 H71        -9.7490   -1.9070    3.9910 h1        1 TP9      0.025700
     27 H72        -8.1410   -1.5260    4.7840 h1        1 TP9      0.025700
     28 H61        -9.5580   -0.2040    2.3810 hc        1 TP9      0.039200
     29 H62        -7.7710   -0.1620    2.4380 hc        1 TP9      0.039200
     30 HS1        -6.5900    0.0580    4.6620 hs        1 TP9      0.346800
     31 HN3        -8.8800    2.9920    5.5160 hn        1 TP9      0.400800
     32 H7'1      -11.3470    2.8830    6.1870 h1        1 TP9      0.013200
     33 H7'2      -11.5820    3.6960    4.5720 h1        1 TP9      0.013200
     34 H6'        -8.5390    5.1650    5.7200 h4        1 TP9      0.127000
     35 H4'1       -7.0740   -6.5200    3.0940 ho        1 TP9      0.422000
     36 H4'2      -13.1220    4.1700    6.1750 hn        1 TP9      0.332400
     37 HM21      -11.2490    9.1050    8.2870 hc        1 TP9      0.021367
     38 HM22       -9.5590    8.6300    8.7400 hc        1 TP9      0.021367
     39 HM23       -9.8780    9.4390    7.1470 hc        1 TP9      0.021367
     40 HM41      -11.9350    1.5190    4.4570 hc        1 TP9      0.036700
     41 HM42      -11.3500    1.8670    2.7740 hc        1 TP9      0.036700
     42 HM43      -11.1510    0.2120    3.5030 hc        1 TP9      0.036700
@<TRIPOS>BOND
     1    1    2 1   
     2    1    8 1   
     3    2    3 1   
     4    2    4 2   
     5    3   37 1   
     6    3   38 1   
     7    3   39 1   
     8    4    5 1   
     9    5    6 2   
    10    5    7 1   
    11    6   36 1   
    12    7    8 2   
    13    7    9 1   
    14    8   34 1   
    15    9   10 1   
    16    9   32 1   
    17    9   33 1   
    18   10   13 1   
    19   10   31 1   
    20   11   12 1   
    21   11   30 1   
    22   12   13 2   
    23   12   15 1   
    24   13   14 1   
    25   14   40 1   
    26   14   41 1   
    27   14   42 1   
    28   15   16 1   
    29   15   28 1   
    30   15   29 1   
    31   16   17 1   
    32   16   26 1   
    33   16   27 1   
    34   17   18 1   
    35   18   19 1   
    36   18   20 1   
    37   18   21 1   
    38   21   22 1   
    39   22   23 1   
    40   22   24 1   
    41   22   25 1   
    42   23   35 1   
@<TRIPOS>SUBSTRUCTURE
     1 TP9         1 TEMP              0 ****  ****    0 ROOT
