@<TRIPOS>MOLECULE
TP9
   43    43     1     0     0
SMALL
bcc


@<TRIPOS>ATOM
      1 N1'         0.0000    0.0000    0.0000 nb        1 TP9     -0.658000
      2 C2'         1.3470    0.0000    0.0000 ca        1 TP9      0.542300
      3 CM2         2.0120   -0.0030   -1.3340 c3        1 TP9     -0.036400
      4 N3'         2.1560    0.0000    1.0760 nb        1 TP9     -0.587000
      5 C4'         1.5200    0.0020    2.2670 ca        1 TP9      0.572200
      6 N4'         2.3110    0.0020    3.4430 nv        1 TP9     -0.654500
      7 C5'         0.1540    0.0020    2.3880 ca        1 TP9     -0.450900
      8 C6'        -0.5690    0.0010    1.2240 ca        1 TP9      0.408200
      9 C7'        -0.5480    0.0030    3.7160 c3        1 TP9      0.016100
     10 N3         -0.8000   -1.3260    4.1900 ny        1 TP9      0.235200
     11 S1         -0.0920   -4.2610    4.4080 sh        1 TP9     -0.430400
     12 C5          0.0680   -3.0320    5.6600 c2        1 TP9      0.074400
     13 C4         -0.2700   -1.7460    5.3860 c2        1 TP9     -0.456200
     14 CM4        -0.1130   -0.6280    6.3910 c3        1 TP9      0.091100
     15 C6          0.6370   -3.5060    6.9880 c3        1 TP9      0.027800
     16 C7          2.1640   -3.5170    7.0120 c3        1 TP9      0.287400
     17 O7          2.6870   -2.2080    6.8310 os        1 TP9     -0.493200
     18 PA          4.3060   -1.9940    6.8240 p5        1 TP9      0.956800
     19 O1A         4.5880   -0.5220    6.6150 o         1 TP9     -0.686500
     20 O2A         4.9190   -2.7380    7.9930 o         1 TP9     -0.686500
     21 O3A         4.6820   -2.7920    5.4490 os        1 TP9     -0.497800
     22 PB          6.1240   -3.0460    4.7240 p5        1 TP9      0.860900
     23 O1B         5.6030   -3.9090    3.4390 o         1 TP9     -0.549167
     24 O2B         6.6630   -1.7240    4.2260 o         1 TP9     -0.549167
     25 O3B         6.9660   -3.9490    5.5970 o         1 TP9     -0.549167
     26 H71         2.5010   -3.9050    7.9660 h1        1 TP9     -0.004800
     27 H72         2.5270   -4.1580    6.2190 h1        1 TP9     -0.004800
     28 H61         0.2780   -4.5090    7.1830 hc        1 TP9     -0.007800
     29 H62         0.2810   -2.8490    7.7730 hc        1 TP9     -0.007800
     30 HS1        -1.0190   -5.1410    4.7660 hs        1 TP9      0.093800
     31 HN3        -1.7930   -1.4330    4.2540 hn        1 TP9      0.192300
     32 H7'1       -1.4920    0.5250    3.6140 hx        1 TP9      0.059700
     33 H7'2        0.0670    0.5250    4.4390 hx        1 TP9      0.059700
     34 H6'        -1.6510    0.0010    1.2890 h4        1 TP9     -0.052900
     35 H4'1        2.7870   -0.8320    3.7250 hn        1 TP9      0.318800
     36 H4'2        2.3720    0.8280    4.0040 hn        1 TP9      0.318800
     37 HM21        1.3140    0.3400   -2.0870 hc        1 TP9      0.008700
     38 HM22        2.3370   -1.0080   -1.5740 hc        1 TP9      0.008700
     39 HM23        2.8710    0.6580   -1.3100 hc        1 TP9      0.008700
     40 HM41       -0.2750   -1.0150    7.3900 hc        1 TP9      0.010367
     41 HM42        0.8860   -0.2170    6.3210 hc        1 TP9      0.010367
     42 HM43       -0.8390    0.1490    6.1830 hc        1 TP9      0.010367
     43 H32        -0.4740   -1.9570    3.4850 hn        1 TP9      0.192300
@<TRIPOS>BOND
     1    1    2 ar  
     2    1    8 ar  
     3    2    3 1   
     4    2    4 ar  
     5    3   37 1   
     6    3   38 1   
     7    3   39 1   
     8    4    5 ar  
     9    5    6 1   
    10    5    7 ar  
    11    6   35 1   
    12    6   36 1   
    13    7    8 ar  
    14    7    9 1   
    15    8   34 1   
    16    9   10 1   
    17    9   32 1   
    18    9   33 1   
    19   10   13 1   
    20   10   31 1   
    21   10   43 1   
    22   11   12 1   
    23   11   30 1   
    24   12   13 2   
    25   12   15 1   
    26   13   14 1   
    27   14   40 1   
    28   14   41 1   
    29   14   42 1   
    30   15   16 1   
    31   15   28 1   
    32   15   29 1   
    33   16   17 1   
    34   16   26 1   
    35   16   27 1   
    36   17   18 1   
    37   18   19 1   
    38   18   20 1   
    39   18   21 1   
    40   21   22 1   
    41   22   23 1   
    42   22   24 1   
    43   22   25 1   
@<TRIPOS>SUBSTRUCTURE
     1 TP9         1 TEMP              0 ****  ****    0 ROOT
