@<TRIPOS>MOLECULE
TPA
   22    23     1     0     0
SMALL
bcc


@<TRIPOS>ATOM
      1 C1          2.1710    0.2610    0.4140 cx        1 TPA     -0.033500
      2 C2          1.1440   -0.2680   -0.5900 cx        1 TPA      0.000600
      3 C3          1.9980    0.9220   -0.9340 cx        1 TPA     -0.096400
      4 C1'        -0.2810   -0.1460   -0.2630 ca        1 TPA     -0.120300
      5 C2'        -1.1340   -1.2250   -0.5350 ca        1 TPA     -0.109000
      6 C3'        -2.4940   -1.1330   -0.2440 ca        1 TPA     -0.117500
      7 C4'        -3.0130    0.0320    0.3200 ca        1 TPA     -0.091000
      8 C5'        -2.1680    1.1090    0.5930 ca        1 TPA     -0.117500
      9 C6'        -0.8090    1.0220    0.3030 ca        1 TPA     -0.109000
     10 N           3.3800   -0.5100    0.7340 n4        1 TPA     -0.797600
     11 H1          1.7980    0.7860    1.3260 hx        1 TPA      0.153700
     12 H2          1.3830   -1.2190   -1.1200 hc        1 TPA      0.101700
     13 H31         1.5530    1.9370   -0.9500 hc        1 TPA      0.114700
     14 H32         2.7730    0.8060   -1.7160 hc        1 TPA      0.114700
     15 H2'        -0.7370   -2.1460   -0.9890 ha        1 TPA      0.130000
     16 H3'        -3.1600   -1.9820   -0.4660 ha        1 TPA      0.154000
     17 H4'        -4.0890    0.1040    0.5480 ha        1 TPA      0.156000
     18 H5'        -2.5770    2.0320    1.0340 ha        1 TPA      0.154000
     19 H6'        -0.1560    1.8830    0.5130 ha        1 TPA      0.130000
     20 HN1         4.1110    0.1210    1.0800 hn        1 TPA      0.460133
     21 HN2         3.7280   -0.9990   -0.0970 hn        1 TPA      0.460133
     22 HN3         3.1590   -1.2010    1.4600 hn        1 TPA      0.460133
@<TRIPOS>BOND
     1    1    2 1   
     2    1    3 1   
     3    1   10 1   
     4    1   11 1   
     5    2    3 1   
     6    2    4 1   
     7    2   12 1   
     8    3   13 1   
     9    3   14 1   
    10    4    5 ar  
    11    4    9 ar  
    12    5    6 ar  
    13    5   15 1   
    14    6    7 ar  
    15    6   16 1   
    16    7    8 ar  
    17    7   17 1   
    18    8    9 ar  
    19    8   18 1   
    20    9   19 1   
    21   10   20 1   
    22   10   21 1   
    23   10   22 1   
@<TRIPOS>SUBSTRUCTURE
     1 TPA         1 TEMP              0 ****  ****    0 ROOT
