@<TRIPOS>MOLECULE
TPA
   22    23     1     0     0
SMALL
bcc


@<TRIPOS>ATOM
      1 C1          0.0270    0.0110    0.1730 cx        1 TPA     -0.033500
      2 C2          1.5440    0.0090   -0.0240 cx        1 TPA      0.000600
      3 C3          0.9570   -0.1940    1.3460 cx        1 TPA     -0.096400
      4 C1'         2.1990    1.2600   -0.4210 ca        1 TPA     -0.120300
      5 C2'         3.2060    1.2190   -1.3960 ca        1 TPA     -0.109000
      6 C3'         3.8530    2.3910   -1.7860 ca        1 TPA     -0.117500
      7 C4'         3.5000    3.6110   -1.2090 ca        1 TPA     -0.091000
      8 C5'         2.4990    3.6580   -0.2380 ca        1 TPA     -0.117500
      9 C6'         1.8510    2.4890    0.1560 ca        1 TPA     -0.109000
     10 N          -0.8020   -1.0870   -0.3430 nz        1 TPA     -0.797600
     11 H1         -0.5190    0.9810    0.0780 hx        1 TPA      0.153700
     12 H2          2.0020   -0.8850   -0.5040 hc        1 TPA      0.101700
     13 H31         1.0490   -1.1920    1.8170 hc        1 TPA      0.114700
     14 H32         1.0120    0.6180    2.0990 hc        1 TPA      0.114700
     15 H2'         3.4980    0.2600   -1.8520 ha        1 TPA      0.130000
     16 H3'         4.6460    2.3500   -2.5490 ha        1 TPA      0.154000
     17 H4'         4.0140    4.5360   -1.5170 ha        1 TPA      0.156000
     18 H5'         2.2230    4.6200    0.2230 ha        1 TPA      0.154000
     19 H6'         1.0710    2.5390    0.9300 ha        1 TPA      0.130000
     20 HN1        -0.3080   -1.9820   -0.2620 hn        1 TPA      0.460133
     21 HN2        -1.0200   -0.9130   -1.3310 hn        1 TPA      0.460133
     22 HN3        -1.6770   -1.1400    0.1920 hn        1 TPA      0.460133
@<TRIPOS>BOND
     1    1    2 1   
     2    1    3 1   
     3    1   10 1   
     4    1   11 1   
     5    2    3 1   
     6    2    4 1   
     7    2   12 1   
     8    3   13 1   
     9    3   14 1   
    10    4    5 ar  
    11    4    9 ar  
    12    5    6 ar  
    13    5   15 1   
    14    6    7 ar  
    15    6   16 1   
    16    7    8 ar  
    17    7   17 1   
    18    8    9 ar  
    19    8   18 1   
    20    9   19 1   
    21   10   20 1   
    22   10   21 1   
    23   10   22 1   
@<TRIPOS>SUBSTRUCTURE
     1 TPA         1 TEMP              0 ****  ****    0 ROOT
