@<TRIPOS>MOLECULE
TPA
   22    23     1     0     0
SMALL
bcc


@<TRIPOS>ATOM
      1 C1          0.0260    0.0030    0.1500 cx        1 TPA     -0.033500
      2 C2          1.5460    0.0080   -0.0270 cx        1 TPA      0.000600
      3 C3          0.9430   -0.2020    1.3350 cx        1 TPA     -0.096400
      4 C1'         2.2000    1.2640   -0.4130 ca        1 TPA     -0.120300
      5 C2'         3.2200    1.2300   -1.3750 ca        1 TPA     -0.109000
      6 C3'         3.8650    2.4060   -1.7530 ca        1 TPA     -0.117500
      7 C4'         3.4990    3.6230   -1.1770 ca        1 TPA     -0.091000
      8 C5'         2.4850    3.6620   -0.2190 ca        1 TPA     -0.117500
      9 C6'         1.8380    2.4890    0.1630 ca        1 TPA     -0.109000
     10 N          -0.7910   -1.0980   -0.3790 n4        1 TPA     -0.797600
     11 H1         -0.5230    0.9700    0.0510 hx        1 TPA      0.153700
     12 H2          2.0140   -0.8830   -0.5040 hc        1 TPA      0.101700
     13 H31         0.9840    0.6080    2.0910 hc        1 TPA      0.114700
     14 H32         1.0340   -1.2000    1.8030 hc        1 TPA      0.114700
     15 H2'         3.5220    0.2740   -1.8290 ha        1 TPA      0.130000
     16 H3'         4.6690    2.3710   -2.5060 ha        1 TPA      0.154000
     17 H4'         4.0120    4.5510   -1.4760 ha        1 TPA      0.156000
     18 H5'         2.1990    4.6210    0.2400 ha        1 TPA      0.154000
     19 H6'         1.0480    2.5330    0.9270 ha        1 TPA      0.130000
     20 HN1        -0.2930   -1.9910   -0.2940 hn        1 TPA      0.460133
     21 HN2        -0.9970   -0.9230   -1.3690 hn        1 TPA      0.460133
     22 HN3        -1.6710   -1.1570    0.1440 hn        1 TPA      0.460133
@<TRIPOS>BOND
     1    1    2 1   
     2    1    3 1   
     3    1   10 1   
     4    1   11 1   
     5    2    3 1   
     6    2    4 1   
     7    2   12 1   
     8    3   13 1   
     9    3   14 1   
    10    4    5 ar  
    11    4    9 ar  
    12    5    6 ar  
    13    5   15 1   
    14    6    7 ar  
    15    6   16 1   
    16    7    8 ar  
    17    7   17 1   
    18    8    9 ar  
    19    8   18 1   
    20    9   19 1   
    21   10   20 1   
    22   10   21 1   
    23   10   22 1   
@<TRIPOS>SUBSTRUCTURE
     1 TPA         1 TEMP              0 ****  ****    0 ROOT
