@<TRIPOS>MOLECULE
TPA
   22    23     1     0     0
SMALL
bcc


@<TRIPOS>ATOM
      1 C1          0.0230    0.0120    0.1610 cx        1 TPA     -0.033500
      2 C2          1.5420    0.0090   -0.0250 cx        1 TPA      0.000600
      3 C3          0.9450   -0.1950    1.3400 cx        1 TPA     -0.096400
      4 C1'         2.2000    1.2600   -0.4160 ca        1 TPA     -0.120300
      5 C2'         3.2140    1.2200   -1.3850 ca        1 TPA     -0.109000
      6 C3'         3.8640    2.3910   -1.7690 ca        1 TPA     -0.117500
      7 C4'         3.5080    3.6110   -1.1930 ca        1 TPA     -0.091000
      8 C5'         2.5010    3.6570   -0.2280 ca        1 TPA     -0.117500
      9 C6'         1.8490    2.4890    0.1600 ca        1 TPA     -0.109000
     10 N          -0.8030   -1.0850   -0.3620 n4        1 TPA     -0.797600
     11 H1         -0.5220    0.9820    0.0620 hx        1 TPA      0.153700
     12 H2          2.0020   -0.8850   -0.5030 hc        1 TPA      0.101700
     13 H31         0.9950    0.6160    2.0950 hc        1 TPA      0.114700
     14 H32         1.0330   -1.1940    1.8100 hc        1 TPA      0.114700
     15 H2'         3.5080    0.2610   -1.8390 ha        1 TPA      0.130000
     16 H3'         4.6620    2.3510   -2.5260 ha        1 TPA      0.154000
     17 H4'         4.0240    4.5360   -1.4960 ha        1 TPA      0.156000
     18 H5'         2.2220    4.6190    0.2320 ha        1 TPA      0.154000
     19 H6'         1.0640    2.5380    0.9290 ha        1 TPA      0.130000
     20 HN1        -1.6810   -1.1390    0.1660 hn        1 TPA      0.460133
     21 HN2        -1.0130   -0.9110   -1.3510 hn        1 TPA      0.460133
     22 HN3        -0.3100   -1.9810   -0.2790 hn        1 TPA      0.460133
@<TRIPOS>BOND
     1    1    2 1   
     2    1    3 1   
     3    1   10 1   
     4    1   11 1   
     5    2    3 1   
     6    2    4 1   
     7    2   12 1   
     8    3   13 1   
     9    3   14 1   
    10    4    5 ar  
    11    4    9 ar  
    12    5    6 ar  
    13    5   15 1   
    14    6    7 ar  
    15    6   16 1   
    16    7    8 ar  
    17    7   17 1   
    18    8    9 ar  
    19    8   18 1   
    20    9   19 1   
    21   10   20 1   
    22   10   21 1   
    23   10   22 1   
@<TRIPOS>SUBSTRUCTURE
     1 TPA         1 TEMP              0 ****  ****    0 ROOT
