@<TRIPOS>MOLECULE
TPB
   44    46     1     0     0
SMALL
bcc


@<TRIPOS>ATOM
      1 C1         -0.2730   -0.0040    0.2650 ca        1 TPB      0.081600
      2 N7         -1.1940   -0.0050   -0.8200 nu        1 TPB     -0.715300
      3 C2          1.1190   -0.1250    0.0330 ca        1 TPB     -0.062300
      4 C21         1.6470   -0.3070   -1.3410 c3        1 TPB     -0.058800
      5 C3          2.0070   -0.0620    1.1080 ca        1 TPB     -0.134500
      6 C4          1.5440    0.1180    2.4140 ca        1 TPB     -0.062300
      7 C5          0.1720    0.2480    2.6380 ca        1 TPB     -0.134500
      8 C6         -0.7440    0.1960    1.5840 ca        1 TPB     -0.062300
      9 C61        -2.1890    0.3680    1.8660 c3        1 TPB     -0.058800
     10 C8         -1.7780   -1.2180   -1.2240 ca        1 TPB      0.700200
     11 N1         -2.2720   -1.2910   -2.5000 nb        1 TPB     -0.808000
     12 C9         -2.9400   -2.4530   -2.8440 ca        1 TPB      0.893900
     13 N5         -3.3740   -2.5190   -4.1900 nu        1 TPB     -0.714300
     14 N3         -3.1540   -3.5340   -2.0020 nb        1 TPB     -0.759000
     15 C10        -2.6350   -3.4220   -0.7680 ca        1 TPB      0.476200
     16 C7         -1.9320   -2.3050   -0.3090 ca        1 TPB     -0.444600
     17 C11        -4.3480   -3.4420   -4.6260 ca        1 TPB      0.165600
     18 C12        -4.1800   -4.8340   -4.4620 ca        1 TPB     -0.149500
     19 C13        -5.1210   -5.7190   -4.9770 ca        1 TPB     -0.076000
     20 C14        -6.2380   -5.2440   -5.6760 ca        1 TPB     -0.039000
     21 C15        -6.4070   -3.8650   -5.8560 ca        1 TPB     -0.076000
     22 C16        -5.4780   -2.9730   -5.3370 ca        1 TPB     -0.149500
     23 C17        -7.1930   -6.1550   -6.2020 cg        1 TPB      0.238800
     24 N6         -7.9760   -6.9010   -6.6310 n1        1 TPB     -0.369800
     25 C41         2.4970    0.1610    3.5470 c3        1 TPB     -0.056800
     26 HN7        -0.9250    0.6100   -1.5650 hn        1 TPB      0.429800
     27 H211        1.4370    0.6000   -1.9620 hc        1 TPB      0.050367
     28 H212        2.7530   -0.4710   -1.3300 hc        1 TPB      0.050367
     29 H213        1.1690   -1.1900   -1.8350 hc        1 TPB      0.050367
     30 H3          3.0880   -0.1560    0.9240 ha        1 TPB      0.136500
     31 H5         -0.1970    0.4000    3.6650 ha        1 TPB      0.136500
     32 H611       -2.5800    1.2730    1.3360 hc        1 TPB      0.050367
     33 H612       -2.3760    0.4920    2.9610 hc        1 TPB      0.050367
     34 H613       -2.7680   -0.5200    1.5070 hc        1 TPB      0.050367
     35 HN5        -3.4140   -1.6320   -4.6540 hn        1 TPB      0.440800
     36 H10        -2.8040   -4.2950   -0.1080 h4        1 TPB      0.028100
     37 H7         -1.5180   -2.2640    0.7040 ha        1 TPB      0.165000
     38 H12        -3.3050   -5.2360   -3.9270 ha        1 TPB      0.151500
     39 H13        -4.9800   -6.8020   -4.8370 ha        1 TPB      0.146000
     40 H15        -7.2820   -3.4850   -6.4070 ha        1 TPB      0.146000
     41 H16        -5.6340   -1.8930   -5.4880 ha        1 TPB      0.151500
     42 H411        2.6710   -0.8750    3.9370 hc        1 TPB      0.047033
     43 H412        2.0990    0.7870    4.3830 hc        1 TPB      0.047033
     44 H413        3.4810    0.5830    3.2270 hc        1 TPB      0.047033
@<TRIPOS>BOND
     1    1    2 1   
     2    1    3 ar  
     3    1    8 ar  
     4    2   10 1   
     5    2   26 1   
     6    3    4 1   
     7    3    5 ar  
     8    4   27 1   
     9    4   28 1   
    10    4   29 1   
    11    5    6 ar  
    12    5   30 1   
    13    6    7 ar  
    14    6   25 1   
    15    7    8 ar  
    16    7   31 1   
    17    8    9 1   
    18    9   32 1   
    19    9   33 1   
    20    9   34 1   
    21   10   11 ar  
    22   10   16 ar  
    23   11   12 ar  
    24   12   13 1   
    25   12   14 ar  
    26   13   17 1   
    27   13   35 1   
    28   14   15 ar  
    29   15   16 ar  
    30   15   36 1   
    31   16   37 1   
    32   17   18 ar  
    33   17   22 ar  
    34   18   19 ar  
    35   18   38 1   
    36   19   20 ar  
    37   19   39 1   
    38   20   21 ar  
    39   20   23 1   
    40   21   22 ar  
    41   21   40 1   
    42   22   41 1   
    43   23   24 3   
    44   25   42 1   
    45   25   43 1   
    46   25   44 1   
@<TRIPOS>SUBSTRUCTURE
     1 TPB         1 TEMP              0 ****  ****    0 ROOT
