@<TRIPOS>MOLECULE
TPB
   46    47     1     0     0
SMALL
bcc


@<TRIPOS>ATOM
      1 C1        326.4700  290.6160  303.3680 ca        1 TPB      0.025600
      2 N7        326.5340  291.3690  302.3190 n2        1 TPB     -0.334400
      3 C2        326.0530  289.1890  303.3760 ca        1 TPB      0.110700
      4 C21       325.6760  288.5640  302.0930 c3        1 TPB     -0.114800
      5 C3        326.0230  288.4800  304.5440 ca        1 TPB     -0.230500
      6 C4        326.3850  289.0720  305.7850 ca        1 TPB      0.215700
      7 C5        326.7820  290.4230  305.8220 ca        1 TPB     -0.230500
      8 C6        326.8370  291.2020  304.6870 ca        1 TPB      0.110700
      9 C61       327.2560  292.6110  304.7580 c3        1 TPB     -0.114800
     10 C8       -299.8690 -268.4940 -279.8810 ca        1 TPB      0.459200
     11 N1       -300.3650 -268.9830 -281.0370 nb        1 TPB     -0.662000
     12 C9       -301.3590 -269.9180 -280.8960 ca        1 TPB      0.699900
     13 N5       -301.9370 -270.4710 -282.1650 n4        1 TPB     -0.608100
     14 N3       -301.8920 -270.3970 -279.7260 nb        1 TPB     -0.662000
     15 C10      -301.3630 -269.8770 -278.5990 ca        1 TPB      0.459200
     16 C7       -300.3380 -268.9100 -278.6190 ca        1 TPB     -0.296600
     17 C11      -303.0660 -269.6550 -282.6290 ca        1 TPB     -0.043400
     18 C12      -304.3680 -269.9730 -282.2060 ca        1 TPB     -0.094000
     19 C13      -305.4370 -269.2120 -282.6720 ca        1 TPB     -0.079000
     20 C14      -305.2110 -268.1390 -283.5470 ca        1 TPB      0.064000
     21 C15      -303.9060 -267.8240 -283.9560 ca        1 TPB     -0.079000
     22 C16      -302.8280 -268.5750 -283.4980 ca        1 TPB     -0.094000
     23 C17      -306.3070 -267.3660 -284.0190 cg        1 TPB      0.187800
     24 N6       -307.2040 -266.7350 -284.4050 n1        1 TPB     -0.265800
     25 C41       326.3300  288.2700  307.0140 c3        1 TPB     -0.127800
     26 HN7      -299.0630 -267.7390 -279.9900 h4        1 TPB      0.074100
     27 H211      324.8070  289.1020  301.6320 hc        1 TPB      0.099033
     28 H212      325.3810  287.4920  302.2290 hc        1 TPB      0.099033
     29 H213      326.5360  288.5940  301.3720 hc        1 TPB      0.099033
     30 H3        325.7140  287.4180  304.5440 ha        1 TPB      0.188000
     31 H5        327.0580  290.8670  306.7980 ha        1 TPB      0.188000
     32 H611      327.5010  292.9190  305.8060 hc        1 TPB      0.099033
     33 H612      328.1610  292.7830  304.1150 hc        1 TPB      0.099033
     34 H613      326.4430  293.2820  304.3690 hc        1 TPB      0.099033
     35 HN5      -302.2600 -271.4340 -281.9920 hn        1 TPB      0.479800
     36 H10      -301.7890 -270.2640 -277.6500 h4        1 TPB      0.074100
     37 H7       -299.9210 -268.4980 -277.6880 ha        1 TPB      0.198000
     38 H12      -304.5610 -270.8080 -281.5100 ha        1 TPB      0.171000
     39 H13      -306.4640 -269.4580 -282.3490 ha        1 TPB      0.183000
     40 H15      -303.7300 -266.9770 -284.6420 ha        1 TPB      0.183000
     41 H16      -301.8060 -268.3090 -283.8190 ha        1 TPB      0.171000
     42 H411      326.8110  287.2680  306.8560 hc        1 TPB      0.106700
     43 H412      325.2540  288.0830  307.2890 hc        1 TPB      0.106700
     44 H413      326.8290  288.7790  307.8770 hc        1 TPB      0.106700
     45 H72       326.2840  290.9590  301.4390 hn        1 TPB      0.399800
     46 H52      -301.2020 -270.4800 -282.8890 hn        1 TPB      0.479800
@<TRIPOS>BOND
     1    1    2 1   
     2    1    3 ar  
     3    1    8 ar  
     4    2   45 1   
     5    3    4 1   
     6    3    5 ar  
     7    4   27 1   
     8    4   28 1   
     9    4   29 1   
    10    5    6 ar  
    11    5   30 1   
    12    6    7 ar  
    13    6   25 1   
    14    7    8 ar  
    15    7   31 1   
    16    8    9 1   
    17    9   32 1   
    18    9   33 1   
    19    9   34 1   
    20   10   11 ar  
    21   10   16 ar  
    22   10   26 1   
    23   11   12 ar  
    24   12   13 1   
    25   12   14 ar  
    26   13   17 1   
    27   13   35 1   
    28   13   46 1   
    29   14   15 ar  
    30   15   16 ar  
    31   15   36 1   
    32   16   37 1   
    33   17   18 ar  
    34   17   22 ar  
    35   18   19 ar  
    36   18   38 1   
    37   19   20 ar  
    38   19   39 1   
    39   20   21 ar  
    40   20   23 1   
    41   21   22 ar  
    42   21   40 1   
    43   22   41 1   
    44   23   24 3   
    45   25   42 1   
    46   25   43 1   
    47   25   44 1   
@<TRIPOS>SUBSTRUCTURE
     1 TPB         1 TEMP              0 ****  ****    0 ROOT
