@<TRIPOS>MOLECULE
TPB
   44    46     1     0     0
SMALL
bcc


@<TRIPOS>ATOM
      1 C1         -0.2520    0.0860    0.2270 ca        1 TPB      0.081600
      2 N7         -1.1750    0.0710   -0.8570 nh        1 TPB     -0.715300
      3 C2          1.1410   -0.0210   -0.0060 ca        1 TPB     -0.062300
      4 C21         1.6690   -0.2030   -1.3800 c3        1 TPB     -0.058800
      5 C3          2.0290    0.0560    1.0680 ca        1 TPB     -0.134000
      6 C4          1.5660    0.2360    2.3740 ca        1 TPB     -0.062300
      7 C5          0.1930    0.3530    2.5990 ca        1 TPB     -0.134000
      8 C6         -0.7230    0.2870    1.5460 ca        1 TPB     -0.062300
      9 C61        -2.1700    0.4450    1.8300 c3        1 TPB     -0.058800
     10 C8         -1.7460   -1.1500   -1.2540 ca        1 TPB      0.700200
     11 N1         -2.2400   -1.2340   -2.5300 nb        1 TPB     -0.808000
     12 C9         -2.8970   -2.4040   -2.8680 ca        1 TPB      0.893900
     13 N5         -3.3320   -2.4800   -4.2130 nh        1 TPB     -0.714300
     14 N3         -3.0980   -3.4830   -2.0220 nb        1 TPB     -0.759000
     15 C10        -2.5790   -3.3610   -0.7880 ca        1 TPB      0.476200
     16 C7         -1.8870   -2.2350   -0.3350 ca        1 TPB     -0.444600
     17 C11        -4.2960   -3.4160   -4.6440 ca        1 TPB      0.165600
     18 C12        -4.1130   -4.8050   -4.4740 ca        1 TPB     -0.149500
     19 C13        -5.0450   -5.7020   -4.9840 ca        1 TPB     -0.076000
     20 C14        -6.1680   -5.2420   -5.6840 ca        1 TPB     -0.039000
     21 C15        -6.3520   -3.8660   -5.8700 ca        1 TPB     -0.076000
     22 C16        -5.4330   -2.9620   -5.3550 ca        1 TPB     -0.149500
     23 C17        -7.1140   -6.1650   -6.2040 cg        1 TPB      0.238800
     24 N6         -7.8890   -6.9220   -6.6300 n1        1 TPB     -0.369800
     25 C41         2.5210    0.2940    3.5050 c3        1 TPB     -0.056800
     26 HN7        -0.9120    0.6860   -1.6040 hn        1 TPB      0.429800
     27 H211        1.4490    0.6990   -2.0050 hc        1 TPB      0.050367
     28 H212        1.2000   -1.0930   -1.8700 hc        1 TPB      0.050367
     29 H213        2.7760   -0.3550   -1.3700 hc        1 TPB      0.050367
     30 H3          3.1120   -0.0280    0.8820 ha        1 TPB      0.136500
     31 H5         -0.1760    0.5060    3.6250 ha        1 TPB      0.136500
     32 H611       -2.3570    0.5710    2.9240 hc        1 TPB      0.050367
     33 H612       -2.5710    1.3430    1.2960 hc        1 TPB      0.050367
     34 H613       -2.7400   -0.4510    1.4750 hc        1 TPB      0.050367
     35 HN5        -3.3810   -1.5960   -4.6800 hn        1 TPB      0.440800
     36 H10        -2.7370   -4.2320   -0.1240 h4        1 TPB      0.028100
     37 H7         -1.4720   -2.1840    0.6780 ha        1 TPB      0.165000
     38 H12        -3.2330   -5.1950   -3.9390 ha        1 TPB      0.151500
     39 H13        -4.8930   -6.7830   -4.8400 ha        1 TPB      0.146000
     40 H15        -7.2320   -3.4980   -6.4200 ha        1 TPB      0.146000
     41 H16        -5.6000   -1.8840   -5.5100 ha        1 TPB      0.151500
     42 H411        2.1090    0.9020    4.3470 hc        1 TPB      0.047033
     43 H412        3.4930    0.7440    3.1850 hc        1 TPB      0.047033
     44 H413        2.7230   -0.7400    3.8840 hc        1 TPB      0.047033
@<TRIPOS>BOND
     1    1    2 1   
     2    1    3 ar  
     3    1    8 ar  
     4    2   10 1   
     5    2   26 1   
     6    3    4 1   
     7    3    5 ar  
     8    4   27 1   
     9    4   28 1   
    10    4   29 1   
    11    5    6 ar  
    12    5   30 1   
    13    6    7 ar  
    14    6   25 1   
    15    7    8 ar  
    16    7   31 1   
    17    8    9 1   
    18    9   32 1   
    19    9   33 1   
    20    9   34 1   
    21   10   11 ar  
    22   10   16 ar  
    23   11   12 ar  
    24   12   13 1   
    25   12   14 ar  
    26   13   17 1   
    27   13   35 1   
    28   14   15 ar  
    29   15   16 ar  
    30   15   36 1   
    31   16   37 1   
    32   17   18 ar  
    33   17   22 ar  
    34   18   19 ar  
    35   18   38 1   
    36   19   20 ar  
    37   19   39 1   
    38   20   21 ar  
    39   20   23 1   
    40   21   22 ar  
    41   21   40 1   
    42   22   41 1   
    43   23   24 3   
    44   25   42 1   
    45   25   43 1   
    46   25   44 1   
@<TRIPOS>SUBSTRUCTURE
     1 TPB         1 TEMP              0 ****  ****    0 ROOT
