@<TRIPOS>MOLECULE
TPB
   44    46     1     0     0
SMALL
bcc


@<TRIPOS>ATOM
      1 C1          0.3150    0.4680    3.5900 ca        1 TPB      0.081600
      2 N7          0.8360    0.8790    2.3300 nh        1 TPB     -0.715300
      3 C2          0.8840   -0.6250    4.2880 ca        1 TPB     -0.062300
      4 C21         2.0040   -1.4000    3.7020 c3        1 TPB     -0.058800
      5 C3          0.3930   -0.9710    5.5480 ca        1 TPB     -0.134500
      6 C4         -0.6550   -0.2560    6.1340 ca        1 TPB     -0.061300
      7 C5         -1.2080    0.8260    5.4460 ca        1 TPB     -0.134500
      8 C6         -0.7360    1.2040    4.1870 ca        1 TPB     -0.062300
      9 C61        -1.3350    2.3780    3.5070 c3        1 TPB     -0.058800
     10 C8          0.2760    0.3560    1.1530 ca        1 TPB      0.700200
     11 N1          1.0450    0.3820    0.0180 nb        1 TPB     -0.808000
     12 C9          0.4400   -0.0350   -1.1550 ca        1 TPB      0.893900
     13 N5          1.2850   -0.0590   -2.2900 nh        1 TPB     -0.714300
     14 N3         -0.8730   -0.4640   -1.2700 nb        1 TPB     -0.759000
     15 C10        -1.5810   -0.4890   -0.1280 ca        1 TPB      0.476200
     16 C7         -1.0760   -0.1040    1.1170 ca        1 TPB     -0.444600
     17 C11         0.7830   -0.1190   -3.6060 ca        1 TPB      0.165600
     18 C12        -0.0600   -1.1670   -4.0340 ca        1 TPB     -0.149500
     19 C13        -0.4710   -1.2380   -5.3610 ca        1 TPB     -0.076000
     20 C14        -0.0450   -0.2820   -6.2920 ca        1 TPB     -0.039000
     21 C15         0.8040    0.7540   -5.8800 ca        1 TPB     -0.076000
     22 C16         1.2110    0.8400   -4.5560 ca        1 TPB     -0.149500
     23 C17        -0.4670   -0.3640   -7.6460 cg        1 TPB      0.238800
     24 N6         -0.8130   -0.4310   -8.7550 n1        1 TPB     -0.369800
     25 C41        -1.1590   -0.6310    7.4750 c3        1 TPB     -0.056800
     26 HN7         1.8350    0.9660    2.3290 hn        1 TPB      0.429800
     27 H211        1.7310   -1.7850    2.6870 hc        1 TPB      0.050367
     28 H212        2.9130   -0.7550    3.6000 hc        1 TPB      0.050367
     29 H213        2.2700   -2.2740    4.3450 hc        1 TPB      0.050367
     30 H3          0.8360   -1.8230    6.0870 ha        1 TPB      0.136500
     31 H5         -2.0300    1.3970    5.9060 ha        1 TPB      0.136500
     32 H611       -1.7460    2.0860    2.5080 hc        1 TPB      0.050367
     33 H612       -2.1630    2.8190    4.1150 hc        1 TPB      0.050367
     34 H613       -0.5570    3.1670    3.3440 hc        1 TPB      0.050367
     35 HN5         2.1190    0.4880   -2.1940 hn        1 TPB      0.440800
     36 H10        -2.6240   -0.8430   -0.2310 h4        1 TPB      0.028100
     37 H7         -1.6880   -0.1520    2.0240 ha        1 TPB      0.165000
     38 H12        -0.4020   -1.9380   -3.3270 ha        1 TPB      0.151500
     39 H13        -1.1340   -2.0580   -5.6800 ha        1 TPB      0.146000
     40 H15         1.1450    1.5080   -6.6070 ha        1 TPB      0.146000
     41 H16         1.8750    1.6660   -4.2540 ha        1 TPB      0.151500
     42 H411       -0.5700   -0.0990    8.2650 hc        1 TPB      0.047367
     43 H412       -2.2340   -0.3500    7.5930 hc        1 TPB      0.047367
     44 H413       -1.0590   -1.7310    7.6460 hc        1 TPB      0.047367
@<TRIPOS>BOND
     1    1    2 1   
     2    1    3 ar  
     3    1    8 ar  
     4    2   10 1   
     5    2   26 1   
     6    3    4 1   
     7    3    5 ar  
     8    4   27 1   
     9    4   28 1   
    10    4   29 1   
    11    5    6 ar  
    12    5   30 1   
    13    6    7 ar  
    14    6   25 1   
    15    7    8 ar  
    16    7   31 1   
    17    8    9 1   
    18    9   32 1   
    19    9   33 1   
    20    9   34 1   
    21   10   11 ar  
    22   10   16 ar  
    23   11   12 ar  
    24   12   13 1   
    25   12   14 ar  
    26   13   17 1   
    27   13   35 1   
    28   14   15 ar  
    29   15   16 ar  
    30   15   36 1   
    31   16   37 1   
    32   17   18 ar  
    33   17   22 ar  
    34   18   19 ar  
    35   18   38 1   
    36   19   20 ar  
    37   19   39 1   
    38   20   21 ar  
    39   20   23 1   
    40   21   22 ar  
    41   21   40 1   
    42   22   41 1   
    43   23   24 3   
    44   25   42 1   
    45   25   43 1   
    46   25   44 1   
@<TRIPOS>SUBSTRUCTURE
     1 TPB         1 TEMP              0 ****  ****    0 ROOT
