@<TRIPOS>MOLECULE
TPC
   32    32     1     0     0
SMALL
bcc


@<TRIPOS>ATOM
      1 S5'        -2.4160   -1.4430    3.3580 s         1 TPC     -0.797000
      2 N1          1.0260   -1.9670    1.1840 n         1 TPC     -0.283000
      3 C6         -0.1190   -2.6860    1.4360 c2        1 TPC      0.047000
      4 C2          1.9650   -2.4540    0.2140 c2        1 TPC      0.336000
      5 O2          3.0260   -1.7930    0.0410 o         1 TPC     -0.450000
      6 N3          1.7100   -3.6260   -0.5010 n2        1 TPC     -0.351000
      7 C4          0.5290   -4.2570   -0.2860 c2        1 TPC      0.192000
      8 N4          0.1920   -5.3590   -1.0730 nh        1 TPC     -0.351000
      9 C5         -0.4170   -3.8180    0.7110 c2        1 TPC     -0.345000
     10 C2'         1.1620    0.5550    1.0020 c3        1 TPC     -0.220000
     11 C5'        -1.8600   -0.1010    2.3680 c3        1 TPC     -0.139000
     12 C4'        -0.5110    0.4600    2.7920 c3        1 TPC      0.040000
     13 O4'         0.5050   -0.5310    3.0300 os        1 TPC     -0.242000
     14 C1'         1.3250   -0.7160    1.8760 c3        1 TPC      0.165000
     15 C3'         0.0520    1.3710    1.6700 c3        1 TPC     -0.019000
     16 O3'         0.5520    2.5570    2.2750 oh        1 TPC     -0.331000
     17 P          -4.2120   -2.7960    2.2570 p3        1 TPC      2.495000
     18 OP1        -4.7510   -1.7840    1.3080 o         1 TPC     -1.184000
     19 OP2        -5.0380   -3.1690    3.4330 o         1 TPC     -1.184000
     20 OP3        -3.3460   -3.8630    1.6720 o         1 TPC     -1.184000
     21 H6         -0.8300   -2.3380    2.2720 h4        1 TPC      0.289000
     22 HN41       -0.5530   -5.9100   -0.7160 hn        1 TPC      0.201000
     23 HN42        0.9240   -5.8470   -1.5280 hn        1 TPC      0.201000
     24 H5         -1.4000   -4.3050    0.8950 ha        1 TPC      0.253000
     25 H2'1        0.8960    0.3040   -0.0530 hc        1 TPC      0.097500
     26 H2'2        2.1290    1.1140    0.9930 hc        1 TPC      0.097500
     27 H5'1       -1.8050   -0.4360    1.3020 h1        1 TPC      0.078500
     28 H5'2       -2.6040    0.7310    2.4270 h1        1 TPC      0.078500
     29 H4'        -0.5920    1.0020    3.7720 h1        1 TPC      0.126000
     30 H1'         2.3840   -0.8010    2.2650 h2        1 TPC      0.114000
     31 H1         -0.7500    1.6490    0.9350 h1        1 TPC      0.090000
     32 H3'         0.9660    3.0670    1.5710 ho        1 TPC      0.176000
@<TRIPOS>BOND
     1    1   11 1   
     2    2    3 1   
     3    2    4 1   
     4    2   14 1   
     5    3    9 1   
     6    3   21 1   
     7    4    5 1   
     8    4    6 1   
     9    6    7 1   
    10    7    8 1   
    11    7    9 1   
    12    8   22 1   
    13    8   23 1   
    14    9   24 1   
    15   10   14 1   
    16   10   15 1   
    17   10   25 1   
    18   10   26 1   
    19   11   12 1   
    20   11   27 1   
    21   11   28 1   
    22   12   13 1   
    23   12   15 1   
    24   12   29 1   
    25   13   14 1   
    26   14   30 1   
    27   15   16 1   
    28   15   31 1   
    29   16   32 1   
    30   17   18 1   
    31   17   19 1   
    32   17   20 1   
@<TRIPOS>SUBSTRUCTURE
     1 TPC         1 TEMP              0 ****  ****    0 ROOT
