@<TRIPOS>MOLECULE
TPC
   32    32     1     0     0
SMALL
bcc


@<TRIPOS>ATOM
      1 S5'        -2.6950    0.8110    0.1500 ss        1 TPC     -0.801000
      2 N1          1.0030   -1.2670    0.3620 n         1 TPC     -0.280000
      3 C6         -0.1280   -2.0540    0.0270 c2        1 TPC      0.044000
      4 C2          2.1320   -1.1810   -0.5620 c2        1 TPC      0.336000
      5 O2          3.1740   -0.6720   -0.2020 o         1 TPC     -0.446000
      6 N3          2.0260   -1.7560   -1.9010 n2        1 TPC     -0.343000
      7 C4          0.8990   -2.5450   -2.2470 c1        1 TPC      0.181000
      8 N4          0.8800   -3.2530   -3.4760 n2        1 TPC     -0.334000
      9 C5         -0.1990   -2.7130   -1.2850 c2        1 TPC     -0.333000
     10 C2'         1.7880    0.7850    1.5000 c3        1 TPC     -0.221000
     11 C5'        -0.9480    1.1190    0.1770 c3        1 TPC     -0.137000
     12 C4'        -0.4760    1.1440    1.5710 c3        1 TPC      0.002000
     13 O4'        -0.1160   -0.3820    2.0760 os        1 TPC     -0.256000
     14 C1'         1.0770   -0.6370    1.6290 c3        1 TPC      0.157000
     15 C3'         0.6480    1.8400    1.6600 c3        1 TPC     -0.015000
     16 O3'         0.7390    2.4910    2.9680 oh        1 TPC     -0.345000
     17 P          -3.6450    2.3210   -0.9020 p5        1 TPC      1.536500
     18 OP1        -2.9750    2.4980   -2.2440 o         1 TPC     -0.864833
     19 OP2        -3.5580    3.6100   -0.1210 o         1 TPC     -0.864833
     20 OP3        -5.0960    1.9540   -1.1080 o         1 TPC     -0.864833
     21 H6         -0.8270   -2.2120    0.6910 h4        1 TPC      0.286000
     22 HN41        0.2090   -3.8490   -3.6490 hn        1 TPC      0.194000
     23 HN42        1.5530   -3.1330   -4.0830 hn        1 TPC      0.194000
     24 H5         -0.9760   -3.2550   -1.5190 ha        1 TPC      0.251000
     25 H2'1        2.2090    0.8740    0.6220 hc        1 TPC      0.105500
     26 H2'2        2.4530    0.8970    2.2080 hc        1 TPC      0.105500
     27 H5'1       -0.7620    1.9820   -0.2460 h1        1 TPC      0.081000
     28 H5'2       -0.4840    0.4100   -0.3110 h1        1 TPC      0.081000
     29 H4'        -1.1600    1.5360    2.1500 h1        1 TPC      0.120000
     30 H1'         1.5640   -1.2030    2.2630 h2        1 TPC      0.109000
     31 H1          0.6950    2.5030    0.9440 h1        1 TPC      0.128000
     32 H3'         0.9970    3.3360    2.8610 ho        1 TPC      0.194000
@<TRIPOS>BOND
     1    1   11 1   
     2    1   17 1   
     3    2    3 1   
     4    2    4 1   
     5    2   14 1   
     6    3    9 1   
     7    3   21 1   
     8    4    5 1   
     9    4    6 1   
    10    6    7 1   
    11    7    9 1   
    12    8   22 1   
    13    8   23 1   
    14    9   24 1   
    15   10   14 1   
    16   10   15 1   
    17   10   25 1   
    18   10   26 1   
    19   11   12 1   
    20   11   27 1   
    21   11   28 1   
    22   12   13 1   
    23   12   15 1   
    24   12   29 1   
    25   13   14 1   
    26   14   30 1   
    27   15   16 1   
    28   15   31 1   
    29   16   32 1   
    30   17   18 1   
    31   17   19 1   
    32   17   20 1   
@<TRIPOS>SUBSTRUCTURE
     1 TPC         1 TEMP              0 ****  ****    0 ROOT
