@<TRIPOS>MOLECULE
TPD
   31    32     1     0     0
SMALL
bcc


@<TRIPOS>ATOM
      1 C3          0.0530   -0.1200   -0.3190 cc        1 TPD     -0.648600
      2 C9          1.2940    2.5490    5.2750 c3        1 TPD      0.225100
      3 C10         1.8450    3.8940    5.4120 cc        1 TPD     -0.312400
      4 C11         1.0910    5.0660    5.2900 cd        1 TPD     -0.097000
      5 C12         1.8730    6.2180    5.5540 cd        1 TPD     -0.149000
      6 C13         3.1800    5.8750    5.8770 cc        1 TPD     -0.124100
      7 O1A         0.8590   -0.1040   -2.6930 o         1 TPD     -0.533800
      8 O2A        -1.5000    0.2650   -2.2250 o         1 TPD     -0.533800
      9 N21        -0.5690   -2.0860   -2.0540 n4        1 TPD     -0.801500
     10 S1         -0.2600   -0.2350   -1.9110 sy        1 TPD      1.510200
     11 C4          1.3950   -0.3840    0.1160 cd        1 TPD     -0.047000
     12 C5          1.5480   -0.1440    1.4750 cd        1 TPD     -0.060000
     13 C6          0.3250    0.3090    2.0670 cc        1 TPD     -0.598600
     14 S2         -0.8250    0.3810    0.9450 ss        1 TPD      0.767200
     15 S7          0.3060    0.5160    3.7080 sy        1 TPD      1.483200
     16 O3B        -0.9850    0.7150    4.1450 o         1 TPD     -0.541300
     17 O4B         1.2200   -0.3050    4.3290 o         1 TPD     -0.541300
     18 N8          1.0700    2.1740    3.8220 n4        1 TPD     -0.743900
     19 S14         3.4210    4.2440    5.8570 ss        1 TPD      0.172200
     20 H91         1.9870    1.7690    5.7130 hx        1 TPD      0.118700
     21 H92         0.2810    2.4830    5.7770 hx        1 TPD      0.118700
     22 H11         0.0260    5.1070    5.0500 ha        1 TPD      0.159000
     23 H12         1.4850    7.2410    5.5180 ha        1 TPD      0.191000
     24 H13         3.9620    6.5970    6.1330 h4        1 TPD      0.211000
     25 HNL1        0.0490   -2.4930   -2.7640 hn        1 TPD      0.473133
     26 HNL2       -1.5300   -2.2710   -2.3560 hn        1 TPD      0.473133
     27 H4          2.2080   -0.7040   -0.5540 ha        1 TPD      0.219000
     28 H5          2.4780   -0.3170    2.0360 ha        1 TPD      0.217000
     29 HN8         0.4870    2.9120    3.4190 hn        1 TPD      0.460800
     30 H213       -0.4150   -2.6050   -1.1930 hn        1 TPD      0.473133
     31 H82         1.9720    2.2300    3.3480 hn        1 TPD      0.460800
@<TRIPOS>BOND
     1    1   10 1   
     2    1   11 2   
     3    1   14 1   
     4    2    3 1   
     5    2   18 1   
     6    2   20 1   
     7    2   21 1   
     8    3    4 2   
     9    3   19 1   
    10    4    5 1   
    11    4   22 1   
    12    5    6 2   
    13    5   23 1   
    14    6   19 1   
    15    6   24 1   
    16    7   10 2   
    17    8   10 2   
    18    9   10 1   
    19    9   25 1   
    20    9   26 1   
    21    9   30 1   
    22   11   12 1   
    23   11   27 1   
    24   12   13 2   
    25   12   28 1   
    26   13   14 1   
    27   13   15 1   
    28   15   16 2   
    29   15   17 2   
    30   15   18 1   
    31   18   29 1   
    32   18   31 1   
@<TRIPOS>SUBSTRUCTURE
     1 TPD         1 TEMP              0 ****  ****    0 ROOT
