@<TRIPOS>MOLECULE
TPD
   31    32     1     0     0
SMALL
bcc


@<TRIPOS>ATOM
      1 C3          0.0570   -0.1270   -0.3160 cc        1 TPD     -0.648600
      2 C9          1.3090    2.5430    5.2750 c3        1 TPD      0.225100
      3 C10         1.8310    3.9010    5.4120 cc        1 TPD     -0.312400
      4 C11         1.0480    5.0560    5.3050 cd        1 TPD     -0.097000
      5 C12         1.8060    6.2230    5.5640 cd        1 TPD     -0.149000
      6 C13         3.1240    5.9090    5.8700 cc        1 TPD     -0.124100
      7 O1A         0.8300   -0.0800   -2.7010 o         1 TPD     -0.533800
      8 O2A        -1.5290    0.2330   -2.2000 o         1 TPD     -0.533800
      9 N21        -0.5430   -2.0970   -2.0540 nz        1 TPD     -0.801500
     10 S1         -0.2740   -0.2400   -1.9050 sy        1 TPD      1.510200
     11 C4          1.4110   -0.3620    0.1000 cd        1 TPD     -0.047000
     12 C5          1.5750   -0.1250    1.4580 cd        1 TPD     -0.060000
     13 C6          0.3500    0.2980    2.0680 cc        1 TPD     -0.598600
     14 S2         -0.8160    0.3480    0.9620 ss        1 TPD      0.767200
     15 S7          0.3490    0.4950    3.7110 sy        1 TPD      1.483200
     16 O3B        -0.9420    0.6620    4.1660 o         1 TPD     -0.541300
     17 O4B         1.2880   -0.3070    4.3150 o         1 TPD     -0.541300
     18 N8          1.0750    2.1710    3.8230 ny        1 TPD     -0.743900
     19 S14         3.4030    4.2850    5.8380 ss        1 TPD      0.172200
     20 H91         2.0250    1.7780    5.7000 hx        1 TPD      0.118700
     21 H92         0.3040    2.4510    5.7900 hx        1 TPD      0.118700
     22 H11        -0.0210    5.0720    5.0780 ha        1 TPD      0.159000
     23 H12         1.3940    7.2370    5.5380 ha        1 TPD      0.191000
     24 H13         3.8930    6.6480    6.1200 h4        1 TPD      0.211000
     25 HNL1        0.0740   -2.4870   -2.7740 hn        1 TPD      0.473133
     26 HNL2       -1.5040   -2.3030   -2.3440 hn        1 TPD      0.473133
     27 H4          2.2210   -0.6600   -0.5820 ha        1 TPD      0.219000
     28 H5          2.5170   -0.2800    2.0060 ha        1 TPD      0.217000
     29 HN8         0.4710    2.8970    3.4310 hn        1 TPD      0.460800
     30 H213       -0.3660   -2.6160   -1.1970 hn        1 TPD      0.473133
     31 H82         1.9700    2.2490    3.3380 hn        1 TPD      0.460800
@<TRIPOS>BOND
     1    1   10 1   
     2    1   11 2   
     3    1   14 1   
     4    2    3 1   
     5    2   18 1   
     6    2   20 1   
     7    2   21 1   
     8    3    4 2   
     9    3   19 1   
    10    4    5 1   
    11    4   22 1   
    12    5    6 2   
    13    5   23 1   
    14    6   19 1   
    15    6   24 1   
    16    7   10 2   
    17    8   10 2   
    18    9   10 1   
    19    9   25 1   
    20    9   26 1   
    21    9   30 1   
    22   11   12 1   
    23   11   27 1   
    24   12   13 2   
    25   12   28 1   
    26   13   14 1   
    27   13   15 1   
    28   15   16 2   
    29   15   17 2   
    30   15   18 1   
    31   18   29 1   
    32   18   31 1   
@<TRIPOS>SUBSTRUCTURE
     1 TPD         1 TEMP              0 ****  ****    0 ROOT
