@<TRIPOS>MOLECULE
TPD
   31    32     1     0     0
SMALL
bcc


@<TRIPOS>ATOM
      1 C3          0.0580   -0.1240   -0.3180 cc        1 TPD     -0.648600
      2 C9          1.2980    2.5460    5.2760 c3        1 TPD      0.225100
      3 C10         1.8330    3.8980    5.4140 cc        1 TPD     -0.312400
      4 C11         1.0650    5.0610    5.2950 cd        1 TPD     -0.097000
      5 C12         1.8330    6.2210    5.5580 cd        1 TPD     -0.149000
      6 C13         3.1450    5.8940    5.8780 cc        1 TPD     -0.124100
      7 O1A         0.8470   -0.0910   -2.6970 o         1 TPD     -0.533800
      8 O2A        -1.5120    0.2490   -2.2130 o         1 TPD     -0.533800
      9 N21        -0.5510   -2.0910   -2.0550 n4        1 TPD     -0.801500
     10 S1         -0.2640   -0.2370   -1.9090 sy        1 TPD      1.510200
     11 C4          1.4070   -0.3720    0.1070 cd        1 TPD     -0.047000
     12 C5          1.5650   -0.1340    1.4660 cd        1 TPD     -0.060000
     13 C6          0.3400    0.3020    2.0670 cc        1 TPD     -0.598600
     14 S2         -0.8180    0.3630    0.9530 ss        1 TPD      0.767200
     15 S7          0.3310    0.5030    3.7090 sy        1 TPD      1.483200
     16 O3B        -0.9610    0.6850    4.1560 o         1 TPD     -0.541300
     17 O4B         1.2580   -0.3070    4.3210 o         1 TPD     -0.541300
     18 N8          1.0740    2.1710    3.8230 n4        1 TPD     -0.743900
     19 S14         3.4050    4.2660    5.8550 ss        1 TPD      0.172200
     20 H91         2.0010    1.7740    5.7110 hx        1 TPD      0.118700
     21 H92         0.2870    2.4670    5.7810 hx        1 TPD      0.118700
     22 H11        -0.0020    5.0890    5.0580 ha        1 TPD      0.159000
     23 H12         1.4330    7.2400    5.5240 ha        1 TPD      0.191000
     24 H13         3.9190    6.6250    6.1330 h4        1 TPD      0.211000
     25 HNL1       -1.5120   -2.2870   -2.3520 hn        1 TPD      0.473133
     26 HNL2        0.0660   -2.4890   -2.7710 hn        1 TPD      0.473133
     27 H4          2.2190   -0.6800   -0.5690 ha        1 TPD      0.219000
     28 H5          2.5010   -0.2970    2.0200 ha        1 TPD      0.217000
     29 HN8         1.9740    2.2390    3.3460 hn        1 TPD      0.460800
     30 H213       -0.3860   -2.6110   -1.1970 hn        1 TPD      0.473133
     31 H82         0.4810    2.9020    3.4230 hn        1 TPD      0.460800
@<TRIPOS>BOND
     1    1   10 1   
     2    1   11 2   
     3    1   14 1   
     4    2    3 1   
     5    2   18 1   
     6    2   20 1   
     7    2   21 1   
     8    3    4 2   
     9    3   19 1   
    10    4    5 1   
    11    4   22 1   
    12    5    6 2   
    13    5   23 1   
    14    6   19 1   
    15    6   24 1   
    16    7   10 2   
    17    8   10 2   
    18    9   10 1   
    19    9   25 1   
    20    9   26 1   
    21    9   30 1   
    22   11   12 1   
    23   11   27 1   
    24   12   13 2   
    25   12   28 1   
    26   13   14 1   
    27   13   15 1   
    28   15   16 2   
    29   15   17 2   
    30   15   18 1   
    31   18   29 1   
    32   18   31 1   
@<TRIPOS>SUBSTRUCTURE
     1 TPD         1 TEMP              0 ****  ****    0 ROOT
