@<TRIPOS>MOLECULE
TPD
   29    30     1     0     0
SMALL
bcc


@<TRIPOS>ATOM
      1 C3          0.0190    0.1710    3.1250 cc        1 TPD     -0.502600
      2 C9          0.7900   -0.4070   -2.2550 c3        1 TPD      0.307100
      3 C10         1.0480   -0.1130   -3.6880 cc        1 TPD     -0.162400
      4 C11         1.8030    0.9460   -4.1590 cd        1 TPD     -0.144000
      5 C12         1.8810    0.9430   -5.5850 cd        1 TPD     -0.157000
      6 C13         1.1810   -0.1160   -6.1260 cc        1 TPD     -0.171100
      7 O1A         1.0850    1.1310    5.1840 o         1 TPD     -0.654800
      8 O2A         1.6680   -1.1090    4.5020 o         1 TPD     -0.654800
      9 N21        -0.5400   -0.6910    5.4860 n3        1 TPD     -1.026700
     10 S1          0.6870   -0.1060    4.6440 sy        1 TPD      1.561200
     11 C4         -0.5030    1.4520    2.8330 cd        1 TPD     -0.074000
     12 C5         -0.9890    1.5200    1.5210 cd        1 TPD     -0.074000
     13 C6         -0.8210    0.2890    0.8450 cc        1 TPD     -0.495600
     14 S2         -0.1200   -0.7900    1.8290 ss        1 TPD      0.530200
     15 S7         -1.3800    0.1530   -0.7370 sy        1 TPD      1.550200
     16 O3B        -1.7310   -1.1980   -0.9500 o         1 TPD     -0.651800
     17 O4B        -2.3810    1.1220   -0.9310 o         1 TPD     -0.651800
     18 N8         -0.0860    0.5370   -1.6170 n3        1 TPD     -0.921100
     19 S14         0.4640   -1.0500   -4.9490 ss        1 TPD      0.065200
     20 H91         1.7850   -0.4100   -1.7150 h1        1 TPD      0.061700
     21 H92         0.3390   -1.4400   -2.1560 h1        1 TPD      0.061700
     22 H11         2.2920    1.6940   -3.5330 ha        1 TPD      0.152000
     23 H12         2.4310    1.6930   -6.1560 ha        1 TPD      0.156000
     24 H13         1.0940   -0.3360   -7.1890 h4        1 TPD      0.174000
     25 HNL1       -0.7020   -1.6580    5.6160 hn        1 TPD      0.450800
     26 HNL2       -1.2070   -0.1270    5.9500 hn        1 TPD      0.450800
     27 H4         -0.5000    2.2880    3.5430 ha        1 TPD      0.182000
     28 H5         -1.4630    2.4010    1.0750 ha        1 TPD      0.183000
     29 HN8         0.1450    1.4820   -1.8170 hn        1 TPD      0.454800
@<TRIPOS>BOND
     1    1   10 1   
     2    1   11 2   
     3    1   14 1   
     4    2    3 1   
     5    2   18 1   
     6    2   20 1   
     7    2   21 1   
     8    3    4 2   
     9    3   19 1   
    10    4    5 1   
    11    4   22 1   
    12    5    6 2   
    13    5   23 1   
    14    6   19 1   
    15    6   24 1   
    16    7   10 2   
    17    8   10 2   
    18    9   10 1   
    19    9   25 1   
    20    9   26 1   
    21   11   12 1   
    22   11   27 1   
    23   12   13 2   
    24   12   28 1   
    25   13   14 1   
    26   13   15 1   
    27   15   16 2   
    28   15   17 2   
    29   15   18 1   
    30   18   29 1   
@<TRIPOS>SUBSTRUCTURE
     1 TPD         1 TEMP              0 ****  ****    0 ROOT
