@<TRIPOS>MOLECULE
TPE
   54    56     1     0     0
SMALL
bcc


@<TRIPOS>ATOM
      1 C1B        -0.4150   -1.2980   -2.7780 ca        1 TPE      0.258100
      2 C2B         0.9110   -0.8190   -2.6850 ca        1 TPE     -0.187500
      3 C3B         1.2500    0.1180   -1.7150 ca        1 TPE     -0.119000
      4 C4B         0.2880    0.6010   -0.8300 ca        1 TPE     -0.207000
      5 C5B        -1.0240    0.1330   -0.9170 ca        1 TPE     -0.119000
      6 C6B        -1.3880   -0.8010   -1.8790 ca        1 TPE     -0.187500
      7 PA         -4.0500   -4.0420   -2.9300 p5        1 TPE      1.607800
      8 O1A        -4.4630   -3.0590   -1.9200 o         1 TPE     -0.870000
      9 O2A        -4.2700   -5.5040   -2.8680 o         1 TPE     -0.870000
     10 O3A        -2.4630   -3.8480   -3.2750 os        1 TPE     -0.827800
     11 PB         -0.9070   -3.7750   -3.6900 p5        1 TPE      1.623800
     12 O1B         0.0030   -4.2260   -2.6310 o         1 TPE     -0.872500
     13 O2B        -0.8370   -4.2190   -5.1010 o         1 TPE     -0.872500
     14 O3B        -0.7490   -2.1060   -3.7980 os        1 TPE     -0.506500
     15 O5'        -4.7590   -3.5740   -4.3550 os        1 TPE     -0.592200
     16 C5'        -4.0940   -3.7280   -5.5600 c3        1 TPE      0.173400
     17 C4'        -4.6400   -4.9360   -6.3470 c3        1 TPE      0.105100
     18 O4'        -4.2670   -4.8110   -7.7340 os        1 TPE     -0.437600
     19 C3'        -4.0250   -6.2500   -5.8270 c3        1 TPE      0.090100
     20 O3'        -5.0040   -7.2830   -6.0160 os        1 TPE     -0.426900
     21 CR         -5.0580   -8.3140   -5.1160 c         1 TPE      0.654100
     22 OR         -5.9350   -9.1360   -5.4190 o         1 TPE     -0.576000
     23 CHR        -4.1480   -8.3930   -3.9470 c3        1 TPE     -0.218100
     24 C2'        -2.8400   -6.4940   -6.7640 c3        1 TPE     -0.146400
     25 C1'        -3.2420   -5.7650   -8.0670 c3        1 TPE      0.302500
     26 N1         -2.1410   -5.0980   -8.7650 n         1 TPE     -0.360000
     27 C2         -2.0530   -5.2380  -10.1700 c         1 TPE      0.801500
     28 O2         -2.7630   -6.0430  -10.8210 o         1 TPE     -0.686500
     29 N3         -1.0950   -4.4760  -10.8610 n         1 TPE     -0.596500
     30 C4         -0.2370   -3.5560  -10.2260 c         1 TPE      0.720700
     31 O4          0.5670   -2.9300  -10.9470 o         1 TPE     -0.673500
     32 C5         -0.3840   -3.4390   -8.7760 cc        1 TPE     -0.297400
     33 C5M         0.5050   -2.5120   -8.0480 c3        1 TPE     -0.024900
     34 C6         -1.3260   -4.1820   -8.1170 cd        1 TPE      0.071600
     35 H2B         1.6670   -1.2060   -3.3810 ha        1 TPE      0.154000
     36 H3B         2.2860    0.4770   -1.6470 ha        1 TPE      0.102000
     37 H4B         0.5620    1.3390   -0.0660 ha        1 TPE      0.095000
     38 H5B        -1.7840    0.5060   -0.2150 ha        1 TPE      0.102000
     39 H6B        -2.4260   -1.1720   -1.9330 ha        1 TPE      0.154000
     40 H5'2       -2.9820   -3.8470   -5.3970 h1        1 TPE      0.048200
     41 H5'1       -4.2820   -2.8080   -6.1820 h1        1 TPE      0.048200
     42 H4'        -5.7600   -4.9590   -6.3340 h1        1 TPE      0.087700
     43 H3'        -3.7440   -6.1310   -4.7360 h1        1 TPE      0.163700
     44 HHR3       -4.3740   -7.5480   -3.2300 hc        1 TPE      0.094367
     45 HHR2       -3.0840   -8.2930   -4.2720 hc        1 TPE      0.094367
     46 HHR1       -4.2900   -9.3700   -3.4260 hc        1 TPE      0.094367
     47 H2'2       -1.9140   -6.0580   -6.2980 hc        1 TPE      0.091700
     48 H2'1       -2.6820   -7.5780   -6.9650 hc        1 TPE      0.091700
     49 H1'        -3.7170   -6.4830   -8.8030 h2        1 TPE      0.096700
     50 H3         -1.0500   -4.5960  -11.8470 hn        1 TPE      0.327500
     51 H5M3        0.4000   -2.6610   -6.9410 hc        1 TPE      0.049033
     52 H5M2        0.2480   -1.4520   -8.2990 hc        1 TPE      0.049033
     53 H5M1        1.5690   -2.6880   -8.3430 hc        1 TPE      0.049033
     54 H6         -1.4560   -4.1010   -7.0030 h4        1 TPE      0.274000
@<TRIPOS>BOND
     1    1    2 ar  
     2    1    6 ar  
     3    1   14 1   
     4    2    3 ar  
     5    2   35 1   
     6    3    4 ar  
     7    3   36 1   
     8    4    5 ar  
     9    4   37 1   
    10    5    6 ar  
    11    5   38 1   
    12    6   39 1   
    13    7    8 1   
    14    7    9 1   
    15    7   10 1   
    16    7   15 1   
    17   10   11 1   
    18   11   12 1   
    19   11   13 1   
    20   11   14 1   
    21   15   16 1   
    22   16   17 1   
    23   16   40 1   
    24   16   41 1   
    25   17   18 1   
    26   17   19 1   
    27   17   42 1   
    28   18   25 1   
    29   19   20 1   
    30   19   24 1   
    31   19   43 1   
    32   20   21 1   
    33   21   22 2   
    34   21   23 1   
    35   23   44 1   
    36   23   45 1   
    37   23   46 1   
    38   24   25 1   
    39   24   47 1   
    40   24   48 1   
    41   25   26 1   
    42   25   49 1   
    43   26   27 1   
    44   26   34 1   
    45   27   28 2   
    46   27   29 1   
    47   29   30 1   
    48   29   50 1   
    49   30   31 2   
    50   30   32 1   
    51   32   33 1   
    52   32   34 2   
    53   33   51 1   
    54   33   52 1   
    55   33   53 1   
    56   34   54 1   
@<TRIPOS>SUBSTRUCTURE
     1 TPE         1 TEMP              0 ****  ****    0 ROOT
