@<TRIPOS>MOLECULE
TPE
   54    56     1     0     0
SMALL
bcc


@<TRIPOS>ATOM
      1 C1B        -0.3500   -1.1870   -2.7180 ca        1 TPE      0.260100
      2 C2B         0.8620   -0.4610   -2.7250 ca        1 TPE     -0.187500
      3 C3B         1.1450    0.4380   -1.7030 ca        1 TPE     -0.119000
      4 C4B         0.2370    0.6390   -0.6650 ca        1 TPE     -0.208000
      5 C5B        -0.9630   -0.0740   -0.6530 ca        1 TPE     -0.119000
      6 C6B        -1.2690   -0.9760   -1.6640 ca        1 TPE     -0.187500
      7 PA         -3.3780   -4.5730   -2.7580 p5        1 TPE      1.604800
      8 O1A        -3.8390   -3.7560   -1.6270 o         1 TPE     -0.871000
      9 O2A        -3.3570   -6.0520   -2.8120 o         1 TPE     -0.871000
     10 O3A        -1.9190   -4.0490   -3.2590 os        1 TPE     -0.825800
     11 PB         -0.4750   -3.6240   -3.8420 p5        1 TPE      1.625800
     12 O1B         0.6340   -3.9640   -2.9450 o         1 TPE     -0.871000
     13 O2B        -0.5090   -3.9210   -5.2910 o         1 TPE     -0.871000
     14 O3B        -0.6590   -1.9540   -3.7760 os        1 TPE     -0.506500
     15 O5'        -4.3500   -4.1850   -4.0520 os        1 TPE     -0.595200
     16 C5'        -3.8190   -4.1830   -5.3310 c3        1 TPE      0.170400
     17 C4'        -4.3550   -5.3670   -6.1570 c3        1 TPE      0.087100
     18 O4'        -4.1470   -5.0930   -7.5590 os        1 TPE     -0.437600
     19 C3'        -3.5960   -6.6700   -5.8400 c3        1 TPE      0.092100
     20 O3'        -4.3790   -7.8280   -6.1770 os        1 TPE     -0.439900
     21 CR         -5.2500   -8.3520   -5.2610 c         1 TPE      0.648100
     22 OR         -5.7790   -9.3900   -5.6870 o         1 TPE     -0.577000
     23 CHR        -5.4980   -7.7130   -3.9480 c3        1 TPE     -0.211100
     24 C2'        -2.4540   -6.6590   -6.8650 c3        1 TPE     -0.120400
     25 C1'        -3.0690   -5.9030   -8.0680 c3        1 TPE      0.296500
     26 N1         -2.1300   -5.0790   -8.8280 n         1 TPE     -0.361000
     27 C2         -2.1750   -5.1440  -10.2420 c         1 TPE      0.801500
     28 O2         -2.8610   -5.9920  -10.8640 o         1 TPE     -0.685500
     29 N3         -1.3810   -4.2490  -10.9790 ns        1 TPE     -0.596500
     30 C4         -0.5680   -3.2660  -10.3810 c         1 TPE      0.719700
     31 O4          0.0850   -2.5230  -11.1420 o         1 TPE     -0.672500
     32 C5         -0.5780   -3.2290   -8.9190 cc        1 TPE     -0.289400
     33 C5M         0.2730   -2.2390   -8.2300 c3        1 TPE     -0.029900
     34 C6         -1.3610   -4.1030   -8.2130 cd        1 TPE      0.068600
     35 H2B         1.5780   -0.6270   -3.5410 ha        1 TPE      0.154500
     36 H3B         2.0950    0.9910   -1.7140 ha        1 TPE      0.101500
     37 H4B         0.4660    1.3490    0.1400 ha        1 TPE      0.095000
     38 H5B        -1.6790    0.0760    0.1680 ha        1 TPE      0.101500
     39 H6B        -2.2160   -1.5420   -1.6410 ha        1 TPE      0.154500
     40 H5'2       -4.1500   -3.2380   -5.8490 h1        1 TPE      0.050200
     41 H5'1       -2.6890   -4.2120   -5.3030 h1        1 TPE      0.050200
     42 H4'        -5.4630   -5.4790   -6.0360 h1        1 TPE      0.071700
     43 H3'        -3.2570   -6.6980   -4.7610 h1        1 TPE      0.169700
     44 HHR3       -6.3310   -8.2380   -3.4230 hc        1 TPE      0.096367
     45 HHR2       -5.7580   -6.6330   -4.0860 hc        1 TPE      0.096367
     46 HHR1       -4.5690   -7.7460   -3.3110 hc        1 TPE      0.096367
     47 H2'2       -1.5730   -6.1230   -6.4230 hc        1 TPE      0.092700
     48 H2'1       -2.1570   -7.6900   -7.1680 hc        1 TPE      0.092700
     49 H1'        -3.5460   -6.6300   -8.7940 h2        1 TPE      0.100700
     50 H3         -1.4250   -4.3210  -11.9700 hn        1 TPE      0.327500
     51 H5M3        0.2900   -2.4450   -7.1270 hc        1 TPE      0.051700
     52 H5M2       -0.1200   -1.2060   -8.4020 hc        1 TPE      0.051700
     53 H5M1        1.3160   -2.2830   -8.6310 hc        1 TPE      0.051700
     54 H6         -1.3870   -4.0780   -7.0900 h4        1 TPE      0.273000
@<TRIPOS>BOND
     1    1    2 ar  
     2    1    6 ar  
     3    1   14 1   
     4    2    3 ar  
     5    2   35 1   
     6    3    4 ar  
     7    3   36 1   
     8    4    5 ar  
     9    4   37 1   
    10    5    6 ar  
    11    5   38 1   
    12    6   39 1   
    13    7    8 1   
    14    7    9 1   
    15    7   10 1   
    16    7   15 1   
    17   10   11 1   
    18   11   12 1   
    19   11   13 1   
    20   11   14 1   
    21   15   16 1   
    22   16   17 1   
    23   16   40 1   
    24   16   41 1   
    25   17   18 1   
    26   17   19 1   
    27   17   42 1   
    28   18   25 1   
    29   19   20 1   
    30   19   24 1   
    31   19   43 1   
    32   20   21 1   
    33   21   22 2   
    34   21   23 1   
    35   23   44 1   
    36   23   45 1   
    37   23   46 1   
    38   24   25 1   
    39   24   47 1   
    40   24   48 1   
    41   25   26 1   
    42   25   49 1   
    43   26   27 1   
    44   26   34 1   
    45   27   28 2   
    46   27   29 1   
    47   29   30 1   
    48   29   50 1   
    49   30   31 2   
    50   30   32 1   
    51   32   33 1   
    52   32   34 2   
    53   33   51 1   
    54   33   52 1   
    55   33   53 1   
    56   34   54 1   
@<TRIPOS>SUBSTRUCTURE
     1 TPE         1 TEMP              0 ****  ****    0 ROOT
