@<TRIPOS>MOLECULE
TPE
   54    50     1     0     0
SMALL
bcc


@<TRIPOS>ATOM
      1 C1B         0.4630    1.1610    7.2360 c1        1 TPE      0.217000
      2 C2B         1.5340    1.4050    8.0840 c1        1 TPE     -0.161250
      3 C3B         1.3750    1.2700    9.4630 c1        1 TPE     -0.161250
      4 C4B         0.1480    0.8920    9.9870 c1        1 TPE     -0.161250
      5 C5B        -0.9170    0.6500    9.1420 c1        1 TPE     -0.161250
      6 C6B        -0.7580    0.7860    7.7570 c1        1 TPE     -0.184000
      7 PA          1.0990   -0.6340    2.2660 p3        1 TPE      2.713000
      8 O1A         0.3270   -1.8890    2.5550 o         1 TPE     -1.177000
      9 O2A         2.5790   -0.9560    2.1910 os        1 TPE     -1.210000
     10 O3A         0.8440    0.4260    3.4310 os        1 TPE     -1.295000
     11 PB          1.1590    0.1450    4.9640 p5        1 TPE      2.089000
     12 O1B         0.4880   -1.1370    5.3890 o         1 TPE     -0.870500
     13 O2B         2.6610    0.0180    5.1590 o         1 TPE     -0.870500
     14 O3B         0.6060    1.3550    5.8510 os        1 TPE     -0.694000
     15 O5'         0.6100   -0.0140    0.8570 os        1 TPE     -0.754000
     16 C5'         0.3920   -0.9180   -0.2600 c3        1 TPE      0.027000
     17 C4'        -0.4740   -0.2220   -1.3250 c3        1 TPE     -0.015000
     18 O4'         0.2570    0.4880   -2.0950 os        1 TPE     -0.285000
     19 C3'        -1.1530   -1.2980   -2.2730 c3        1 TPE      0.030000
     20 O3'        -2.4850   -1.3480   -2.0470 os        1 TPE     -0.297000
     21 CR         -3.0220   -2.6540   -2.0760 c2        1 TPE      0.350000
     22 OR         -2.2730   -3.6240   -2.0840 o         1 TPE     -0.378000
     23 CHR        -4.5390   -2.8570   -2.1560 c3        1 TPE     -0.246000
     24 C2'        -0.8810   -0.8320   -3.6690 c3        1 TPE     -0.213000
     25 C1'        -0.4180    0.4140   -3.5340 c3        1 TPE      0.154000
     26 N1          0.5270    0.6810   -4.5200 n         1 TPE     -0.267000
     27 C2          1.8310    0.3530   -4.3140 c2        1 TPE      0.392000
     28 O2          2.1680   -0.1730   -3.2660 o         1 TPE     -0.423000
     29 N3          2.7730    0.6790   -5.2460 n2        1 TPE     -0.375000
     30 C4          2.4160    1.3230   -6.3660 c1        1 TPE      0.355000
     31 O4          3.2620    1.6960   -7.1410 o         1 TPE     -0.393000
     32 C5          1.1040    1.6540   -6.5750 c1        1 TPE     -0.250000
     33 C5M         0.6830    2.2940   -7.8890 c2        1 TPE     -0.164000
     34 C6          0.1640    1.3280   -5.6450 c2        1 TPE      0.062000
     35 H2B         2.3900    1.7260    7.7160 ha        1 TPE      0.104750
     36 H3B         2.1180    1.5030   10.0690 ha        1 TPE      0.104750
     37 H4B         0.0570    0.7300   10.9450 ha        1 TPE      0.104750
     38 H5B        -1.7670    0.3240    9.5080 ha        1 TPE      0.104750
     39 H6B        -1.6170    0.5340    7.3410 ha        1 TPE      0.187000
     40 H5'2        1.2540   -1.1660   -0.6530 h1        1 TPE      0.092000
     41 H5'1       -0.0630   -1.7180    0.0550 h1        1 TPE      0.092000
     42 H4'        -1.1510    0.3300   -0.9010 h1        1 TPE      0.127000
     43 H3'        -0.7520   -2.1790   -2.1270 h1        1 TPE      0.162000
     44 HHR3       -4.7990   -3.6200   -1.5910 hc        1 TPE      0.127000
     45 HHR2       -4.9920   -2.0510   -1.8420 hc        1 TPE      0.127000
     46 HHR1       -4.7960   -3.0350   -3.0820 hc        1 TPE      0.127000
     47 H2'2       -0.2010   -1.4060   -4.0950 hc        1 TPE      0.111500
     48 H2'1       -1.7160   -0.8340   -4.2020 hc        1 TPE      0.111500
     49 H1'        -1.1540    1.0540   -3.5920 h2        1 TPE      0.136000
     50 H3          3.6460    0.4590   -5.1070 hn        1 TPE      0.240000
     51 H5M3        1.2320    3.0850   -8.0560 ha        1 TPE      0.098333
     52 H5M2        0.8060    1.6520   -8.6200 ha        1 TPE      0.098333
     53 H5M1       -0.2740    2.5590   -7.8380 ha        1 TPE      0.098333
     54 H6         -0.7700    1.5910   -5.7790 h4        1 TPE      0.265000
@<TRIPOS>BOND
     1    1    6 1   
     2    1   14 1   
     3    2    3 1   
     4    2   35 1   
     5    3   36 1   
     6    4    5 1   
     7    4   37 1   
     8    5   38 1   
     9    6   39 1   
    10    7    8 1   
    11    7   10 1   
    12    7   15 1   
    13   10   11 1   
    14   11   12 1   
    15   11   13 1   
    16   11   14 1   
    17   15   16 1   
    18   16   17 1   
    19   16   40 1   
    20   16   41 1   
    21   17   18 1   
    22   17   19 1   
    23   17   42 1   
    24   18   25 1   
    25   19   20 1   
    26   19   24 1   
    27   19   43 1   
    28   20   21 1   
    29   21   22 1   
    30   21   23 1   
    31   23   44 1   
    32   23   45 1   
    33   23   46 1   
    34   24   25 1   
    35   24   47 1   
    36   24   48 1   
    37   25   26 1   
    38   25   49 1   
    39   26   27 1   
    40   26   34 1   
    41   27   28 1   
    42   27   29 1   
    43   29   50 1   
    44   30   31 1   
    45   30   32 1   
    46   32   34 1   
    47   33   51 1   
    48   33   52 1   
    49   33   53 1   
    50   34   54 1   
@<TRIPOS>SUBSTRUCTURE
     1 TPE         1 TEMP              0 ****  ****    0 ROOT
