@<TRIPOS>MOLECULE
TPE
   54    56     1     0     0
SMALL
bcc


@<TRIPOS>ATOM
      1 C1B        -1.3020    0.3930   -3.3450 ca        1 TPE      0.258100
      2 C2B        -2.4350   -0.2120   -3.9350 ca        1 TPE     -0.187500
      3 C3B        -2.7520    0.0450   -5.2640 ca        1 TPE     -0.119000
      4 C4B        -1.9650    0.9050   -6.0280 ca        1 TPE     -0.207000
      5 C5B        -0.8450    1.5070   -5.4510 ca        1 TPE     -0.119000
      6 C6B        -0.5090    1.2680   -4.1240 ca        1 TPE     -0.187500
      7 PA          2.6630    1.0350   -1.1960 p5        1 TPE      1.607800
      8 O1A         2.8510    1.8410   -2.4090 o         1 TPE     -0.870000
      9 O2A         3.6750    0.1580   -0.5650 o         1 TPE     -0.870000
     10 O3A         1.3150    0.1220   -1.3400 os        1 TPE     -0.827800
     11 PB          0.0220   -0.8420   -1.3630 p5        1 TPE      1.623800
     12 O1B         0.1480   -1.9660   -2.2970 o         1 TPE     -0.872500
     13 O2B        -0.4230   -0.9660    0.0440 o         1 TPE     -0.872500
     14 O3B        -1.0860    0.2310   -2.0300 os        1 TPE     -0.506500
     15 O5'         2.2220    2.0920    0.0040 os        1 TPE     -0.592200
     16 C5'         1.3030    1.7220    0.9710 c3        1 TPE      0.173400
     17 C4'         1.9990    1.3900    2.3050 c3        1 TPE      0.105100
     18 O4'         1.0350    1.4480    3.3750 os        1 TPE     -0.437600
     19 C3'         2.5690   -0.0420    2.2820 c3        1 TPE      0.090100
     20 O3'         3.7370   -0.0500    3.1190 os        1 TPE     -0.426900
     21 CR          4.7750   -0.8820    2.7940 c         1 TPE      0.654100
     22 OR          5.7010   -0.7930    3.6140 o         1 TPE     -0.576000
     23 CHR         4.7400   -1.7650    1.6020 c3        1 TPE     -0.218100
     24 C2'         1.4690   -0.8820    2.9360 c3        1 TPE     -0.146400
     25 C1'         0.7270    0.1230    3.8470 c3        1 TPE      0.302500
     26 N1         -0.7240   -0.0620    3.9150 n         1 TPE     -0.360000
     27 C2         -1.3520    0.0110    5.1810 c         1 TPE      0.801500
     28 O2         -0.7100    0.0530    6.2590 o         1 TPE     -0.686500
     29 N3         -2.7560   -0.0080    5.2350 n         1 TPE     -0.596500
     30 C4         -3.5710   -0.0700    4.0870 c         1 TPE      0.720700
     31 O4         -4.8070   -0.0730    4.2620 o         1 TPE     -0.673500
     32 C5         -2.8690   -0.1260    2.8060 cc        1 TPE     -0.297400
     33 C5M        -3.6670   -0.2200    1.5670 c3        1 TPE     -0.024900
     34 C6         -1.5020   -0.0990    2.7680 cd        1 TPE      0.071600
     35 H2B        -3.0490   -0.8930   -3.3330 ha        1 TPE      0.154000
     36 H3B        -3.6300   -0.4380   -5.7160 ha        1 TPE      0.102000
     37 H4B        -2.2190    1.1030   -7.0770 ha        1 TPE      0.095000
     38 H5B        -0.2170    2.1800   -6.0520 ha        1 TPE      0.102000
     39 H6B         0.3840    1.7410   -3.6800 ha        1 TPE      0.154000
     40 H5'2        0.6890    0.8370    0.6280 h1        1 TPE      0.048200
     41 H5'1        0.6200    2.5990    1.1550 h1        1 TPE      0.048200
     42 H4'         2.7800    2.1510    2.5580 h1        1 TPE      0.087700
     43 H3'         2.8130   -0.3360    1.2170 h1        1 TPE      0.163700
     44 HHR3        5.6320   -2.4340    1.6050 hc        1 TPE      0.094367
     45 HHR2        3.8090   -2.3820    1.6010 hc        1 TPE      0.094367
     46 HHR1        4.7430   -1.1360    0.6620 hc        1 TPE      0.094367
     47 H2'2        0.8060   -1.3000    2.1300 hc        1 TPE      0.091700
     48 H2'1        1.8870   -1.7160    3.5460 hc        1 TPE      0.091700
     49 H1'         1.1200    0.0750    4.9080 h2        1 TPE      0.096700
     50 H3         -3.1730    0.0400    6.1360 hn        1 TPE      0.327500
     51 H5M3       -4.4270   -1.0360    1.6590 hc        1 TPE      0.049033
     52 H5M2       -4.2110    0.7400    1.3830 hc        1 TPE      0.049033
     53 H5M1       -3.0000   -0.4340    0.6910 hc        1 TPE      0.049033
     54 H6         -0.9460   -0.1370    1.7920 h4        1 TPE      0.274000
@<TRIPOS>BOND
     1    1    2 ar  
     2    1    6 ar  
     3    1   14 1   
     4    2    3 ar  
     5    2   35 1   
     6    3    4 ar  
     7    3   36 1   
     8    4    5 ar  
     9    4   37 1   
    10    5    6 ar  
    11    5   38 1   
    12    6   39 1   
    13    7    8 1   
    14    7    9 1   
    15    7   10 1   
    16    7   15 1   
    17   10   11 1   
    18   11   12 1   
    19   11   13 1   
    20   11   14 1   
    21   15   16 1   
    22   16   17 1   
    23   16   40 1   
    24   16   41 1   
    25   17   18 1   
    26   17   19 1   
    27   17   42 1   
    28   18   25 1   
    29   19   20 1   
    30   19   24 1   
    31   19   43 1   
    32   20   21 1   
    33   21   22 2   
    34   21   23 1   
    35   23   44 1   
    36   23   45 1   
    37   23   46 1   
    38   24   25 1   
    39   24   47 1   
    40   24   48 1   
    41   25   26 1   
    42   25   49 1   
    43   26   27 1   
    44   26   34 1   
    45   27   28 2   
    46   27   29 1   
    47   29   30 1   
    48   29   50 1   
    49   30   31 2   
    50   30   32 1   
    51   32   33 1   
    52   32   34 2   
    53   33   51 1   
    54   33   52 1   
    55   33   53 1   
    56   34   54 1   
@<TRIPOS>SUBSTRUCTURE
     1 TPE         1 TEMP              0 ****  ****    0 ROOT
