@<TRIPOS>MOLECULE
TPF
   34    36     1     0     0
SMALL
bcc


@<TRIPOS>ATOM
      1 O          -0.0430   -0.0850    0.0270 oh        1 TPF     -0.558800
      2 C1          1.3720   -0.0700   -0.0400 c3        1 TPF      0.180100
      3 C2          2.0020   -0.1410    1.3850 c3        1 TPF      0.041300
      4 C5          1.7560   -1.3500   -0.8330 c3        1 TPF      0.041300
      5 C8          1.8770    1.1880   -0.7040 ca        1 TPF     -0.174300
      6 N1          1.4670   -1.1680    2.2450 na        1 TPF     -0.060400
      7 C3          2.0410   -2.4410    2.4740 cc        1 TPF      0.401400
      8 N3          0.2950   -1.0770    2.9050 nc        1 TPF     -0.504800
      9 N2          1.2410   -3.1480    3.2950 nd        1 TPF     -0.677500
     10 C4          0.1650   -2.2720    3.5420 cd        1 TPF      0.503900
     11 N4          1.4520   -1.3200   -2.2430 na        1 TPF     -0.060400
     12 C6          2.3780   -1.0290   -3.2730 cc        1 TPF      0.401400
     13 N6          0.2320   -1.5200   -2.7760 nc        1 TPF     -0.504800
     14 N5          1.7450   -1.0600   -4.4620 nd        1 TPF     -0.677500
     15 C7          0.4130   -1.3660   -4.1160 cd        1 TPF      0.503900
     16 C9          0.9610    2.1510   -1.1460 ca        1 TPF     -0.058000
     17 C13         3.2520    1.4320   -0.9160 ca        1 TPF      0.145900
     18 C10         1.3750    3.3320   -1.7490 ca        1 TPF     -0.173000
     19 C11         2.7500    3.5730   -1.9310 ca        1 TPF      0.165900
     20 F1          3.1660    4.7230   -2.5090 f         1 TPF     -0.125900
     21 C12         3.6950    2.6210   -1.5190 ca        1 TPF     -0.204000
     22 F2          4.1880    0.5180   -0.5500 f         1 TPF     -0.147900
     23 HO         -0.3120    0.5150    0.7370 ho        1 TPF      0.417000
     24 HC21        3.1080   -0.3250    1.2850 h1        1 TPF      0.084700
     25 HC22        1.8450    0.8620    1.8770 h1        1 TPF      0.084700
     26 HC51        1.2050   -2.2150   -0.3610 h1        1 TPF      0.084700
     27 HC52        2.8680   -1.5010   -0.7330 h1        1 TPF      0.084700
     28 HC3         2.9980   -2.7570    2.0490 h5        1 TPF      0.070100
     29 HC4        -0.6820   -2.5390    4.1840 h5        1 TPF      0.074100
     30 HC6         3.4380   -0.8280   -3.0900 h5        1 TPF      0.070100
     31 HC7        -0.3820   -1.4720   -4.8600 h5        1 TPF      0.074100
     32 HC9        -0.1200    1.9590   -1.0300 ha        1 TPF      0.166000
     33 H10         0.6410    4.0770   -2.0920 ha        1 TPF      0.162000
     34 H12         4.7700    2.7980   -1.6700 ha        1 TPF      0.170000
@<TRIPOS>BOND
     1    1    2 1   
     2    1   23 1   
     3    2    3 1   
     4    2    4 1   
     5    2    5 1   
     6    3    6 1   
     7    3   24 1   
     8    3   25 1   
     9    4   11 1   
    10    4   26 1   
    11    4   27 1   
    12    5   16 ar  
    13    5   17 ar  
    14    6    7 1   
    15    6    8 1   
    16    7    9 2   
    17    7   28 1   
    18    8   10 2   
    19    9   10 1   
    20   10   29 1   
    21   11   12 1   
    22   11   13 1   
    23   12   14 2   
    24   12   30 1   
    25   13   15 2   
    26   14   15 1   
    27   15   31 1   
    28   16   18 ar  
    29   16   32 1   
    30   17   21 ar  
    31   17   22 1   
    32   18   19 ar  
    33   18   33 1   
    34   19   20 1   
    35   19   21 ar  
    36   21   34 1   
@<TRIPOS>SUBSTRUCTURE
     1 TPF         1 TEMP              0 ****  ****    0 ROOT
