@<TRIPOS>MOLECULE
TPF
   34    36     1     0     0
SMALL
bcc


@<TRIPOS>ATOM
      1 O          -0.3650    1.6000    0.9650 oh        1 TPF     -0.558800
      2 C1          0.1520    0.3390    0.5790 c3        1 TPF      0.180100
      3 C2          1.3780   -0.0580    1.4580 c3        1 TPF      0.041300
      4 C5         -1.0040   -0.6700    0.8280 c3        1 TPF      0.041300
      5 C8          0.6030    0.3480   -0.8620 ca        1 TPF     -0.174300
      6 N1          1.1890    0.0870    2.8800 na        1 TPF     -0.060400
      7 C3          0.8430   -0.9480    3.7810 cc        1 TPF      0.401400
      8 N3          1.2530    1.2590    3.5430 nc        1 TPF     -0.504800
      9 N2          0.7060   -0.4320    5.0180 nd        1 TPF     -0.677500
     10 C4          0.9670    0.9410    4.8350 cd        1 TPF      0.503900
     11 N4         -2.1140   -0.5780   -0.0880 na        1 TPF     -0.060400
     12 C6         -2.3190   -1.4160   -1.2110 cc        1 TPF      0.401400
     13 N6         -3.0900    0.3470   -0.0310 nc        1 TPF     -0.504800
     14 N5         -3.4350   -1.0280   -1.8570 nd        1 TPF     -0.677500
     15 C7         -3.8890    0.0700   -1.0990 cd        1 TPF      0.503900
     16 C9          0.4840    1.5210   -1.6170 ca        1 TPF     -0.058000
     17 C13         1.1330   -0.7980   -1.4960 ca        1 TPF      0.145900
     18 C10         0.8980    1.5860   -2.9410 ca        1 TPF     -0.173000
     19 C11         1.4480    0.4440   -3.5520 ca        1 TPF      0.165900
     20 F1          1.8620    0.4960   -4.8370 f         1 TPF     -0.125900
     21 C12         1.5640   -0.7560   -2.8330 ca        1 TPF     -0.204000
     22 F2          1.2340   -1.9790   -0.8330 f         1 TPF     -0.147900
     23 HO          0.3840    2.1980    1.1000 ho        1 TPF      0.417000
     24 HC21        1.6350   -1.1370    1.2580 h1        1 TPF      0.084700
     25 HC22        2.2480    0.5860    1.1400 h1        1 TPF      0.084700
     26 HC51       -0.5820   -1.7110    0.7420 h1        1 TPF      0.084700
     27 HC52       -1.3830   -0.4920    1.8770 h1        1 TPF      0.084700
     28 HC3         0.7330   -1.9950    3.4850 h5        1 TPF      0.070100
     29 HC4         0.9380    1.6640    5.6560 h5        1 TPF      0.074100
     30 HC6        -1.6550   -2.2460   -1.4710 h5        1 TPF      0.070100
     31 HC7        -4.7950    0.6300   -1.3500 h5        1 TPF      0.074100
     32 HC9         0.0310    2.4150   -1.1520 ha        1 TPF      0.166000
     33 H10         0.7950    2.5170   -3.5180 ha        1 TPF      0.162000
     34 H12         1.9800   -1.6550   -3.3090 ha        1 TPF      0.170000
@<TRIPOS>BOND
     1    1    2 1   
     2    1   23 1   
     3    2    3 1   
     4    2    4 1   
     5    2    5 1   
     6    3    6 1   
     7    3   24 1   
     8    3   25 1   
     9    4   11 1   
    10    4   26 1   
    11    4   27 1   
    12    5   16 ar  
    13    5   17 ar  
    14    6    7 1   
    15    6    8 1   
    16    7    9 2   
    17    7   28 1   
    18    8   10 2   
    19    9   10 1   
    20   10   29 1   
    21   11   12 1   
    22   11   13 1   
    23   12   14 2   
    24   12   30 1   
    25   13   15 2   
    26   14   15 1   
    27   15   31 1   
    28   16   18 ar  
    29   16   32 1   
    30   17   21 ar  
    31   17   22 1   
    32   18   19 ar  
    33   18   33 1   
    34   19   20 1   
    35   19   21 ar  
    36   21   34 1   
@<TRIPOS>SUBSTRUCTURE
     1 TPF         1 TEMP              0 ****  ****    0 ROOT
