@<TRIPOS>MOLECULE
TPF
   34    36     1     0     0
SMALL
bcc


@<TRIPOS>ATOM
      1 O          -0.0460   -0.0870    0.0200 oh        1 TPF     -0.558800
      2 C1          1.3700   -0.0700   -0.0410 c3        1 TPF      0.180100
      3 C2          1.9930   -0.1380    1.3870 c3        1 TPF      0.041300
      4 C5          1.7590   -1.3510   -0.8310 c3        1 TPF      0.041300
      5 C8          1.8760    1.1880   -0.7050 ca        1 TPF     -0.174300
      6 N1          1.4560   -1.1650    2.2450 na        1 TPF     -0.060400
      7 C3          2.0320   -2.4360    2.4790 cc        1 TPF      0.401400
      8 N3          0.2810   -1.0750    2.9000 nc        1 TPF     -0.504800
      9 N2          1.2290   -3.1440    3.2970 nd        1 TPF     -0.677500
     10 C4          0.1500   -2.2700    3.5380 cd        1 TPF      0.503900
     11 N4          1.4620   -1.3230   -2.2420 na        1 TPF     -0.060400
     12 C6          2.3930   -1.0320   -3.2690 cc        1 TPF      0.401400
     13 N6          0.2440   -1.5240   -2.7800 nc        1 TPF     -0.504800
     14 N5          1.7650   -1.0650   -4.4600 nd        1 TPF     -0.677500
     15 C7          0.4320   -1.3720   -4.1200 cd        1 TPF      0.503900
     16 C9          0.9610    2.1500   -1.1520 ca        1 TPF     -0.058000
     17 C13         3.2520    1.4330   -0.9110 ca        1 TPF      0.145900
     18 C10         1.3760    3.3300   -1.7540 ca        1 TPF     -0.173000
     19 C11         2.7510    3.5730   -1.9310 ca        1 TPF      0.165900
     20 F1          3.1680    4.7220   -2.5080 f         1 TPF     -0.125900
     21 C12         3.6950    2.6230   -1.5130 ca        1 TPF     -0.204000
     22 F2          4.1870    0.5210   -0.5400 f         1 TPF     -0.147900
     23 HO         -0.3190    0.5140    0.7270 ho        1 TPF      0.417000
     24 HC21        3.1010   -0.3210    1.2910 h1        1 TPF      0.084700
     25 HC22        1.8330    0.8660    1.8770 h1        1 TPF      0.084700
     26 HC51        1.2070   -2.2150   -0.3600 h1        1 TPF      0.084700
     27 HC52        2.8710   -1.5000   -0.7250 h1        1 TPF      0.084700
     28 HC3         2.9920   -2.7520    2.0590 h5        1 TPF      0.070100
     29 HC4        -0.6980   -2.5380    4.1760 h5        1 TPF      0.074100
     30 HC6         3.4510   -0.8300   -3.0800 h5        1 TPF      0.070100
     31 HC7        -0.3600   -1.4790   -4.8680 h5        1 TPF      0.074100
     32 HC9        -0.1210    1.9560   -1.0400 ha        1 TPF      0.166000
     33 H10         0.6420    4.0730   -2.1010 ha        1 TPF      0.162000
     34 H12         4.7710    2.8010   -1.6600 ha        1 TPF      0.170000
@<TRIPOS>BOND
     1    1    2 1   
     2    1   23 1   
     3    2    3 1   
     4    2    4 1   
     5    2    5 1   
     6    3    6 1   
     7    3   24 1   
     8    3   25 1   
     9    4   11 1   
    10    4   26 1   
    11    4   27 1   
    12    5   16 ar  
    13    5   17 ar  
    14    6    7 1   
    15    6    8 1   
    16    7    9 2   
    17    7   28 1   
    18    8   10 2   
    19    9   10 1   
    20   10   29 1   
    21   11   12 1   
    22   11   13 1   
    23   12   14 2   
    24   12   30 1   
    25   13   15 2   
    26   14   15 1   
    27   15   31 1   
    28   16   18 ar  
    29   16   32 1   
    30   17   21 ar  
    31   17   22 1   
    32   18   19 ar  
    33   18   33 1   
    34   19   20 1   
    35   19   21 ar  
    36   21   34 1   
@<TRIPOS>SUBSTRUCTURE
     1 TPF         1 TEMP              0 ****  ****    0 ROOT
