@<TRIPOS>MOLECULE
TPH
   25    25     1     0     0
SMALL
bcc


@<TRIPOS>ATOM
      1 N           1.0560    1.6940    0.5120 n3        1 TPH     -0.889800
      2 CA          1.3060    0.2950    0.2370 c3        1 TPH      0.147500
      3 C           2.7670    0.0780   -0.2470 c3        1 TPH      0.334900
      4 O1          3.6070    0.1740    0.8790 oh        1 TPH     -0.624300
      5 O2          2.9980   -1.2180   -0.7470 oh        1 TPH     -0.624300
      6 CB          0.3620   -0.3460   -0.8000 c3        1 TPH     -0.080100
      7 CG         -1.0620   -0.2330   -0.3870 ca        1 TPH     -0.085300
      8 CD1        -1.8110    0.8990   -0.7310 ca        1 TPH     -0.130500
      9 CD2        -1.6720   -1.2600    0.3430 ca        1 TPH     -0.130500
     10 CE1        -3.1470    1.0020   -0.3480 ca        1 TPH     -0.125000
     11 CE2        -3.0080   -1.1550    0.7250 ca        1 TPH     -0.125000
     12 CZ         -3.7480   -0.0240    0.3810 ca        1 TPH     -0.129000
     13 H           1.1080    2.2340   -0.3300 hn        1 TPH      0.351300
     14 H2          0.1430    1.8030    0.9100 hn        1 TPH      0.351300
     15 HA          1.1910   -0.2600    1.2160 h1        1 TPH      0.079700
     16 HC          3.0530    0.7780   -1.0800 h2        1 TPH      0.071700
     17 HO1         4.5160    0.2090    0.5590 ho        1 TPH      0.413500
     18 HO2         2.8260   -1.8480   -0.0360 ho        1 TPH      0.413500
     19 HB2         0.5150    0.1460   -1.7970 hc        1 TPH      0.061200
     20 HB3         0.6430   -1.4260   -0.9190 hc        1 TPH      0.061200
     21 HD1        -1.3430    1.7070   -1.3130 ha        1 TPH      0.130000
     22 HD2        -1.0920   -2.1550    0.6140 ha        1 TPH      0.130000
     23 HE1        -3.7290    1.8950   -0.6240 ha        1 TPH      0.133000
     24 HE2        -3.4790   -1.9670    1.2980 ha        1 TPH      0.133000
     25 HZ         -4.8020    0.0580    0.6820 ha        1 TPH      0.133000
@<TRIPOS>BOND
     1    1    2 1   
     2    1   13 1   
     3    1   14 1   
     4    2    3 1   
     5    2    6 1   
     6    2   15 1   
     7    3    4 1   
     8    3    5 1   
     9    3   16 1   
    10    4   17 1   
    11    5   18 1   
    12    6    7 1   
    13    6   19 1   
    14    6   20 1   
    15    7    8 ar  
    16    7    9 ar  
    17    8   10 ar  
    18    8   21 1   
    19    9   11 ar  
    20    9   22 1   
    21   10   12 ar  
    22   10   23 1   
    23   11   12 ar  
    24   11   24 1   
    25   12   25 1   
@<TRIPOS>SUBSTRUCTURE
     1 TPH         1 TEMP              0 ****  ****    0 ROOT
