@<TRIPOS>MOLECULE
TPI
   45    46     1     0     0
SMALL
bcc


@<TRIPOS>ATOM
      1 P           0.0000    0.0000    0.0000 p5        1 TPI      0.562700
      2 O1          1.6090    0.0000    0.0000 o         1 TPI     -0.451167
      3 O2         -0.5370    0.0000    1.5180 o         1 TPI     -0.451167
      4 O3         -0.4950   -1.2080   -0.6980 o         1 TPI     -0.451167
      5 C1         -0.6080    1.4880   -0.8570 c3        1 TPI      0.394700
      6 F1         -2.0040    1.5370   -0.7770 f         1 TPI     -0.221800
      7 F2         -0.2200    1.4430   -2.2020 f         1 TPI     -0.221800
      8 C2          1.1590    3.2170   -0.6610 ca        1 TPI     -0.060000
      9 C3         -0.0240    2.7170   -0.2070 ca        1 TPI     -0.076300
     10 C4         -0.7020    3.3230    0.8470 ca        1 TPI     -0.038000
     11 C5         -0.2020    4.4320    1.4550 ca        1 TPI     -0.098000
     12 C6          1.5630    6.1180    1.6240 ca        1 TPI      0.033000
     13 C7          2.7630    6.6280    1.1580 ca        1 TPI     -0.232600
     14 C8          3.4380    6.0080    0.0930 ca        1 TPI     -0.147000
     15 C9          2.9270    4.9030   -0.5040 ca        1 TPI     -0.037000
     16 C10         1.7080    4.3610   -0.0590 ca        1 TPI     -0.013000
     17 C11         1.0170    4.9780    1.0150 ca        1 TPI     -0.062000
     18 C12         3.3410    7.8320    1.7910 c         1 TPI      0.338700
     19 O4          2.7610    8.3720    2.7130 o         1 TPI     -0.528100
     20 N1          4.5120    8.3310    1.3460 ny        1 TPI      0.047200
     21 C13         5.0850    9.5240    1.9730 c3        1 TPI     -0.071500
     22 C14         4.5800   10.7560    1.2660 c         1 TPI      0.082100
     23 N2          4.2680   10.6990   -0.0440 nz        1 TPI      0.223600
     24 O5          4.4550   11.7960    1.8750 o         1 TPI     -0.554100
     25 C15         6.6100    9.4690    1.8750 c3        1 TPI     -0.020400
     26 C16         7.1230    8.2200    2.5930 c3        1 TPI     -0.148400
     27 C17         8.6260    8.1650    2.4960 c         1 TPI      0.977600
     28 O6          9.2980    7.1480    3.0580 o         1 TPI     -0.870800
     29 O7          9.2250    9.0370    1.9120 o         1 TPI     -0.870800
     30 H41        -1.6420    2.9050    1.1860 ha        1 TPI      0.131000
     31 H51        -0.7410    4.8930    2.2750 ha        1 TPI      0.107000
     32 H61         1.1270    6.5060    2.5370 ha        1 TPI      0.125000
     33 H81         4.3760    6.4210   -0.2580 ha        1 TPI      0.080000
     34 H91         3.4600    4.4360   -1.3240 ha        1 TPI      0.116000
     35 HN11        4.3880    8.5420    0.3760 hn        1 TPI      0.242800
     36 H131        4.7910    9.5610    3.0150 hx        1 TPI      0.122700
     37 HN21        4.9480   10.1460   -0.5260 hn        1 TPI      0.183133
     38 HN22        3.3630   10.2860   -0.1540 hn        1 TPI      0.183133
     39 H151        6.9040    9.4330    0.8330 hc        1 TPI      0.049200
     40 H152        7.0340   10.3510    2.3390 hc        1 TPI      0.049200
     41 H161        6.6990    7.3370    2.1290 hc        1 TPI      0.010200
     42 H162        6.8290    8.2570    3.6350 hc        1 TPI      0.010200
     43 H12         5.1910    7.6010    1.4340 hn        1 TPI      0.242800
     44 H23         4.2600   11.6250   -0.4250 hn        1 TPI      0.183133
     45 H21         1.6220    2.7940   -1.5440 ha        1 TPI      0.132000
@<TRIPOS>BOND
     1    1    2 1   
     2    1    3 1   
     3    1    4 1   
     4    1    5 1   
     5    5    6 1   
     6    5    7 1   
     7    5    9 1   
     8    8    9 ar  
     9    8   16 ar  
    10    8   45 1   
    11    9   10 ar  
    12   10   11 ar  
    13   10   30 1   
    14   11   17 ar  
    15   11   31 1   
    16   12   13 ar  
    17   12   17 ar  
    18   12   32 1   
    19   13   14 ar  
    20   13   18 1   
    21   14   15 ar  
    22   14   33 1   
    23   15   16 ar  
    24   15   34 1   
    25   16   17 ar  
    26   18   19 2   
    27   18   20 1   
    28   20   21 1   
    29   20   35 1   
    30   20   43 1   
    31   21   22 1   
    32   21   25 1   
    33   21   36 1   
    34   22   23 1   
    35   22   24 2   
    36   23   37 1   
    37   23   38 1   
    38   23   44 1   
    39   25   26 1   
    40   25   39 1   
    41   25   40 1   
    42   26   27 1   
    43   26   41 1   
    44   26   42 1   
    45   27   28 1   
    46   27   29 1   
@<TRIPOS>SUBSTRUCTURE
     1 TPI         1 TEMP              0 ****  ****    0 ROOT
