@<TRIPOS>MOLECULE
TPI
   43    43     1     0     0
SMALL
bcc


@<TRIPOS>ATOM
      1 P          -0.4770   -0.6470   -8.1840 p3        1 TPI      2.397000
      2 O1         -1.7370   -1.4140   -8.1010 o         1 TPI     -1.136333
      3 O2         -0.5400    0.8010   -8.4680 o         1 TPI     -1.136333
      4 O3          0.7950   -1.3790   -8.3470 o         1 TPI     -1.136333
      5 C1          0.1200   -0.1140   -4.9950 c2        1 TPI     -0.010000
      6 F1          0.8340    0.2790   -6.0780 f         1 TPI     -0.132000
      7 F2         -0.9090   -0.7800   -5.5720 f         1 TPI     -0.132000
      8 C2         -0.4640   -0.3700   -2.6180 ca        1 TPI     -0.299000
      9 C3          0.3840    0.1090   -3.6720 ca        1 TPI      0.024000
     10 C4          1.5630    0.8580   -3.2830 ca        1 TPI     -0.174000
     11 C5          1.8580    1.0830   -1.9810 ca        1 TPI     -0.085000
     12 C6          1.3270    0.8060    0.4180 ca        1 TPI      0.007000
     13 C7          0.5150    0.3150    1.4520 ca        1 TPI     -0.294000
     14 C8         -0.6660   -0.3870    1.0940 ca        1 TPI     -0.062000
     15 C9         -0.9920   -0.6060   -0.2150 ca        1 TPI     -0.216000
     16 C10        -0.1630   -0.1400   -1.2930 ca        1 TPI      0.078000
     17 C11         1.0230    0.5950   -0.9200 ca        1 TPI     -0.195000
     18 C12         0.9540    0.5530    2.8300 c2        1 TPI      0.362000
     19 O4          1.9570    1.2700    3.0990 o         1 TPI     -0.470000
     20 N1          0.3020   -0.0650    3.8910 n         1 TPI     -0.391000
     21 C13         0.6850    0.1490    5.2600 c3        1 TPI      0.034000
     22 C14         2.0980   -0.3580    5.6400 c2        1 TPI      0.286000
     23 N2          2.8880   -1.0310    4.7310 n         1 TPI     -0.399000
     24 O5          2.5360   -0.1820    6.8010 o         1 TPI     -0.427000
     25 C15        -0.3070   -0.4540    6.2720 c3        1 TPI     -0.147000
     26 C16        -1.6310    0.2690    6.2970 c3        1 TPI     -0.221000
     27 C17        -2.5500   -0.2940    7.3950 c2        1 TPI      0.328000
     28 O6         -2.6980   -1.5480    7.4860 o         1 TPI     -0.595500
     29 O7         -3.1400    0.5290    8.1550 o         1 TPI     -0.595500
     30 H41         2.2070    1.2320   -4.0930 ha        1 TPI      0.114000
     31 H51         2.7570    1.6530   -1.7000 ha        1 TPI      0.091000
     32 H61         2.2360    1.3710    0.6880 ha        1 TPI      0.116000
     33 H81        -1.3440   -0.7590    1.8770 ha        1 TPI      0.096000
     34 H91        -1.9100   -1.1490   -0.4790 ha        1 TPI      0.107000
     35 HN11       -0.4960   -0.6290    3.7290 hn        1 TPI      0.233000
     36 H131        0.7530    1.2690    5.4380 h1        1 TPI      0.114000
     37 HN21        3.8390   -1.1640    4.9820 hn        1 TPI      0.206000
     38 HN22        2.7150   -0.9100    3.7610 hn        1 TPI      0.206000
     39 H151       -0.4830   -1.5400    6.0570 hc        1 TPI      0.102000
     40 H152        0.1670   -0.3870    7.2880 hc        1 TPI      0.102000
     41 H161       -1.4740    1.3620    6.4780 hc        1 TPI      0.066000
     42 H162       -2.1590    0.1550    5.3170 hc        1 TPI      0.066000
     43 H21        -1.3640   -0.9290   -2.9010 ha        1 TPI      0.118000
@<TRIPOS>BOND
     1    1    2 1   
     2    1    3 1   
     3    1    4 1   
     4    5    6 1   
     5    5    7 1   
     6    5    9 1   
     7    8    9 1   
     8    8   16 1   
     9    8   43 1   
    10    9   10 1   
    11   10   11 1   
    12   10   30 1   
    13   11   17 1   
    14   11   31 1   
    15   12   13 1   
    16   12   17 1   
    17   12   32 1   
    18   13   14 1   
    19   13   18 1   
    20   14   15 1   
    21   14   33 1   
    22   15   16 1   
    23   15   34 1   
    24   16   17 1   
    25   18   19 1   
    26   18   20 1   
    27   20   21 1   
    28   20   35 1   
    29   21   22 1   
    30   21   25 1   
    31   21   36 1   
    32   22   23 1   
    33   22   24 1   
    34   23   37 1   
    35   23   38 1   
    36   25   26 1   
    37   25   39 1   
    38   25   40 1   
    39   26   27 1   
    40   26   41 1   
    41   26   42 1   
    42   27   28 1   
    43   27   29 1   
@<TRIPOS>SUBSTRUCTURE
     1 TPI         1 TEMP              0 ****  ****    0 ROOT
