@<TRIPOS>MOLECULE
TPJ
   28    28     1     0     0
SMALL
bcc


@<TRIPOS>ATOM
      1 C          -2.5810   -0.3770   -0.0840 c         1 TPJ      0.933600
      2 O          -2.9590   -0.1050   -1.2550 o         1 TPJ     -0.839300
      3 CA         -1.3810    0.4190    0.5200 c3        1 TPJ      0.049500
      4 CB         -0.9650    1.6360   -0.3220 c3        1 TPJ     -0.082400
      5 CG          0.5600    1.6720   -0.2840 c3        1 TPJ     -0.078400
      6 CD          0.9900    0.4460    0.5550 c3        1 TPJ      0.181500
      7 C16         2.2250   -0.2940   -0.0160 c3        1 TPJ     -0.043000
      8 C17         3.3880    0.6870   -0.0910 c3        1 TPJ     -0.081433
      9 C18         2.6060   -1.4260    0.9310 c3        1 TPJ     -0.081433
     10 C19         1.9610   -0.8770   -1.3940 c3        1 TPJ     -0.081433
     11 N          -0.1870   -0.4190    0.6770 n3        1 TPJ     -0.789200
     12 HA         -1.7350    0.7900    1.5290 h1        1 TPJ     -0.000300
     13 HB2        -1.3470    1.5060   -1.3670 hc        1 TPJ      0.051700
     14 HB3        -1.4040    2.5730    0.0960 hc        1 TPJ      0.051700
     15 HG2         0.9790    1.6230   -1.3170 hc        1 TPJ      0.023700
     16 HG3         0.9390    2.6080    0.1940 hc        1 TPJ      0.023700
     17 HD2         1.3170    0.8310    1.5720 h1        1 TPJ     -0.011300
     18 H171        3.6240    1.0900    0.9230 hc        1 TPJ      0.028811
     19 H172        4.2970    0.1750   -0.4900 hc        1 TPJ      0.028811
     20 H173        3.1390    1.5410   -0.7640 hc        1 TPJ      0.028811
     21 H181        1.8280   -2.2270    0.9130 hc        1 TPJ      0.028811
     22 H182        3.5810   -1.8750    0.6230 hc        1 TPJ      0.028811
     23 H183        2.7060   -1.0450    1.9750 hc        1 TPJ      0.028811
     24 H191        1.7870   -0.0670   -2.1420 hc        1 TPJ      0.028811
     25 H192        2.8420   -1.4780   -1.7270 hc        1 TPJ      0.028811
     26 H193        1.0600   -1.5360   -1.3740 hc        1 TPJ      0.028811
     27 OXT        -3.1330   -1.2190    0.6770 o         1 TPJ     -0.839300
     28 H          -0.2000   -0.9010    1.5520 hn        1 TPJ      0.352800
@<TRIPOS>BOND
     1    1    2 1   
     2    1    3 1   
     3    1   27 1   
     4    3    4 1   
     5    3   11 1   
     6    3   12 1   
     7    4    5 1   
     8    4   13 1   
     9    4   14 1   
    10    5    6 1   
    11    5   15 1   
    12    5   16 1   
    13    6    7 1   
    14    6   11 1   
    15    6   17 1   
    16    7    8 1   
    17    7    9 1   
    18    7   10 1   
    19    8   18 1   
    20    8   19 1   
    21    8   20 1   
    22    9   21 1   
    23    9   22 1   
    24    9   23 1   
    25   10   24 1   
    26   10   25 1   
    27   10   26 1   
    28   11   28 1   
@<TRIPOS>SUBSTRUCTURE
     1 TPJ         1 TEMP              0 ****  ****    0 ROOT
