@<TRIPOS>MOLECULE
TPK
   22    22     1     0     0
SMALL
bcc


@<TRIPOS>ATOM
      1 C           0.9430   -0.4650   -0.2170 c3        1 TPK      0.155100
      2 O           0.6500   -0.7140   -1.5770 oh        1 TPK     -0.596800
      3 C3          2.0940    0.5430   -0.1150 c3        1 TPK      0.096400
      4 O4          2.4870    0.5960    1.2460 oh        1 TPK     -0.605800
      5 CA         -0.2810   -0.0080    0.6030 c3        1 TPK      0.128500
      6 CB         -1.3690   -1.1060    0.6060 c3        1 TPK     -0.093400
      7 CG         -2.6780   -0.4050    0.2690 c3        1 TPK     -0.099400
      8 CD         -2.2810    1.0010   -0.2060 c3        1 TPK      0.150800
      9 N          -0.8720    1.2360    0.0890 n3        1 TPK     -0.818200
     10 H1          1.2820   -1.4620    0.1850 h1        1 TPK      0.080700
     11 HO          0.2530    0.0860   -1.9420 ho        1 TPK      0.414000
     12 H3          2.9480    0.1940   -0.7550 h1        1 TPK      0.034700
     13 H3A         1.7690    1.5590   -0.4640 h1        1 TPK      0.034700
     14 HO4         3.2490    1.1850    1.2870 ho        1 TPK      0.402000
     15 HA          0.1020    0.1440    1.6550 h1        1 TPK      0.061700
     16 HB2        -1.1290   -1.8830   -0.1630 hc        1 TPK      0.056700
     17 HB3        -1.4150   -1.6040    1.6030 hc        1 TPK      0.056700
     18 HG2        -3.2370   -0.9490   -0.5300 hc        1 TPK      0.047700
     19 HG3        -3.3400   -0.3430    1.1670 hc        1 TPK      0.047700
     20 HD2        -2.4030    1.0770   -1.3220 h1        1 TPK      0.043200
     21 HD3        -2.9390    1.7810    0.2630 h1        1 TPK      0.043200
     22 H          -0.7630    1.9690    0.7630 hn        1 TPK      0.358800
@<TRIPOS>BOND
     1    1    2 1   
     2    1    3 1   
     3    1    5 1   
     4    1   10 1   
     5    2   11 1   
     6    3    4 1   
     7    3   12 1   
     8    3   13 1   
     9    4   14 1   
    10    5    6 1   
    11    5    9 1   
    12    5   15 1   
    13    6    7 1   
    14    6   16 1   
    15    6   17 1   
    16    7    8 1   
    17    7   18 1   
    18    7   19 1   
    19    8    9 1   
    20    8   20 1   
    21    8   21 1   
    22    9   22 1   
@<TRIPOS>SUBSTRUCTURE
     1 TPK         1 TEMP              0 ****  ****    0 ROOT
