@<TRIPOS>MOLECULE
TPL
   28    23     1     0     0
SMALL
bcc


@<TRIPOS>ATOM
      1 N           1.1910   -2.0310    0.6920 n3        1 TPL     -0.332000
      2 CA         -0.1350   -2.1520    0.1900 c3        1 TPL     -0.033000
      3 CB1        -0.3750   -1.0890   -0.8570 c3        1 TPL     -0.080000
      4 CG         -0.5170    0.2590   -0.1840 c2        1 TPL     -0.157000
      5 CD1        -1.6550    0.4000    0.5840 c1        1 TPL     -0.049000
      6 CD2         0.1190    1.4800   -0.2290 c1        1 TPL     -0.077000
      7 CE3         1.2990    1.9050   -0.8640 c1        1 TPL     -0.127000
      8 CE2        -0.6220    2.3690    0.5070 c1        1 TPL     -0.004000
      9 NE1        -1.7210    1.6970    1.0100 n1        1 TPL     -0.220000
     10 CZ3         1.7140    3.2230   -0.7460 c1        1 TPL     -0.127000
     11 CZ2        -0.2000    3.7050    0.6260 c1        1 TPL     -0.127000
     12 CH2         0.9640    4.1240   -0.0010 c1        1 TPL     -0.127000
     13 C          -0.3170   -3.5190   -0.4280 c3        1 TPL     -0.065000
     14 OXT        -0.2250   -4.5050    0.5760 oh        1 TPL     -0.336000
     15 H           1.2040   -2.2640    1.5780 hn        1 TPL      0.146500
     16 H2          1.7470   -2.5870    0.2230 hn        1 TPL      0.146500
     17 HA         -0.7720   -2.0380    0.9230 h1        1 TPL      0.117000
     18 HB1        -1.1950   -1.2960   -1.3490 hc        1 TPL      0.085500
     19 HB2         0.3800   -1.0660   -1.4770 hc        1 TPL      0.085500
     20 HD1        -2.3030   -0.3030    0.7840 DU        1 TPL      0.217000
     21 HE3         1.8260    1.2720   -1.3880 ha        1 TPL      0.128250
     22 HE1        -2.3750    2.0560    1.5340 DU        1 TPL      0.217000
     23 HZ3         2.5330    3.5180   -1.1880 ha        1 TPL      0.128250
     24 HZ2        -0.7270    4.3380    1.1500 ha        1 TPL      0.128250
     25 HH2         1.2570    5.0510    0.0820 ha        1 TPL      0.128250
     26 HC1        -1.1970   -3.5690   -0.8550 h1        1 TPL      0.065000
     27 HC2         0.3800   -3.6690   -1.0990 h1        1 TPL      0.065000
     28 HXT        -0.2770   -5.3110    0.2050 ho        1 TPL      0.203000
@<TRIPOS>BOND
     1    1    2 1   
     2    1   15 1   
     3    1   16 1   
     4    2    3 1   
     5    2   13 1   
     6    2   17 1   
     7    3    4 1   
     8    3   18 1   
     9    3   19 1   
    10    4    5 1   
    11    4    6 1   
    12    5    9 1   
    13    6    8 1   
    14    7   10 1   
    15    7   21 1   
    16   10   23 1   
    17   11   12 1   
    18   11   24 1   
    19   12   25 1   
    20   13   14 1   
    21   13   26 1   
    22   13   27 1   
    23   14   28 1   
@<TRIPOS>SUBSTRUCTURE
     1 TPL         1 TEMP              0 ****  ****    0 ROOT
