@<TRIPOS>MOLECULE
TPL
   28    29     1     0     0
SMALL
bcc


@<TRIPOS>ATOM
      1 N           0.5510    1.1290    2.3900 n3        1 TPL     -0.906800
      2 CA         -0.2850   -0.0430    2.2260 c3        1 TPL      0.121500
      3 CB1         0.3250   -1.1770    1.3790 c3        1 TPL     -0.043200
      4 CG          0.7560   -0.7220    0.0530 cc        1 TPL     -0.148400
      5 CD1         2.0690   -0.6670   -0.4190 cd        1 TPL     -0.107100
      6 CD2        -0.0990   -0.2800   -1.0310 ca        1 TPL     -0.090800
      7 CE3        -1.4780   -0.1230   -1.1820 ca        1 TPL     -0.082000
      8 CE2         0.7750    0.0360   -2.1400 ca        1 TPL     -0.046200
      9 NE1         2.0910   -0.2000   -1.7340 na        1 TPL     -0.192400
     10 CZ3        -1.9740    0.3340   -2.3940 ca        1 TPL     -0.155000
     11 CZ2         0.2590    0.4990   -3.3610 ca        1 TPL     -0.146000
     12 CH2        -1.1160    0.6400   -3.4660 ca        1 TPL     -0.111000
     13 C          -0.6950   -0.6400    3.5890 c3        1 TPL      0.139400
     14 OXT        -1.6070    0.1880    4.2770 oh        1 TPL     -0.601800
     15 H           0.6990    1.5680    1.5010 hn        1 TPL      0.350800
     16 H2          1.4400    0.8760    2.7760 hn        1 TPL      0.350800
     17 HA         -1.2310    0.3040    1.7100 h1        1 TPL      0.074700
     18 HB1         1.1930   -1.6270    1.9310 hc        1 TPL      0.050700
     19 HB2        -0.4520   -1.9810    1.2600 hc        1 TPL      0.050700
     20 HD1         2.9970   -0.9310    0.0920 h4        1 TPL      0.164000
     21 HE3        -2.1540   -0.3610   -0.3480 ha        1 TPL      0.136000
     22 HE1         2.8880   -0.1150   -2.3040 hn        1 TPL      0.299700
     23 HZ3        -3.0580    0.4620   -2.5270 ha        1 TPL      0.131000
     24 HZ2         0.9220    0.7400   -4.2010 ha        1 TPL      0.132000
     25 HH2        -1.5510    1.0000   -4.4110 ha        1 TPL      0.130000
     26 HC1        -1.2520   -1.6020    3.4280 h1        1 TPL      0.041200
     27 HC2         0.2080   -0.8350    4.2270 h1        1 TPL      0.041200
     28 HXT        -1.2120    1.0670    4.3430 ho        1 TPL      0.415000
@<TRIPOS>BOND
     1    1    2 1   
     2    1   15 1   
     3    1   16 1   
     4    2    3 1   
     5    2   13 1   
     6    2   17 1   
     7    3    4 1   
     8    3   18 1   
     9    3   19 1   
    10    4    5 2   
    11    4    6 1   
    12    5    9 1   
    13    5   20 1   
    14    6    7 ar  
    15    6    8 ar  
    16    7   10 ar  
    17    7   21 1   
    18    8    9 1   
    19    8   11 ar  
    20    9   22 1   
    21   10   12 ar  
    22   10   23 1   
    23   11   12 ar  
    24   11   24 1   
    25   12   25 1   
    26   13   14 1   
    27   13   26 1   
    28   13   27 1   
    29   14   28 1   
@<TRIPOS>SUBSTRUCTURE
     1 TPL         1 TEMP              0 ****  ****    0 ROOT
