@<TRIPOS>MOLECULE
TPM
   33    30     1     0     0
SMALL
bcc


@<TRIPOS>ATOM
      1 C1         -2.4260    2.7440   -2.8100 c1        1 TPM      0.156000
      2 C2         -1.5020    3.2740   -1.9360 c1        1 TPM     -0.131500
      3 C3         -1.0040    2.4910   -0.8780 c1        1 TPM     -0.131500
      4 C5         -2.3810    0.6360   -1.5930 c1        1 TPM     -0.044000
      5 C6         -2.8730    1.4130   -2.6420 c1        1 TPM     -0.219000
      6 C4         -1.4510    1.1680   -0.7130 c1        1 TPM     -0.236000
      7 C7         -1.0090    0.3690    0.4800 c3        1 TPM      0.012000
      8 N1         -2.9120    3.5160   -3.8680 n3        1 TPM     -0.363000
      9 N2          0.3670   -0.1590    0.2480 n3        1 TPM     -0.269000
     10 C8          0.7820   -1.3090    0.8980 c2        1 TPM      0.249000
     11 N3          0.6050   -1.4420    2.4770 n2        1 TPM     -0.269000
     12 C9          1.7950   -2.1390    0.3120 c3        1 TPM     -0.158000
     13 C10         3.0160   -2.3420    1.2640 c3        1 TPM     -0.169000
     14 C11         2.7620   -2.6940    2.3620 c3        1 TPM     -0.183000
     15 C12         1.7600   -1.7340    3.1930 c2        1 TPM     -0.040000
     16 HC21       -1.1730    4.2490   -2.0600 ha        1 TPM      0.141000
     17 HC31       -0.3500    2.8660   -0.2570 ha        1 TPM      0.141000
     18 HC51       -2.6880   -0.2690   -1.4810 ha        1 TPM      0.133000
     19 HC61       -3.5600    1.0190   -3.2920 ha        1 TPM      0.149000
     20 HC71       -1.6310   -0.3860    0.6160 h1        1 TPM      0.107000
     21 HC72       -1.0100    0.9480    1.2870 h1        1 TPM      0.107000
     22 HN11       -3.6450    3.1970   -4.3950 hn        1 TPM      0.232000
     23 HN12       -2.5040    4.2850   -4.0850 hn        1 TPM      0.232000
     24 HN21        0.8800    0.2030   -0.3860 hn        1 TPM      0.278000
     25 HN31       -0.0920   -1.0260    2.8920 hn        1 TPM      0.263000
     26 HC91        1.4570   -3.0040    0.0050 hc        1 TPM      0.141000
     27 HC92        2.0860   -1.7380   -0.5530 hc        1 TPM      0.141000
     28 H101        3.6620   -3.0530    0.8280 hc        1 TPM      0.121000
     29 H102        3.4550   -1.5620    1.3220 hc        1 TPM      0.121000
     30 H111        2.3660   -3.5620    2.3090 hc        1 TPM      0.123000
     31 H112        3.5920   -2.7670    2.8570 hc        1 TPM      0.123000
     32 H121        2.0690   -0.9370    3.5650 ha        1 TPM      0.123000
     33 H122        1.5590   -2.2570    4.0350 ha        1 TPM      0.123000
@<TRIPOS>BOND
     1    1    5 1   
     2    1    8 1   
     3    2    3 1   
     4    2   16 1   
     5    3   17 1   
     6    4    6 1   
     7    4   18 1   
     8    5   19 1   
     9    6    7 1   
    10    7    9 1   
    11    7   20 1   
    12    7   21 1   
    13    8   22 1   
    14    8   23 1   
    15    9   10 1   
    16    9   24 1   
    17   10   11 1   
    18   10   12 1   
    19   11   25 1   
    20   12   13 1   
    21   12   26 1   
    22   12   27 1   
    23   13   14 1   
    24   13   28 1   
    25   13   29 1   
    26   14   15 1   
    27   14   30 1   
    28   14   31 1   
    29   15   32 1   
    30   15   33 1   
@<TRIPOS>SUBSTRUCTURE
     1 TPM         1 TEMP              0 ****  ****    0 ROOT
