@<TRIPOS>MOLECULE
TPM
   33    34     1     0     0
SMALL
bcc


@<TRIPOS>ATOM
      1 C1          4.2660    0.2850    0.0520 ca        1 TPM      0.237600
      2 C2          3.5740   -0.2000    1.1970 ca        1 TPM     -0.219000
      3 C3          2.2440   -0.5710    1.1070 ca        1 TPM     -0.044000
      4 C5          2.2260   -0.0130   -1.2450 ca        1 TPM     -0.044000
      5 C6          3.5560    0.3630   -1.1780 ca        1 TPM     -0.219000
      6 C4          1.5540   -0.4810   -0.1090 ca        1 TPM     -0.243300
      7 C7          0.1320   -0.9140   -0.2010 c3        1 TPM      0.078600
      8 N1          5.5670    0.7080    0.1430 nh        1 TPM     -0.854200
      9 N2         -0.7790    0.1940    0.0610 nh        1 TPM     -0.354100
     10 C8         -2.1290    0.1100    0.0500 c2        1 TPM      0.417800
     11 N3         -2.7790   -1.0510   -0.2060 nh        1 TPM     -0.338200
     12 C9         -2.9150    1.3760    0.3840 c3        1 TPM     -0.154700
     13 C10        -4.3540    1.3150   -0.0780 c3        1 TPM     -0.090400
     14 C11        -4.9880    0.0040    0.3220 c3        1 TPM     -0.104400
     15 C12        -4.2240   -1.1650   -0.2860 c3        1 TPM      0.019300
     16 HC21        4.0960   -0.2830    2.1620 ha        1 TPM      0.149000
     17 HC31        1.7280   -0.9500    2.0030 ha        1 TPM      0.133000
     18 HC51        1.6960    0.0490   -2.2090 ha        1 TPM      0.133000
     19 HC61        4.0640    0.7240   -2.0850 ha        1 TPM      0.149000
     20 HC71       -0.0840   -1.3150   -1.2350 h1        1 TPM      0.067700
     21 HC72       -0.0720   -1.7310    0.5520 h1        1 TPM      0.067700
     22 HN11        6.0820    0.5120    0.9650 hn        1 TPM      0.436800
     23 HN12        6.0700    0.9050   -0.6870 hn        1 TPM      0.436800
     24 HN21       -0.3630    1.0810    0.2760 hn        1 TPM      0.327700
     25 HN31       -2.2670   -1.8850   -0.4180 hn        1 TPM      0.312700
     26 HC91       -2.8740    1.4990    1.5030 hc        1 TPM      0.101700
     27 HC92       -2.4110    2.2670   -0.0810 hc        1 TPM      0.101700
     28 H101       -4.4070    1.4440   -1.1910 hc        1 TPM      0.081700
     29 H102       -4.9170    2.1700    0.3840 hc        1 TPM      0.081700
     30 H111       -6.0480   -0.0430   -0.0440 hc        1 TPM      0.083700
     31 H112       -5.0140   -0.0890    1.4400 hc        1 TPM      0.083700
     32 H121       -4.4950   -1.2660   -1.3790 h1        1 TPM      0.083700
     33 H122       -4.5130   -2.1210    0.2410 h1        1 TPM      0.083700
@<TRIPOS>BOND
     1    1    2 ar  
     2    1    5 ar  
     3    1    8 1   
     4    2    3 ar  
     5    2   16 1   
     6    3    6 ar  
     7    3   17 1   
     8    4    5 ar  
     9    4    6 ar  
    10    4   18 1   
    11    5   19 1   
    12    6    7 1   
    13    7    9 1   
    14    7   20 1   
    15    7   21 1   
    16    8   22 1   
    17    8   23 1   
    18    9   10 2   
    19    9   24 1   
    20   10   11 1   
    21   10   12 1   
    22   11   15 1   
    23   11   25 1   
    24   12   13 1   
    25   12   26 1   
    26   12   27 1   
    27   13   14 1   
    28   13   28 1   
    29   13   29 1   
    30   14   15 1   
    31   14   30 1   
    32   14   31 1   
    33   15   32 1   
    34   15   33 1   
@<TRIPOS>SUBSTRUCTURE
     1 TPM         1 TEMP              0 ****  ****    0 ROOT
