@<TRIPOS>MOLECULE
TPM
   35    36     1     0     0
SMALL
bcc


@<TRIPOS>ATOM
      1 C1         -0.0200   -0.0730   -0.1490 ca        1 TPM      0.013600
      2 C2          1.3460    0.2610   -0.1320 ca        1 TPM     -0.081500
      3 C3          2.0100    0.3710    1.0920 ca        1 TPM     -0.064500
      4 C5         -0.0400   -0.1600    2.2690 ca        1 TPM     -0.064500
      5 C6         -0.7190   -0.2740    1.0550 ca        1 TPM     -0.081500
      6 C4          1.3260    0.1530    2.2960 ca        1 TPM     -0.161300
      7 C7          2.0780    0.1180    3.5880 c3        1 TPM      0.159100
      8 N1         -0.7140   -0.2370   -1.4290 n4        1 TPM     -0.719000
      9 N2          2.0900    1.4650    4.2780 n4        1 TPM     -0.792000
     10 C8          2.9880    1.6070    5.4670 c2        1 TPM      0.435200
     11 N3          3.3110    0.5940    6.2380 nh        1 TPM     -0.152100
     12 C9          3.4890    3.0230    5.7050 c3        1 TPM     -0.169700
     13 C10         3.9910    3.2100    7.1250 c3        1 TPM     -0.102400
     14 C11         4.8860    2.0680    7.5380 c3        1 TPM     -0.125400
     15 C12         4.1670    0.7360    7.4350 c3        1 TPM     -0.022700
     16 HC21        1.9180    0.4270   -1.0660 ha        1 TPM      0.200000
     17 HC31        3.0900    0.6050    1.0840 ha        1 TPM      0.179500
     18 HC51       -0.6000   -0.3490    3.2030 ha        1 TPM      0.179500
     19 HC61       -1.7960   -0.5330    1.0670 ha        1 TPM      0.200000
     20 HC71        1.5920   -0.6270    4.2850 hx        1 TPM      0.130200
     21 HC72        3.1530   -0.1810    3.3990 hx        1 TPM      0.130200
     22 HN11       -1.7100    0.0120   -1.3340 hn        1 TPM      0.490133
     23 HN12       -0.2880    0.3660   -2.1500 hn        1 TPM      0.490133
     24 HN21        2.3860    2.1860    3.5920 hn        1 TPM      0.499800
     25 HN31        2.9770   -0.3500    6.0770 hn        1 TPM      0.346700
     26 HC91        2.6720    3.7720    5.4950 hc        1 TPM      0.140200
     27 HC92        4.3310    3.2090    4.9730 hc        1 TPM      0.140200
     28 H101        3.1270    3.3150    7.8350 hc        1 TPM      0.123700
     29 H102        4.5660    4.1810    7.1710 hc        1 TPM      0.123700
     30 H111        5.8270    2.0570    6.9220 hc        1 TPM      0.129700
     31 H112        5.2090    2.2010    8.6130 hc        1 TPM      0.129700
     32 H121        3.4760    0.5770    8.3230 h1        1 TPM      0.152200
     33 H122        4.9130   -0.1190    7.4010 h1        1 TPM      0.152200
     34 H13        -0.6460   -1.2200   -1.7370 hn        1 TPM      0.490133
     35 H22         1.1270    1.7040    4.5790 hn        1 TPM      0.499800
@<TRIPOS>BOND
     1    1    2 ar  
     2    1    5 ar  
     3    1    8 1   
     4    2    3 ar  
     5    2   16 1   
     6    3    6 ar  
     7    3   17 1   
     8    4    5 ar  
     9    4    6 ar  
    10    4   18 1   
    11    5   19 1   
    12    6    7 1   
    13    7    9 1   
    14    7   20 1   
    15    7   21 1   
    16    8   22 1   
    17    8   23 1   
    18    8   34 1   
    19    9   10 1   
    20    9   24 1   
    21    9   35 1   
    22   10   11 2   
    23   10   12 1   
    24   11   15 1   
    25   11   25 1   
    26   12   13 1   
    27   12   26 1   
    28   12   27 1   
    29   13   14 1   
    30   13   28 1   
    31   13   29 1   
    32   14   15 1   
    33   14   30 1   
    34   14   31 1   
    35   15   32 1   
    36   15   33 1   
@<TRIPOS>SUBSTRUCTURE
     1 TPM         1 TEMP              0 ****  ****    0 ROOT
