@<TRIPOS>MOLECULE
TPM
   34    35     1     0     0
SMALL
bcc


@<TRIPOS>ATOM
      1 C1         -0.0610   -0.0040   -0.1040 ca        1 TPM      0.304600
      2 C2          1.0750    0.8800   -0.0550 ca        1 TPM     -0.222000
      3 C3          1.8410    0.9700    1.0760 ca        1 TPM     -0.009000
      4 C5          0.4200   -0.6590    2.1980 ca        1 TPM     -0.009000
      5 C6         -0.3620   -0.7670    1.0790 ca        1 TPM     -0.222000
      6 C4          1.5470    0.2030    2.2330 ca        1 TPM     -0.326300
      7 C7          2.4170    0.2360    3.3820 c3        1 TPM      0.248100
      8 N1         -0.8150   -0.1110   -1.2140 nv        1 TPM     -0.785200
      9 N2          1.8860    1.3780    4.3690 ny        1 TPM     -0.842000
     10 C8          2.7520    1.5880    5.5390 c2        1 TPM      0.447200
     11 N3          2.6520    0.8360    6.6200 nu        1 TPM     -0.190100
     12 C9          3.8180    2.6580    5.3890 c3        1 TPM     -0.166700
     13 C10         4.4640    3.0260    6.7090 c3        1 TPM     -0.101400
     14 C11         4.7900    1.7950    7.5200 c3        1 TPM     -0.117400
     15 C12         3.5410    0.9680    7.7820 c3        1 TPM     -0.019700
     16 HC21        1.3360    1.4760   -0.9460 ha        1 TPM      0.174000
     17 HC31        2.7220    1.6350    1.0790 ha        1 TPM      0.139500
     18 HC51        0.1830   -1.2740    3.0820 ha        1 TPM      0.139500
     19 HC61       -1.2240   -1.4570    1.0730 ha        1 TPM      0.174000
     20 HC71        3.4720    0.5450    3.1460 hx        1 TPM      0.098200
     21 HC72        2.3910   -0.6990    4.0020 hx        1 TPM      0.098200
     22 HN11       -1.5880   -0.7370   -1.2480 hn        1 TPM      0.469300
     23 HN12       -0.5910    0.4060   -2.0350 hn        1 TPM      0.469300
     24 HN21        1.8460    2.2540    3.8250 hn        1 TPM      0.470300
     25 HN31        1.9380    0.1260    6.7170 hn        1 TPM      0.339700
     26 HC91        4.5950    2.2530    4.6740 hc        1 TPM      0.129200
     27 HC92        3.3700    3.5810    4.9230 hc        1 TPM      0.129200
     28 H101        5.4080    3.6030    6.4970 hc        1 TPM      0.109200
     29 H102        3.7900    3.7100    7.2920 hc        1 TPM      0.109200
     30 H111        5.2220    2.0930    8.5170 hc        1 TPM      0.112700
     31 H112        5.5680    1.1750    6.9990 hc        1 TPM      0.112700
     32 H121        2.9180    1.4370    8.6050 h1        1 TPM      0.133200
     33 H122        3.8250   -0.0820    8.0980 h1        1 TPM      0.133200
     34 H22         0.9200    1.1360    4.6280 hn        1 TPM      0.470300
@<TRIPOS>BOND
     1    1    2 ar  
     2    1    5 ar  
     3    1    8 1   
     4    2    3 ar  
     5    2   16 1   
     6    3    6 ar  
     7    3   17 1   
     8    4    5 ar  
     9    4    6 ar  
    10    4   18 1   
    11    5   19 1   
    12    6    7 1   
    13    7    9 1   
    14    7   20 1   
    15    7   21 1   
    16    8   22 1   
    17    8   23 1   
    18    9   10 1   
    19    9   24 1   
    20    9   34 1   
    21   10   11 2   
    22   10   12 1   
    23   11   15 1   
    24   11   25 1   
    25   12   13 1   
    26   12   26 1   
    27   12   27 1   
    28   13   14 1   
    29   13   28 1   
    30   13   29 1   
    31   14   15 1   
    32   14   30 1   
    33   14   31 1   
    34   15   32 1   
    35   15   33 1   
@<TRIPOS>SUBSTRUCTURE
     1 TPM         1 TEMP              0 ****  ****    0 ROOT
