@<TRIPOS>MOLECULE
TPM
   34    35     1     0     0
SMALL
bcc


@<TRIPOS>ATOM
      1 C1         -0.0660    0.0130   -0.1060 ca        1 TPM      0.304600
      2 C2          1.1230    0.8250   -0.0670 ca        1 TPM     -0.222000
      3 C3          1.8780    0.9030    1.0730 ca        1 TPM     -0.009000
      4 C5          0.3410   -0.5950    2.2240 ca        1 TPM     -0.009000
      5 C6         -0.4310   -0.6900    1.0970 ca        1 TPM     -0.222000
      6 C4          1.5200    0.1950    2.2490 ca        1 TPM     -0.326300
      7 C7          2.3740    0.2110    3.4090 c3        1 TPM      0.248100
      8 N1         -0.8090   -0.0820   -1.2240 nh        1 TPM     -0.785200
      9 N2          1.9030    1.4160    4.3520 n4        1 TPM     -0.842000
     10 C8          2.7650    1.6090    5.5270 c2        1 TPM      0.447200
     11 N3          2.6040    0.9000    6.6300 nh        1 TPM     -0.190100
     12 C9          3.8980    2.6050    5.3600 c3        1 TPM     -0.166700
     13 C10         4.5480    2.9750    6.6780 c3        1 TPM     -0.101400
     14 C11         4.7850    1.7530    7.5320 c3        1 TPM     -0.117400
     15 C12         3.4840    1.0140    7.8010 c3        1 TPM     -0.019700
     16 HC21        1.4330    1.3730   -0.9720 ha        1 TPM      0.174000
     17 HC31        2.7990    1.5110    1.0690 ha        1 TPM      0.139500
     18 HC51        0.0530   -1.1650    3.1230 ha        1 TPM      0.139500
     19 HC61       -1.3340   -1.3240    1.0990 ha        1 TPM      0.174000
     20 HC71        2.2810   -0.7010    4.0590 hx        1 TPM      0.098200
     21 HC72        3.4500    0.4440    3.1810 hx        1 TPM      0.098200
     22 HN11       -1.6200   -0.6590   -1.2500 hn        1 TPM      0.469300
     23 HN12       -0.5420    0.3920   -2.0570 hn        1 TPM      0.469300
     24 HN21        0.9210    1.2440    4.6030 hn        1 TPM      0.470300
     25 HN31        1.8450    0.2390    6.7380 hn        1 TPM      0.339700
     26 HC91        4.6580    2.1300    4.6710 hc        1 TPM      0.129200
     27 HC92        3.5150    3.5390    4.8590 hc        1 TPM      0.129200
     28 H101        5.5290    3.4850    6.4620 hc        1 TPM      0.109200
     29 H102        3.9100    3.7180    7.2290 hc        1 TPM      0.109200
     30 H111        5.2210    2.0550    8.5260 hc        1 TPM      0.112700
     31 H112        5.5300    1.0690    7.0430 hc        1 TPM      0.112700
     32 H121        3.6960   -0.0400    8.1550 h1        1 TPM      0.133200
     33 H122        2.8800    1.5480    8.5990 h1        1 TPM      0.133200
     34 H22         1.9270    2.2730    3.7790 hn        1 TPM      0.470300
@<TRIPOS>BOND
     1    1    2 ar  
     2    1    5 ar  
     3    1    8 1   
     4    2    3 ar  
     5    2   16 1   
     6    3    6 ar  
     7    3   17 1   
     8    4    5 ar  
     9    4    6 ar  
    10    4   18 1   
    11    5   19 1   
    12    6    7 1   
    13    7    9 1   
    14    7   20 1   
    15    7   21 1   
    16    8   22 1   
    17    8   23 1   
    18    9   10 1   
    19    9   24 1   
    20    9   34 1   
    21   10   11 2   
    22   10   12 1   
    23   11   15 1   
    24   11   25 1   
    25   12   13 1   
    26   12   26 1   
    27   12   27 1   
    28   13   14 1   
    29   13   28 1   
    30   13   29 1   
    31   14   15 1   
    32   14   30 1   
    33   14   31 1   
    34   15   32 1   
    35   15   33 1   
@<TRIPOS>SUBSTRUCTURE
     1 TPM         1 TEMP              0 ****  ****    0 ROOT
