@<TRIPOS>MOLECULE
TPN
   36    36     1     0     0
SMALL
bcc


@<TRIPOS>ATOM
      1 C8'        -0.8750   -0.3030   -0.0810 c3        1 TPN      0.031000
      2 C7'         0.6030    0.0740   -0.1470 c         1 TPN      0.636100
      3 O7'         1.1820    0.4130    0.8540 o         1 TPN     -0.608100
      4 C5'         2.0550    1.1740   -1.9320 c3        1 TPN     -0.004000
      5 C'          1.0950    2.2980   -2.1520 c         1 TPN      0.875600
      6 O1'         1.1320    3.3010   -1.4130 o         1 TPN     -0.566800
      7 OXT         0.3350    2.2860   -3.1580 o         1 TPN     -0.566800
      8 N4'         1.3370    0.0100   -1.4470 n         1 TPN     -0.431800
      9 C3'         1.3520   -1.2140   -2.2080 c3        1 TPN      0.065000
     10 C2'         2.7700   -1.7460   -2.2930 c3        1 TPN      0.151800
     11 N1'         2.7800   -2.9500   -3.0650 n4        1 TPN     -1.149600
     12 N1         -1.3690   -0.0560    1.2460 n         1 TPN     -0.374000
     13 C6         -2.2670    1.0420    1.4830 cc        1 TPN      0.037600
     14 C2         -1.0870   -1.0290    2.3310 c         1 TPN      0.809500
     15 O2         -0.5230   -2.1070    2.0680 o         1 TPN     -0.656500
     16 N3         -1.5290   -0.7430    3.7130 n         1 TPN     -0.581500
     17 C4         -2.3930    0.3790    3.9750 c         1 TPN      0.715700
     18 O4         -2.8030    0.5830    5.0970 o         1 TPN     -0.600500
     19 C5         -2.7850    1.2920    2.8600 cd        1 TPN     -0.246400
     20 C5M        -3.5580    2.5580    3.1620 c3        1 TPN     -0.032900
     21 H8'1       -0.9820   -1.2690   -0.3010 h1        1 TPN      0.100700
     22 H8'2       -1.3860    0.2420   -0.7310 h1        1 TPN      0.100700
     23 H5'1        2.7280    1.4420   -1.2730 h1        1 TPN      0.100200
     24 H5'2        2.4960    0.9550   -2.7770 h1        1 TPN      0.100200
     25 H3'1        0.7790   -1.8820   -1.7660 h1        1 TPN      0.072700
     26 H3'2        1.0200   -1.0440   -3.0960 h1        1 TPN      0.072700
     27 H2'1        3.3610   -1.0610   -2.7340 hx        1 TPN      0.041200
     28 H2'2        3.1090   -1.9370   -1.3720 hx        1 TPN      0.041200
     29 H1'1        3.6200   -3.2290   -3.1690 hn        1 TPN      0.387133
     30 H1'2        2.4050   -2.7880   -3.8910 hn        1 TPN      0.387133
     31 H1'3        2.3020   -3.5880   -2.6360 hn        1 TPN      0.387133
     32 H6         -2.4630    1.6720    0.7690 h4        1 TPN      0.189000
     33 HN3        -1.2620   -1.2760    4.3920 hn        1 TPN      0.354500
     34 HM51       -3.6400    3.1010    2.3390 hc        1 TPN      0.054033
     35 HM52       -4.4630    2.3190    3.4940 hc        1 TPN      0.054033
     36 HM53       -3.0770    3.0810    3.8580 hc        1 TPN      0.054033
@<TRIPOS>BOND
     1    1    2 1   
     2    1   12 1   
     3    1   21 1   
     4    1   22 1   
     5    2    3 2   
     6    2    8 1   
     7    4    5 1   
     8    4    8 1   
     9    4   23 1   
    10    4   24 1   
    11    5    6 1   
    12    5    7 1   
    13    8    9 1   
    14    9   10 1   
    15    9   25 1   
    16    9   26 1   
    17   10   11 1   
    18   10   27 1   
    19   10   28 1   
    20   11   29 1   
    21   11   30 1   
    22   11   31 1   
    23   12   13 1   
    24   12   14 1   
    25   13   19 2   
    26   13   32 1   
    27   14   15 2   
    28   14   16 1   
    29   16   17 1   
    30   16   33 1   
    31   17   18 2   
    32   17   19 1   
    33   19   20 1   
    34   20   34 1   
    35   20   35 1   
    36   20   36 1   
@<TRIPOS>SUBSTRUCTURE
     1 TPN         1 TEMP              0 ****  ****    0 ROOT
