@<TRIPOS>MOLECULE
TPN
   36    36     1     0     0
SMALL
bcc


@<TRIPOS>ATOM
      1 C8'         0.0200    0.5220    1.2610 c3        1 TPN      0.031000
      2 C7'        -0.8770   -0.6900    0.9570 c         1 TPN      0.635100
      3 O7'        -0.4300   -1.8500    0.9540 o         1 TPN     -0.569100
      4 C5'        -2.7920    0.8130    0.4800 c3        1 TPN      0.021000
      5 C'         -2.4440    1.3670   -0.8970 c         1 TPN      0.607100
      6 O1'        -1.3080    1.5240   -1.3520 o         1 TPN     -0.521000
      7 OXT        -3.4330    1.7880   -1.7300 oh        1 TPN     -0.568100
      8 N4'        -2.2480   -0.4800    0.7690 n         1 TPN     -0.467800
      9 C3'        -3.1080   -1.6290    0.5780 c3        1 TPN      0.088000
     10 C2'        -3.2330   -2.1540   -0.8690 c3        1 TPN      0.128800
     11 N1'        -3.7340   -1.1610   -1.7880 n3        1 TPN     -0.945800
     12 N1          1.4020    0.3380    0.9000 n         1 TPN     -0.359000
     13 C6          1.7820    0.3890   -0.4370 cc        1 TPN      0.036600
     14 C2          2.3150   -0.1460    1.8800 c         1 TPN      0.812500
     15 O2          1.9900   -0.2040    3.0860 o         1 TPN     -0.641500
     16 N3          3.6050   -0.4990    1.4640 n         1 TPN     -0.581500
     17 C4          4.0230   -0.4450    0.1220 c         1 TPN      0.717700
     18 O4          5.1780   -0.8090   -0.1540 o         1 TPN     -0.609500
     19 C5          3.0340    0.0520   -0.8530 cd        1 TPN     -0.247400
     20 C5M         3.4680    0.1610   -2.2590 c3        1 TPN     -0.031900
     21 H8'1       -0.3430    1.4360    0.7100 h1        1 TPN      0.104700
     22 H8'2       -0.0440    0.6970    2.3760 h1        1 TPN      0.104700
     23 H5'1       -2.4110    1.5640    1.2350 h1        1 TPN      0.079700
     24 H5'2       -3.9150    0.7660    0.5800 h1        1 TPN      0.079700
     25 H3'1       -2.6960   -2.4760    1.2000 h1        1 TPN      0.069200
     26 H3'2       -4.1330   -1.3670    0.9670 h1        1 TPN      0.069200
     27 H2'1       -2.2270   -2.5630   -1.1790 h1        1 TPN      0.048700
     28 H2'2       -3.9510   -3.0220   -0.8260 h1        1 TPN      0.048700
     29 H1'1       -4.2970    1.5010   -1.3970 ho        1 TPN      0.443000
     30 H1'2       -2.9840   -0.6530   -2.2170 hn        1 TPN      0.359300
     31 H1'3       -4.2890   -1.5840   -2.5030 hn        1 TPN      0.359300
     32 H6          0.9990    0.7500   -1.1370 h4        1 TPN      0.188000
     33 HN3         4.2290   -0.8410    2.1630 hn        1 TPN      0.352500
     34 HM51        4.2350    0.9700   -2.3600 hc        1 TPN      0.052033
     35 HM52        3.9380   -0.8000   -2.5880 hc        1 TPN      0.052033
     36 HM53        2.6070    0.3950   -2.9320 hc        1 TPN      0.052033
@<TRIPOS>BOND
     1    1    2 1   
     2    1   12 1   
     3    1   21 1   
     4    1   22 1   
     5    2    3 2   
     6    2    8 1   
     7    4    5 1   
     8    4    8 1   
     9    4   23 1   
    10    4   24 1   
    11    5    6 2   
    12    5    7 1   
    13    7   29 1   
    14    8    9 1   
    15    9   10 1   
    16    9   25 1   
    17    9   26 1   
    18   10   11 1   
    19   10   27 1   
    20   10   28 1   
    21   11   30 1   
    22   11   31 1   
    23   12   13 1   
    24   12   14 1   
    25   13   19 2   
    26   13   32 1   
    27   14   15 2   
    28   14   16 1   
    29   16   17 1   
    30   16   33 1   
    31   17   18 2   
    32   17   19 1   
    33   19   20 1   
    34   20   34 1   
    35   20   35 1   
    36   20   36 1   
@<TRIPOS>SUBSTRUCTURE
     1 TPN         1 TEMP              0 ****  ****    0 ROOT
