@<TRIPOS>MOLECULE
TPO
   19    18     1     0     0
SMALL
bcc


@<TRIPOS>ATOM
      1 N          -0.1580   -1.5750    1.4300 n3        1 TPO     -0.932800
      2 CA          0.6340   -0.3800    1.6880 c3        1 TPO      0.042500
      3 CB          0.9260    0.4310    0.3790 c3        1 TPO      0.206100
      4 CG2         1.6320    1.7360    0.7390 c3        1 TPO     -0.092100
      5 OG1         1.7290   -0.3180   -0.4670 os        1 TPO     -0.587200
      6 P           1.0590   -0.7690   -1.9780 p5        1 TPO      1.324900
      7 O1P         0.5550    0.5240   -2.5730 o         1 TPO     -0.947167
      8 O2P         2.2460   -1.3690   -2.6960 o         1 TPO     -0.947167
      9 O3P        -0.0150   -1.7540   -1.5810 o         1 TPO     -0.947167
     10 C           0.0220    0.5010    2.8040 c         1 TPO      0.910600
     11 O          -1.2170    0.7870    2.8110 o         1 TPO     -0.905800
     12 OXT         0.7790    0.9090    3.7460 o         1 TPO     -0.905800
     13 H           0.0840   -1.9110    0.4990 hn        1 TPO      0.356300
     14 H2         -1.1250   -1.3040    1.3960 hn        1 TPO      0.356300
     15 HA          1.6370   -0.7380    2.0660 h1        1 TPO      0.026700
     16 HB         -0.0510    0.6740   -0.1340 h1        1 TPO      0.029700
     17 HG21        2.6120    1.5200    1.2260 hc        1 TPO      0.004033
     18 HG22        1.8180    2.3320   -0.1860 hc        1 TPO      0.004033
     19 HG23        1.0040    2.3290    1.4450 hc        1 TPO      0.004033
@<TRIPOS>BOND
     1    1    2 1   
     2    1   13 1   
     3    1   14 1   
     4    2    3 1   
     5    2   10 1   
     6    2   15 1   
     7    3    4 1   
     8    3    5 1   
     9    3   16 1   
    10    4   17 1   
    11    4   18 1   
    12    4   19 1   
    13    5    6 1   
    14    6    7 1   
    15    6    8 1   
    16    6    9 1   
    17   10   11 1   
    18   10   12 1   
@<TRIPOS>SUBSTRUCTURE
     1 TPO         1 TEMP              0 ****  ****    0 ROOT
