@<TRIPOS>MOLECULE
TPQ
   23    23     1     0     0
SMALL
bcc


@<TRIPOS>ATOM
      1 N          -5.1170   -3.3140   -1.8770 n3        1 TPQ     -0.888800
      2 CA         -4.7370   -1.9200   -2.0770 c3        1 TPQ      0.022500
      3 CB         -3.3090   -1.7990   -2.6360 c3        1 TPQ     -0.040200
      4 C          -5.7140   -1.1520   -3.0300 c         1 TPQ      0.882600
      5 O          -6.2400   -1.7970   -3.9780 o         1 TPQ     -0.834800
      6 OXT        -5.9300    0.0690   -2.7840 o         1 TPQ     -0.834800
      7 C1         -2.5330   -0.6720   -2.0520 cc        1 TPQ     -0.088400
      8 C2         -1.0750   -0.9060   -1.8580 c         1 TPQ      0.556500
      9 O2         -0.5180   -1.9700   -2.1670 o         1 TPQ     -0.524100
     10 C3         -0.2900    0.1970   -1.2770 cc        1 TPQ     -0.271200
     11 C4         -0.8710    1.3700   -0.9580 cd        1 TPQ      0.037900
     12 O4         -0.1120    2.3790   -0.4210 oh        1 TPQ     -0.500100
     13 C5         -2.3310    1.6200   -1.1670 c         1 TPQ      0.544500
     14 O5         -2.8000    2.7220   -0.8490 o         1 TPQ     -0.532100
     15 C6         -3.0950    0.5120   -1.7370 cd        1 TPQ     -0.225200
     16 H          -6.0690   -3.3230   -1.5540 hn        1 TPQ      0.334800
     17 H2         -5.1170   -3.7690   -2.7750 hn        1 TPQ      0.334800
     18 HA         -4.7780   -1.4220   -1.0660 h1        1 TPQ      0.045700
     19 HB2        -3.3750   -1.6410   -3.7490 hc        1 TPQ      0.069700
     20 HB3        -2.7350   -2.7530   -2.4730 hc        1 TPQ      0.069700
     21 H3          0.7840    0.0170   -1.1210 ha        1 TPQ      0.156000
     22 HO4        -0.7020    3.1370   -0.2630 ho        1 TPQ      0.439000
     23 H6         -4.1850    0.6940   -1.9140 ha        1 TPQ      0.246000
@<TRIPOS>BOND
     1    1    2 1   
     2    1   16 1   
     3    1   17 1   
     4    2    3 1   
     5    2    4 1   
     6    2   18 1   
     7    3    7 1   
     8    3   19 1   
     9    3   20 1   
    10    4    5 1   
    11    4    6 1   
    12    7    8 1   
    13    7   15 2   
    14    8    9 2   
    15    8   10 1   
    16   10   11 2   
    17   10   21 1   
    18   11   12 1   
    19   11   13 1   
    20   12   22 1   
    21   13   14 2   
    22   13   15 1   
    23   15   23 1   
@<TRIPOS>SUBSTRUCTURE
     1 TPQ         1 TEMP              0 ****  ****    0 ROOT
