@<TRIPOS>MOLECULE
TPU
   41    42     1     0     0
SMALL
bcc


@<TRIPOS>ATOM
      1 O23         0.0000    0.0000    0.0000 o         1 TPU     -0.640833
      2 P2          1.6100    0.0000    0.0000 p5        1 TPU      0.837900
      3 O22         2.1470    0.0000    1.5180 o         1 TPU     -0.640833
      4 O21         2.1030   -1.2090   -0.6970 o         1 TPU     -0.640833
      5 O11         2.1470    1.3140   -0.7590 os        1 TPU     -0.479800
      6 P1          3.5460    1.7150   -1.4480 p5        1 TPU      0.939800
      7 O12         3.6290    1.0580   -2.9150 o         1 TPU     -0.700500
      8 O13         4.6650    1.2140   -0.6190 o         1 TPU     -0.700500
      9 O5G         3.6440    3.3170   -1.5710 os        1 TPU     -0.505200
     10 C5B         4.8110    3.9910   -2.0460 c3        1 TPU      0.312400
     11 C5A         4.5680    5.5020   -2.0350 c3        1 TPU     -0.067700
     12 C5          5.7980    6.2130   -2.5360 cc        1 TPU      0.305600
     13 C4          6.0780    6.5400   -3.8190 cd        1 TPU     -0.443900
     14 C4A         5.2230    6.2670   -5.0300 c3        1 TPU      0.109200
     15 N1          6.8260    6.6500   -1.7990 nc        1 TPU     -0.339000
     16 N2          7.6880    7.2060   -2.5750 nd        1 TPU     -0.426800
     17 N3          7.2800    7.1630   -3.7960 na        1 TPU      0.585400
     18 C35         7.9920    7.6990   -4.9580 c3        1 TPU      0.075600
     19 C5'         7.5850    9.1320   -5.1790 ca        1 TPU     -0.543900
     20 C6'         6.5780    9.4540   -6.0690 ca        1 TPU      0.423200
     21 N1'         6.2460   10.7250   -6.2390 nb        1 TPU     -0.654000
     22 C2'         6.8610   11.6820   -5.5740 ca        1 TPU      0.441300
     23 C2A         6.4500   13.1130   -5.8010 c3        1 TPU      0.005600
     24 N3'         7.8270   11.4220   -4.7160 nb        1 TPU     -0.672000
     25 C4'         8.2120   10.1690   -4.4880 ca        1 TPU      0.521200
     26 N4'         9.2240    9.8990   -3.5800 nv        1 TPU     -0.596500
     27 H5B1        5.6500    3.7560   -1.4030 h1        1 TPU     -0.025800
     28 H5B2        5.0290    3.6670   -3.0560 h1        1 TPU     -0.025800
     29 H5A1        4.3500    5.8250   -1.0250 hc        1 TPU      0.014200
     30 H5A2        3.7280    5.7370   -2.6780 hc        1 TPU      0.014200
     31 H4A1        4.7270    5.3110   -4.9140 hc        1 TPU      0.008700
     32 H4A2        4.4800    7.0490   -5.1310 hc        1 TPU      0.008700
     33 H4A3        5.8470    6.2460   -5.9150 hc        1 TPU      0.008700
     34 H351        9.0590    7.6500   -4.7810 h1        1 TPU      0.021200
     35 H352        7.7440    7.1130   -5.8350 h1        1 TPU      0.021200
     36 H6'         6.0650    8.6750   -6.6210 h4        1 TPU     -0.033900
     37 H2A1        7.3270   13.7120   -6.0140 hc        1 TPU     -0.013300
     38 H2A2        5.7660   13.1640   -6.6400 hc        1 TPU     -0.013300
     39 H2A3        5.9600   13.4940   -4.9130 hc        1 TPU     -0.013300
     40 H4'1       10.0080    9.3420   -3.8560 hn        1 TPU      0.260300
     41 H4'2        9.1800   10.2780   -2.6540 hn        1 TPU      0.260300
@<TRIPOS>BOND
     1    1    2 1   
     2    2    3 1   
     3    2    4 1   
     4    2    5 1   
     5    5    6 1   
     6    6    7 1   
     7    6    8 1   
     8    6    9 1   
     9    9   10 1   
    10   10   11 1   
    11   10   27 1   
    12   10   28 1   
    13   11   12 1   
    14   11   29 1   
    15   11   30 1   
    16   12   13 2   
    17   12   15 1   
    18   13   14 1   
    19   13   17 1   
    20   14   31 1   
    21   14   32 1   
    22   14   33 1   
    23   15   16 2   
    24   16   17 1   
    25   17   18 1   
    26   18   19 1   
    27   18   34 1   
    28   18   35 1   
    29   19   20 ar  
    30   19   25 ar  
    31   20   21 ar  
    32   20   36 1   
    33   21   22 ar  
    34   22   23 1   
    35   22   24 ar  
    36   23   37 1   
    37   23   38 1   
    38   23   39 1   
    39   24   25 ar  
    40   25   26 1   
    41   26   40 1   
    42   26   41 1   
@<TRIPOS>SUBSTRUCTURE
     1 TPU         1 TEMP              0 ****  ****    0 ROOT
