@<TRIPOS>MOLECULE
TPV
   75    78     1     0     0
SMALL
bcc


@<TRIPOS>ATOM
      1 O1         -0.3180    0.4990   -0.1370 os        1 TPV     -0.417900
      2 C2          0.8930   -0.0260   -0.5430 c         1 TPV      0.741800
      3 C3          1.9780   -0.2410    0.4240 ce        1 TPV     -0.226400
      4 C4          1.6770   -0.1410    1.7450 c2        1 TPV      0.126900
      5 C5          0.3040    0.1960    2.2150 c3        1 TPV     -0.116200
      6 C6         -0.4340    1.0560    1.1830 c3        1 TPV      0.170800
      7 O7          0.8710   -0.2900   -1.7470 o         1 TPV     -0.582500
      8 O8          2.6520   -0.3790    2.6800 oh        1 TPV     -0.484100
      9 C9         -1.9390    1.1030    1.4740 c3        1 TPV     -0.074400
     10 C10        -2.6030   -0.2560    1.5310 c3        1 TPV     -0.082400
     11 C11        -4.1050   -0.1280    1.4890 c3        1 TPV     -0.093100
     12 C12         0.1590    2.4730    1.1960 c3        1 TPV     -0.099400
     13 C13        -0.4620    3.3900    0.1600 c3        1 TPV     -0.037100
     14 C14         0.2930    4.6680    0.0460 ca        1 TPV     -0.081300
     15 C15         1.5020    4.7130   -0.6580 ca        1 TPV     -0.127500
     16 C16         2.2040    5.9110   -0.7760 ca        1 TPV     -0.128000
     17 C17         1.7040    7.0760   -0.1930 ca        1 TPV     -0.131000
     18 C18         0.5000    7.0380    0.5090 ca        1 TPV     -0.128000
     19 C19        -0.2040    5.8400    0.6280 ca        1 TPV     -0.127500
     20 C20         3.3570   -0.5890   -0.0460 c3        1 TPV      0.047800
     21 C21         3.8260    0.2710   -1.2160 c3        1 TPV     -0.085400
     22 C22         4.1010    1.6910   -0.7940 c3        1 TPV     -0.092100
     23 C23         3.4650   -2.0520   -0.3730 ca        1 TPV     -0.057300
     24 C24         2.9450   -2.5740   -1.5620 ca        1 TPV     -0.129000
     25 C25         3.0770   -3.9320   -1.8390 ca        1 TPV     -0.106000
     26 C26         3.7170   -4.7890   -0.9490 ca        1 TPV     -0.156000
     27 C27         4.2490   -4.2760    0.2520 ca        1 TPV      0.148600
     28 N28         4.8920   -5.1110    1.1900 nu        1 TPV     -0.776500
     29 C29         4.1140   -2.8980    0.5290 ca        1 TPV     -0.155000
     30 S30         5.7190   -6.4670    0.9270 sy        1 TPV      1.436800
     31 O31         5.9940   -7.0540    2.1810 o         1 TPV     -0.638300
     32 O32         5.1500   -7.2970   -0.0430 o         1 TPV     -0.638300
     33 C33         7.2570   -5.8970    0.3290 ca        1 TPV      0.169200
     34 N34         7.2520   -5.1430   -0.7970 nb        1 TPV     -0.587000
     35 C35         8.4270   -4.7270   -1.2860 ca        1 TPV      0.430200
     36 C36         9.6640   -5.0390   -0.6770 ca        1 TPV     -0.242600
     37 C37         9.6690   -5.8140    0.4800 ca        1 TPV     -0.062000
     38 C38         8.4430   -6.2500    0.9950 ca        1 TPV     -0.153300
     39 C39        10.9620   -4.5170   -1.2760 c3        1 TPV      0.691200
     40 F40        10.9350   -4.3640   -2.6400 f         1 TPV     -0.230300
     41 F41        11.3370   -3.2830   -0.8030 f         1 TPV     -0.230300
     42 F42        12.0550   -5.3150   -1.0420 f         1 TPV     -0.230300
     43 H51        -0.2530   -0.7680    2.3790 hc        1 TPV      0.080700
     44 H52         0.3350    0.7470    3.1910 hc        1 TPV      0.080700
     45 HO81        2.2710   -0.2350    3.5590 ho        1 TPV      0.426000
     46 H91        -2.4250    1.7030    0.6570 hc        1 TPV      0.058200
     47 H92        -2.0860    1.6470    2.4420 hc        1 TPV      0.058200
     48 H101       -2.3080   -0.7910    2.4730 hc        1 TPV      0.047200
     49 H102       -2.2510   -0.8770    0.6640 hc        1 TPV      0.047200
     50 H111       -4.5790   -1.1360    1.5710 hc        1 TPV      0.036367
     51 H112       -4.4340    0.3380    0.5290 hc        1 TPV      0.036367
     52 H113       -4.4710    0.5060    2.3320 hc        1 TPV      0.036367
     53 H121        1.2630    2.3960    1.0010 hc        1 TPV      0.053700
     54 H122        0.0190    2.9090    2.2190 hc        1 TPV      0.053700
     55 H131       -1.5290    3.6050    0.4380 hc        1 TPV      0.062200
     56 H132       -0.4750    2.8650   -0.8350 hc        1 TPV      0.062200
     57 H151        1.8970    3.7960   -1.1230 ha        1 TPV      0.132500
     58 H161        3.1520    5.9380   -1.3330 ha        1 TPV      0.131500
     59 H171        2.2580    8.0210   -0.2870 ha        1 TPV      0.131000
     60 H181        0.1020    7.9550    0.9670 ha        1 TPV      0.131500
     61 H191       -1.1560    5.8180    1.1780 ha        1 TPV      0.132500
     62 H201        4.0600   -0.3760    0.8180 hc        1 TPV      0.068700
     63 H211        4.7640   -0.1830   -1.6330 hc        1 TPV      0.060700
     64 H212        3.0590    0.2570   -2.0350 hc        1 TPV      0.060700
     65 H221        3.1930    2.1480   -0.3300 hc        1 TPV      0.032700
     66 H222        4.9320    1.7310   -0.0480 hc        1 TPV      0.032700
     67 H223        4.3930    2.3050   -1.6800 hc        1 TPV      0.032700
     68 H241        2.4180   -1.9090   -2.2680 ha        1 TPV      0.164000
     69 H251        2.6640   -4.3400   -2.7750 ha        1 TPV      0.140000
     70 H261        3.8040   -5.8600   -1.1990 ha        1 TPV      0.166000
     71 H281        4.8610   -4.7340    2.1140 hn        1 TPV      0.459800
     72 H291        4.5110   -2.4780    1.4670 ha        1 TPV      0.134000
     73 H351        8.3890   -4.1210   -2.2120 h4        1 TPV      0.050100
     74 H371       10.6170   -6.0810    0.9750 ha        1 TPV      0.165000
     75 H381        8.4020   -6.8640    1.9110 ha        1 TPV      0.182000
@<TRIPOS>BOND
     1    1    2 1   
     2    1    6 1   
     3    2    3 1   
     4    2    7 2   
     5    3    4 2   
     6    3   20 1   
     7    4    5 1   
     8    4    8 1   
     9    5    6 1   
    10    5   43 1   
    11    5   44 1   
    12    6    9 1   
    13    6   12 1   
    14    8   45 1   
    15    9   10 1   
    16    9   46 1   
    17    9   47 1   
    18   10   11 1   
    19   10   48 1   
    20   10   49 1   
    21   11   50 1   
    22   11   51 1   
    23   11   52 1   
    24   12   13 1   
    25   12   53 1   
    26   12   54 1   
    27   13   14 1   
    28   13   55 1   
    29   13   56 1   
    30   14   15 ar  
    31   14   19 ar  
    32   15   16 ar  
    33   15   57 1   
    34   16   17 ar  
    35   16   58 1   
    36   17   18 ar  
    37   17   59 1   
    38   18   19 ar  
    39   18   60 1   
    40   19   61 1   
    41   20   21 1   
    42   20   23 1   
    43   20   62 1   
    44   21   22 1   
    45   21   63 1   
    46   21   64 1   
    47   22   65 1   
    48   22   66 1   
    49   22   67 1   
    50   23   24 ar  
    51   23   29 ar  
    52   24   25 ar  
    53   24   68 1   
    54   25   26 ar  
    55   25   69 1   
    56   26   27 ar  
    57   26   70 1   
    58   27   28 1   
    59   27   29 ar  
    60   28   30 1   
    61   28   71 1   
    62   29   72 1   
    63   30   31 2   
    64   30   32 2   
    65   30   33 1   
    66   33   34 ar  
    67   33   38 ar  
    68   34   35 ar  
    69   35   36 ar  
    70   35   73 1   
    71   36   37 ar  
    72   36   39 1   
    73   37   38 ar  
    74   37   74 1   
    75   38   75 1   
    76   39   40 1   
    77   39   41 1   
    78   39   42 1   
@<TRIPOS>SUBSTRUCTURE
     1 TPV         1 TEMP              0 ****  ****    0 ROOT
