@<TRIPOS>MOLECULE
TPV
   75    78     1     0     0
SMALL
bcc


@<TRIPOS>ATOM
      1 O1         -0.3190    0.4960   -0.1270 os        1 TPV     -0.417900
      2 C2          0.8910   -0.0300   -0.5360 c         1 TPV      0.741800
      3 C3          1.9800   -0.2400    0.4270 ce        1 TPV     -0.226400
      4 C4          1.6840   -0.1370    1.7500 c2        1 TPV      0.126900
      5 C5          0.3120    0.1990    2.2240 c3        1 TPV     -0.116200
      6 C6         -0.4300    1.0560    1.1920 c3        1 TPV      0.170800
      7 O7          0.8650   -0.2970   -1.7400 o         1 TPV     -0.582500
      8 O8          2.6630   -0.3710    2.6810 oh        1 TPV     -0.484100
      9 C9         -1.9340    1.1020    1.4880 c3        1 TPV     -0.074400
     10 C10        -2.5960   -0.2580    1.5520 c3        1 TPV     -0.082400
     11 C11        -4.0980   -0.1320    1.5150 c3        1 TPV     -0.093100
     12 C12         0.1610    2.4740    1.1990 c3        1 TPV     -0.099400
     13 C13        -0.4660    3.3870    0.1630 c3        1 TPV     -0.037100
     14 C14         0.2870    4.6670    0.0430 ca        1 TPV     -0.081300
     15 C15         1.4950    4.7120   -0.6630 ca        1 TPV     -0.127500
     16 C16         2.1930    5.9110   -0.7860 ca        1 TPV     -0.128000
     17 C17         1.6930    7.0760   -0.2050 ca        1 TPV     -0.131000
     18 C18         0.4890    7.0380    0.4990 ca        1 TPV     -0.128000
     19 C19        -0.2110    5.8390    0.6230 ca        1 TPV     -0.127500
     20 C20         3.3570   -0.5880   -0.0460 c3        1 TPV      0.047800
     21 C21         3.8210    0.2680   -1.2220 c3        1 TPV     -0.085400
     22 C22         4.0970    1.6900   -0.8050 c3        1 TPV     -0.092100
     23 C23         3.4660   -2.0520   -0.3700 ca        1 TPV     -0.057300
     24 C24         2.9400   -2.5780   -1.5540 ca        1 TPV     -0.129000
     25 C25         3.0720   -3.9370   -1.8280 ca        1 TPV     -0.106000
     26 C26         3.7180   -4.7910   -0.9380 ca        1 TPV     -0.156000
     27 C27         4.2560   -4.2730    0.2590 ca        1 TPV      0.148600
     28 N28         4.9040   -5.1040    1.1970 nh        1 TPV     -0.776500
     29 C29         4.1200   -2.8950    0.5320 ca        1 TPV     -0.155000
     30 S30         5.7280   -6.4620    0.9350 sy        1 TPV      1.436800
     31 O31         6.0110   -7.0430    2.1900 o         1 TPV     -0.638300
     32 O32         5.1530   -7.2960   -0.0270 o         1 TPV     -0.638300
     33 C33         7.2630   -5.8960    0.3240 ca        1 TPV      0.169200
     34 N34         7.2510   -5.1480   -0.8060 nb        1 TPV     -0.587000
     35 C35         8.4230   -4.7360   -1.3050 ca        1 TPV      0.430200
     36 C36         9.6640   -5.0460   -0.7020 ca        1 TPV     -0.242600
     37 C37         9.6760   -5.8150    0.4590 ca        1 TPV     -0.062000
     38 C38         8.4530   -6.2470    0.9840 ca        1 TPV     -0.153300
     39 C39        10.9580   -4.5280   -1.3130 c3        1 TPV      0.691200
     40 F40        10.9220   -4.3790   -2.6770 f         1 TPV     -0.230300
     41 F41        11.3380   -3.2920   -0.8470 f         1 TPV     -0.230300
     42 F42        12.0520   -5.3260   -1.0840 f         1 TPV     -0.230300
     43 H51        -0.2420   -0.7640    2.3920 hc        1 TPV      0.080700
     44 H52         0.3460    0.7530    3.1980 hc        1 TPV      0.080700
     45 HO81        2.2850   -0.2250    3.5620 ho        1 TPV      0.426000
     46 H91        -2.4240    1.6980    0.6720 hc        1 TPV      0.058200
     47 H92        -2.0790    1.6480    2.4550 hc        1 TPV      0.058200
     48 H101       -2.2980   -0.7900    2.4940 hc        1 TPV      0.047200
     49 H102       -2.2460   -0.8810    0.6860 hc        1 TPV      0.047200
     50 H111       -4.5710   -1.1400    1.6020 hc        1 TPV      0.036367
     51 H112       -4.4630    0.5040    2.3570 hc        1 TPV      0.036367
     52 H113       -4.4320    0.3310    0.5540 hc        1 TPV      0.036367
     53 H121        0.0240    2.9120    2.2210 hc        1 TPV      0.053700
     54 H122        1.2640    2.3980    1.0000 hc        1 TPV      0.053700
     55 H131       -0.4800    2.8600   -0.8310 hc        1 TPV      0.062200
     56 H132       -1.5320    3.6010    0.4440 hc        1 TPV      0.062200
     57 H151        1.8900    3.7940   -1.1260 ha        1 TPV      0.132500
     58 H161        3.1400    5.9390   -1.3450 ha        1 TPV      0.131500
     59 H171        2.2440    8.0230   -0.3040 ha        1 TPV      0.131000
     60 H181        0.0900    7.9560    0.9560 ha        1 TPV      0.131500
     61 H191       -1.1620    5.8160    1.1750 ha        1 TPV      0.132500
     62 H201        4.0640   -0.3720    0.8140 hc        1 TPV      0.068700
     63 H211        3.0510    0.2500   -2.0380 hc        1 TPV      0.060700
     64 H212        4.7590   -0.1860   -1.6400 hc        1 TPV      0.060700
     65 H221        4.9300    1.7340   -0.0620 hc        1 TPV      0.032700
     66 H222        3.1890    2.1470   -0.3390 hc        1 TPV      0.032700
     67 H223        4.3830    2.3020   -1.6940 hc        1 TPV      0.032700
     68 H241        2.4100   -1.9170   -2.2600 ha        1 TPV      0.164000
     69 H251        2.6560   -4.3490   -2.7600 ha        1 TPV      0.140000
     70 H261        3.8050   -5.8630   -1.1840 ha        1 TPV      0.166000
     71 H281        4.8790   -4.7240    2.1190 hn        1 TPV      0.459800
     72 H291        4.5210   -2.4710    1.4670 ha        1 TPV      0.134000
     73 H351        8.3790   -4.1340   -2.2330 h4        1 TPV      0.050100
     74 H371       10.6270   -6.0800    0.9490 ha        1 TPV      0.165000
     75 H381        8.4170   -6.8570    1.9030 ha        1 TPV      0.182000
@<TRIPOS>BOND
     1    1    2 1   
     2    1    6 1   
     3    2    3 1   
     4    2    7 2   
     5    3    4 2   
     6    3   20 1   
     7    4    5 1   
     8    4    8 1   
     9    5    6 1   
    10    5   43 1   
    11    5   44 1   
    12    6    9 1   
    13    6   12 1   
    14    8   45 1   
    15    9   10 1   
    16    9   46 1   
    17    9   47 1   
    18   10   11 1   
    19   10   48 1   
    20   10   49 1   
    21   11   50 1   
    22   11   51 1   
    23   11   52 1   
    24   12   13 1   
    25   12   53 1   
    26   12   54 1   
    27   13   14 1   
    28   13   55 1   
    29   13   56 1   
    30   14   15 ar  
    31   14   19 ar  
    32   15   16 ar  
    33   15   57 1   
    34   16   17 ar  
    35   16   58 1   
    36   17   18 ar  
    37   17   59 1   
    38   18   19 ar  
    39   18   60 1   
    40   19   61 1   
    41   20   21 1   
    42   20   23 1   
    43   20   62 1   
    44   21   22 1   
    45   21   63 1   
    46   21   64 1   
    47   22   65 1   
    48   22   66 1   
    49   22   67 1   
    50   23   24 ar  
    51   23   29 ar  
    52   24   25 ar  
    53   24   68 1   
    54   25   26 ar  
    55   25   69 1   
    56   26   27 ar  
    57   26   70 1   
    58   27   28 1   
    59   27   29 ar  
    60   28   30 1   
    61   28   71 1   
    62   29   72 1   
    63   30   31 2   
    64   30   32 2   
    65   30   33 1   
    66   33   34 ar  
    67   33   38 ar  
    68   34   35 ar  
    69   35   36 ar  
    70   35   73 1   
    71   36   37 ar  
    72   36   39 1   
    73   37   38 ar  
    74   37   74 1   
    75   38   75 1   
    76   39   40 1   
    77   39   41 1   
    78   39   42 1   
@<TRIPOS>SUBSTRUCTURE
     1 TPV         1 TEMP              0 ****  ****    0 ROOT
