@<TRIPOS>MOLECULE
TPV
   75    78     1     0     0
SMALL
bcc


@<TRIPOS>ATOM
      1 O1         -0.8460    1.5490    4.3900 os        1 TPV     -0.416900
      2 C2         -0.4220    1.4440    3.0820 c         1 TPV      0.749800
      3 C3         -0.5850    0.1860    2.3440 ce        1 TPV     -0.300400
      4 C4         -1.4850   -0.7090    2.8330 c2        1 TPV      0.159900
      5 C5         -2.1910   -0.4860    4.1280 c3        1 TPV     -0.085200
      6 C6         -1.3370    0.3740    5.0640 c3        1 TPV      0.165800
      7 O7          0.0230    2.5220    2.6760 o         1 TPV     -0.591500
      8 O8         -1.8530   -1.8810    2.2390 oh        1 TPV     -0.485100
      9 C9         -2.1670    0.9040    6.2410 c3        1 TPV     -0.074400
     10 C10        -3.4050    1.6730    5.8320 c3        1 TPV     -0.083400
     11 C11        -3.9810    2.4320    7.0010 c3        1 TPV     -0.092100
     12 C12        -0.1490   -0.4540    5.5750 c3        1 TPV     -0.098400
     13 C13         0.7670    0.3230    6.5010 c3        1 TPV     -0.038100
     14 C14         2.0200   -0.4320    6.7790 ca        1 TPV     -0.081300
     15 C15         3.1430   -0.2660    5.9610 ca        1 TPV     -0.127500
     16 C16         4.3180   -0.9650    6.2300 ca        1 TPV     -0.128500
     17 C17         4.3820   -1.8370    7.3170 ca        1 TPV     -0.131000
     18 C18         3.2660   -2.0060    8.1360 ca        1 TPV     -0.128500
     19 C19         2.0900   -1.3070    7.8700 ca        1 TPV     -0.127500
     20 C20         0.1870   -0.0660    1.0870 c3        1 TPV      0.047800
     21 C21         1.5790    0.5610    1.0770 c3        1 TPV     -0.081400
     22 C22         2.4810   -0.0540    2.1150 c3        1 TPV     -0.093100
     23 C23        -0.5900    0.3700   -0.1220 ca        1 TPV     -0.067300
     24 C24        -0.9120    1.7180   -0.3140 ca        1 TPV     -0.129000
     25 C25        -1.6310    2.1020   -1.4430 ca        1 TPV     -0.099000
     26 C26        -2.0400    1.1670   -2.3890 ca        1 TPV     -0.157000
     27 C27        -1.7110   -0.1950   -2.2130 ca        1 TPV      0.161600
     28 N28        -2.1100   -1.1750   -3.1440 nh        1 TPV     -0.775500
     29 C29        -0.9840   -0.5810   -1.0660 ca        1 TPV     -0.177000
     30 S30        -2.4100   -1.0090   -4.7210 sy        1 TPV      1.437800
     31 O31        -2.9760   -2.2170   -5.1780 o         1 TPV     -0.635800
     32 O32        -3.0910    0.1680   -5.0400 o         1 TPV     -0.635800
     33 C33        -0.8180   -0.9350   -5.4290 ca        1 TPV      0.165200
     34 N34         0.0090    0.0540   -5.0100 nb        1 TPV     -0.589000
     35 C35         1.2220    0.1450   -5.5710 ca        1 TPV      0.430200
     36 C36         1.6710   -0.7450   -6.5740 ca        1 TPV     -0.241600
     37 C37         0.8210   -1.7600   -7.0040 ca        1 TPV     -0.061000
     38 C38        -0.4480   -1.8590   -6.4200 ca        1 TPV     -0.151300
     39 C39         3.0700   -0.5940   -7.1540 c3        1 TPV      0.691200
     40 F40         3.5340    0.6980   -7.1840 f         1 TPV     -0.229300
     41 F41         4.0350   -1.2870   -6.4650 f         1 TPV     -0.229300
     42 F42         3.1960   -1.0350   -8.4490 f         1 TPV     -0.229300
     43 H51        -2.4220   -1.4660    4.6200 hc        1 TPV      0.090700
     44 H52        -3.1650    0.0270    3.9040 hc        1 TPV      0.090700
     45 HO81       -1.5050   -1.9020    1.3320 ho        1 TPV      0.435000
     46 H91        -1.5070    1.5840    6.8450 hc        1 TPV      0.058200
     47 H92        -2.4490    0.0300    6.8830 hc        1 TPV      0.058200
     48 H101       -4.1830    0.9690    5.4340 hc        1 TPV      0.047200
     49 H102       -3.1400    2.3880    5.0090 hc        1 TPV      0.047200
     50 H111       -4.9150    2.9620    6.6920 hc        1 TPV      0.036033
     51 H112       -4.2290    1.7380    7.8400 hc        1 TPV      0.036033
     52 H113       -3.2540    3.1920    7.3760 hc        1 TPV      0.036033
     53 H121       -0.5470   -1.3570    6.1070 hc        1 TPV      0.055200
     54 H122        0.4400   -0.8080    4.6870 hc        1 TPV      0.055200
     55 H131        1.0100    1.3140    6.0300 hc        1 TPV      0.060700
     56 H132        0.2360    0.5330    7.4680 hc        1 TPV      0.060700
     57 H151        3.0960    0.4230    5.1030 ha        1 TPV      0.132500
     58 H161        5.1980   -0.8270    5.5830 ha        1 TPV      0.131000
     59 H171        5.3100   -2.3870    7.5290 ha        1 TPV      0.131000
     60 H181        3.3140   -2.6910    8.9950 ha        1 TPV      0.131000
     61 H191        1.2130   -1.4400    8.5210 ha        1 TPV      0.132500
     62 H201        0.3540   -1.1860    1.0190 hc        1 TPV      0.040700
     63 H211        2.0230    0.4070    0.0580 hc        1 TPV      0.064200
     64 H212        1.5000    1.6690    1.2410 hc        1 TPV      0.064200
     65 H221        3.4770    0.4510    2.1040 hc        1 TPV      0.035033
     66 H222        2.0380    0.0600    3.1360 hc        1 TPV      0.035033
     67 H223        2.6340   -1.1430    1.9190 hc        1 TPV      0.035033
     68 H241       -0.5960    2.4650    0.4340 ha        1 TPV      0.168000
     69 H251       -1.8860    3.1630   -1.5920 ha        1 TPV      0.143000
     70 H261       -2.6110    1.5050   -3.2700 ha        1 TPV      0.170000
     71 H281       -2.1360   -2.0900   -2.7440 hn        1 TPV      0.457800
     72 H291       -0.7150   -1.6380   -0.9140 ha        1 TPV      0.123000
     73 H351        1.8700    0.9690   -5.2130 h4        1 TPV      0.051100
     74 H371        1.1380   -2.4650   -7.7890 ha        1 TPV      0.166000
     75 H381       -1.1510   -2.6510   -6.7300 ha        1 TPV      0.183000
@<TRIPOS>BOND
     1    1    2 1   
     2    1    6 1   
     3    2    3 1   
     4    2    7 2   
     5    3    4 2   
     6    3   20 1   
     7    4    5 1   
     8    4    8 1   
     9    5    6 1   
    10    5   43 1   
    11    5   44 1   
    12    6    9 1   
    13    6   12 1   
    14    8   45 1   
    15    9   10 1   
    16    9   46 1   
    17    9   47 1   
    18   10   11 1   
    19   10   48 1   
    20   10   49 1   
    21   11   50 1   
    22   11   51 1   
    23   11   52 1   
    24   12   13 1   
    25   12   53 1   
    26   12   54 1   
    27   13   14 1   
    28   13   55 1   
    29   13   56 1   
    30   14   15 ar  
    31   14   19 ar  
    32   15   16 ar  
    33   15   57 1   
    34   16   17 ar  
    35   16   58 1   
    36   17   18 ar  
    37   17   59 1   
    38   18   19 ar  
    39   18   60 1   
    40   19   61 1   
    41   20   21 1   
    42   20   23 1   
    43   20   62 1   
    44   21   22 1   
    45   21   63 1   
    46   21   64 1   
    47   22   65 1   
    48   22   66 1   
    49   22   67 1   
    50   23   24 ar  
    51   23   29 ar  
    52   24   25 ar  
    53   24   68 1   
    54   25   26 ar  
    55   25   69 1   
    56   26   27 ar  
    57   26   70 1   
    58   27   28 1   
    59   27   29 ar  
    60   28   30 1   
    61   28   71 1   
    62   29   72 1   
    63   30   31 2   
    64   30   32 2   
    65   30   33 1   
    66   33   34 ar  
    67   33   38 ar  
    68   34   35 ar  
    69   35   36 ar  
    70   35   73 1   
    71   36   37 ar  
    72   36   39 1   
    73   37   38 ar  
    74   37   74 1   
    75   38   75 1   
    76   39   40 1   
    77   39   41 1   
    78   39   42 1   
@<TRIPOS>SUBSTRUCTURE
     1 TPV         1 TEMP              0 ****  ****    0 ROOT
