@<TRIPOS>MOLECULE
TPV
   76    79     1     0     0
SMALL
bcc


@<TRIPOS>ATOM
      1 O1         -0.1860    0.2770   -0.1300 os        1 TPV     -0.400900
      2 C2          0.9850   -0.3580   -0.4650 c         1 TPV      0.743800
      3 C3          2.0370   -0.5780    0.5380 ce        1 TPV     -0.255400
      4 C4          1.7180   -0.3720    1.8440 c2        1 TPV      0.147900
      5 C5          0.3720    0.1160    2.2540 c3        1 TPV     -0.121200
      6 C6         -0.2790    0.9480    1.1430 c3        1 TPV      0.169800
      7 O7          0.9790   -0.7290   -1.6430 o         1 TPV     -0.596500
      8 O8          2.6430   -0.6560    2.8150 oh        1 TPV     -0.500100
      9 C9         -1.7810    1.1320    1.3900 c3        1 TPV     -0.077400
     10 C10        -2.5510   -0.1620    1.5480 c3        1 TPV     -0.081400
     11 C11        -4.0370    0.0810    1.4630 c3        1 TPV     -0.095100
     12 C12         0.4230    2.3110    1.0580 c3        1 TPV     -0.099400
     13 C13        -0.0960    3.1840   -0.0690 c3        1 TPV     -0.035100
     14 C14         0.7560    4.3930   -0.2490 ca        1 TPV     -0.088300
     15 C15         1.9880    4.2960   -0.9060 ca        1 TPV     -0.128000
     16 C16         2.7780    5.4300   -1.0900 ca        1 TPV     -0.125500
     17 C17         2.3450    6.6690   -0.6170 ca        1 TPV     -0.125000
     18 C18         1.1180    6.7710    0.0380 ca        1 TPV     -0.125500
     19 C19         0.3260    5.6380    0.2220 ca        1 TPV     -0.128000
     20 C20         3.4010   -1.0180    0.1110 c3        1 TPV      0.044800
     21 C21         3.9530   -0.1890   -1.0480 c3        1 TPV     -0.083400
     22 C22         4.3670    1.1890   -0.6000 c3        1 TPV     -0.096100
     23 C23         3.4210   -2.4840   -0.2250 ca        1 TPV     -0.046300
     24 C24         2.9380   -2.9620   -1.4510 ca        1 TPV     -0.063000
     25 C25         2.9750   -4.3240   -1.7420 ca        1 TPV     -0.104000
     26 C26         3.4920   -5.2370   -0.8260 ca        1 TPV     -0.101000
     27 C27         3.9870   -4.7580    0.4020 ca        1 TPV     -0.065400
     28 N28         4.5160   -5.7010    1.3800 n4        1 TPV     -0.566300
     29 C29         3.9390   -3.3860    0.7090 ca        1 TPV     -0.111000
     30 S30         6.0160   -6.6870    0.8400 sy        1 TPV      1.377800
     31 O31         6.3960   -7.2250    2.0580 o         1 TPV     -0.557300
     32 O32         5.5270   -7.4910   -0.1600 o         1 TPV     -0.557300
     33 C33         7.0640   -5.4780    0.3860 ca        1 TPV      0.039200
     34 N34         6.8010   -4.8240   -0.7890 nb        1 TPV     -0.569000
     35 C35         7.6700   -3.9100   -1.2130 ca        1 TPV      0.438200
     36 C36         8.8530   -3.5800   -0.4960 ca        1 TPV     -0.184600
     37 C37         9.1200   -4.2320    0.7000 ca        1 TPV     -0.063000
     38 C38         8.2090   -5.2000    1.1530 ca        1 TPV     -0.099300
     39 C39         9.8110   -2.5260   -1.0600 c3        1 TPV      0.690200
     40 F40         9.1770   -1.5250   -1.7500 f         1 TPV     -0.210633
     41 F41        10.5510   -1.8870   -0.1000 f         1 TPV     -0.210633
     42 F42        10.7280   -3.0430   -1.9380 f         1 TPV     -0.210633
     43 H51         0.4360    0.7420    3.1830 hc        1 TPV      0.087700
     44 H52        -0.2670   -0.7810    2.4860 hc        1 TPV      0.087700
     45 HO81        2.3110   -0.3170    3.6620 ho        1 TPV      0.438000
     46 H91        -2.2030    1.6940    0.5130 hc        1 TPV      0.066700
     47 H92        -1.9030    1.7690    2.3040 hc        1 TPV      0.066700
     48 H101       -2.3140   -0.6350    2.5370 hc        1 TPV      0.041700
     49 H102       -2.2390   -0.8800    0.7430 hc        1 TPV      0.041700
     50 H111       -4.3150    0.4880    0.4610 hc        1 TPV      0.041033
     51 H112       -4.3630    0.8120    2.2420 hc        1 TPV      0.041033
     52 H113       -4.5920   -0.8750    1.6210 hc        1 TPV      0.041033
     53 H121        1.5230    2.1360    0.9080 hc        1 TPV      0.053700
     54 H122        0.2880    2.8410    2.0360 hc        1 TPV      0.053700
     55 H131       -1.1520    3.4950    0.1510 hc        1 TPV      0.063700
     56 H132       -0.1150    2.5870   -1.0210 hc        1 TPV      0.063700
     57 H151        2.3290    3.3210   -1.2860 ha        1 TPV      0.129500
     58 H161        3.7420    5.3480   -1.6130 ha        1 TPV      0.135000
     59 H171        2.9670    7.5640   -0.7650 ha        1 TPV      0.137000
     60 H181        0.7710    7.7470    0.4080 ha        1 TPV      0.135000
     61 H191       -0.6450    5.7270    0.7320 ha        1 TPV      0.129500
     62 H201        4.0940   -0.8560    0.9930 hc        1 TPV      0.070700
     63 H211        3.1850   -0.1090   -1.8630 hc        1 TPV      0.057700
     64 H212        4.8420   -0.7230   -1.4780 hc        1 TPV      0.057700
     65 H221        4.7230    1.7840   -1.4760 hc        1 TPV      0.042033
     66 H222        5.1920    1.1360    0.1500 hc        1 TPV      0.042033
     67 H223        3.5050    1.7300   -0.1360 hc        1 TPV      0.042033
     68 H241        2.5040   -2.2490   -2.1800 ha        1 TPV      0.198000
     69 H251        2.5850   -4.6900   -2.7070 ha        1 TPV      0.171000
     70 H261        3.5180   -6.3110   -1.0790 ha        1 TPV      0.168000
     71 H281        4.7170   -5.1950    2.2440 hn        1 TPV      0.456300
     72 H291        4.2920   -3.0060    1.6820 ha        1 TPV      0.148000
     73 H351        7.4280   -3.4010   -2.1710 h4        1 TPV      0.077100
     74 H371       10.0280   -3.9980    1.2860 ha        1 TPV      0.195000
     75 H381        8.4030   -5.7410    2.0980 ha        1 TPV      0.192000
     76 H282        3.7610   -6.3600    1.5990 hn        1 TPV      0.456300
@<TRIPOS>BOND
     1    1    2 1   
     2    1    6 1   
     3    2    3 1   
     4    2    7 2   
     5    3    4 2   
     6    3   20 1   
     7    4    5 1   
     8    4    8 1   
     9    5    6 1   
    10    5   43 1   
    11    5   44 1   
    12    6    9 1   
    13    6   12 1   
    14    8   45 1   
    15    9   10 1   
    16    9   46 1   
    17    9   47 1   
    18   10   11 1   
    19   10   48 1   
    20   10   49 1   
    21   11   50 1   
    22   11   51 1   
    23   11   52 1   
    24   12   13 1   
    25   12   53 1   
    26   12   54 1   
    27   13   14 1   
    28   13   55 1   
    29   13   56 1   
    30   14   15 ar  
    31   14   19 ar  
    32   15   16 ar  
    33   15   57 1   
    34   16   17 ar  
    35   16   58 1   
    36   17   18 ar  
    37   17   59 1   
    38   18   19 ar  
    39   18   60 1   
    40   19   61 1   
    41   20   21 1   
    42   20   23 1   
    43   20   62 1   
    44   21   22 1   
    45   21   63 1   
    46   21   64 1   
    47   22   65 1   
    48   22   66 1   
    49   22   67 1   
    50   23   24 ar  
    51   23   29 ar  
    52   24   25 ar  
    53   24   68 1   
    54   25   26 ar  
    55   25   69 1   
    56   26   27 ar  
    57   26   70 1   
    58   27   28 1   
    59   27   29 ar  
    60   28   30 1   
    61   28   71 1   
    62   28   76 1   
    63   29   72 1   
    64   30   31 2   
    65   30   32 2   
    66   30   33 1   
    67   33   34 ar  
    68   33   38 ar  
    69   34   35 ar  
    70   35   36 ar  
    71   35   73 1   
    72   36   37 ar  
    73   36   39 1   
    74   37   38 ar  
    75   37   74 1   
    76   38   75 1   
    77   39   40 1   
    78   39   41 1   
    79   39   42 1   
@<TRIPOS>SUBSTRUCTURE
     1 TPV         1 TEMP              0 ****  ****    0 ROOT
