@<TRIPOS>MOLECULE
TPW
   42    43     1     0     0
SMALL
bcc


@<TRIPOS>ATOM
      1 C2A        -0.0810   10.1570    4.3510 c3        1 TPW     -0.096400
      2 C35         1.2460    5.2120    1.8190 c3        1 TPW      0.073100
      3 C2         -1.1670    4.6390    1.2030 cc        1 TPW     -0.151100
      4 S1         -2.0410    3.4040    0.4790 ss        1 TPW     -0.117800
      5 C5         -0.6700    2.4440    0.1840 cc        1 TPW     -0.032400
      6 C4          0.4670    3.0690    0.6530 cd        1 TPW     -0.134300
      7 C4A         1.8310    2.5270    0.5770 c3        1 TPW     -0.025800
      8 C5A        -0.7810    1.1670   -0.5380 c3        1 TPW     -0.056100
      9 C5B        -0.7400   -0.0750    0.3690 c3        1 TPW      0.211400
     10 O5G        -1.1780   -1.1830   -0.3400 os        1 TPW     -0.587200
     11 P1         -0.0800   -2.4140   -0.6100 p5        1 TPW      1.598800
     12 O11        -1.0730   -3.6930   -0.5800 os        1 TPW     -0.826800
     13 O12         0.8330   -2.4010    0.5530 o         1 TPW     -0.888000
     14 O13         0.3970   -2.2140   -1.9940 o         1 TPW     -0.888000
     15 P2         -1.9990   -5.0470   -0.5490 p5        1 TPW      1.595800
     16 O21        -1.1330   -6.2360   -0.7030 o         1 TPW     -0.888500
     17 O22        -3.0590   -4.9860    0.4780 o         1 TPW     -0.888500
     18 O23        -2.6980   -4.7920   -2.0140 oh        1 TPW     -0.808400
     19 N1'         0.2880    7.7390    4.4350 n2        1 TPW     -0.595200
     20 C2'         0.2340    8.8590    3.6300 cc        1 TPW      0.545200
     21 N3'         0.4240    8.9370    2.3060 nd        1 TPW     -0.797000
     22 C4'         0.7090    7.7340    1.6050 cd        1 TPW      0.718600
     23 N4'         0.8570    7.7950    0.2970 n2        1 TPW     -0.939100
     24 C5'         0.8220    6.5000    2.4130 cd        1 TPW     -0.449800
     25 C6'         0.5900    6.5950    3.7760 cc        1 TPW      0.076000
     26 C3          0.1770    4.3600    1.2470 cd        1 TPW     -0.085300
     27 H2A1       -0.0970   11.0240    3.6490 hc        1 TPW      0.021367
     28 H2A2       -1.0800   10.0770    4.8430 hc        1 TPW      0.021367
     29 H2A3        0.6910   10.3480    5.1360 hc        1 TPW      0.021367
     30 H351        2.0150    5.3900    1.0140 hc        1 TPW      0.028200
     31 H352        1.7670    4.5990    2.6110 hc        1 TPW      0.028200
     32 H2         -1.6230    5.5520    1.5820 h4        1 TPW      0.171000
     33 H5A1       -1.7460    1.1360   -1.1130 hc        1 TPW      0.054200
     34 H5A2        0.0500    1.0890   -1.2900 hc        1 TPW      0.054200
     35 H4A1        2.2920    2.4980    1.5970 hc        1 TPW      0.038033
     36 H4A2        1.8270    1.4880    0.1600 hc        1 TPW      0.038033
     37 H4A3        2.4700    3.1760   -0.0730 hc        1 TPW      0.038033
     38 H5B1        0.3020   -0.2350    0.7640 h1        1 TPW      0.023700
     39 H5B2       -1.4370    0.0950    1.2380 h1        1 TPW      0.023700
     40 H6'         0.6480    5.6950    4.4160 h4        1 TPW      0.109000
     41 H4'1       -2.1640   -4.2680   -2.5960 ho        1 TPW      0.423000
     42 H4'2        1.0290    6.8930   -0.0960 hn        1 TPW      0.344400
@<TRIPOS>BOND
     1    1   20 1   
     2    1   27 1   
     3    1   28 1   
     4    1   29 1   
     5    2   24 1   
     6    2   26 1   
     7    2   30 1   
     8    2   31 1   
     9    3    4 1   
    10    3   26 2   
    11    3   32 1   
    12    4    5 1   
    13    5    6 2   
    14    5    8 1   
    15    6    7 1   
    16    6   26 1   
    17    7   35 1   
    18    7   36 1   
    19    7   37 1   
    20    8    9 1   
    21    8   33 1   
    22    8   34 1   
    23    9   10 1   
    24    9   38 1   
    25    9   39 1   
    26   10   11 1   
    27   11   12 1   
    28   11   13 1   
    29   11   14 1   
    30   12   15 1   
    31   15   16 1   
    32   15   17 1   
    33   15   18 1   
    34   18   41 1   
    35   19   20 1   
    36   19   25 1   
    37   20   21 2   
    38   21   22 1   
    39   22   23 2   
    40   22   24 1   
    41   23   42 1   
    42   24   25 2   
    43   25   40 1   
@<TRIPOS>SUBSTRUCTURE
     1 TPW         1 TEMP              0 ****  ****    0 ROOT
