@<TRIPOS>MOLECULE
TPW
   42    44     1     0     0
SMALL
bcc


@<TRIPOS>ATOM
      1 C2A         0.0000    0.0000    0.0000 c3        1 TPW     -0.040000
      2 C35         5.6610   -0.0040    0.0340 c3        1 TPW     -0.391000
      3 C2          6.8050    0.3150    2.3490 c2        1 TPW     -0.465000
      4 S1          7.2850   -0.4210    3.6330 ss        1 TPW      0.572000
      5 C5          6.9490   -1.9300    3.4620 c2        1 TPW     -0.338000
      6 C4          6.3110   -2.1010    2.1690 c2        1 TPW     -0.185000
      7 C4A         5.8120   -3.4210    1.5860 c3        1 TPW     -0.023000
      8 C5A         7.1570   -3.0200    4.5120 c3        1 TPW     -0.040000
      9 C5B         8.5460   -2.8730    5.1300 c3        1 TPW      0.146000
     10 O5G         9.3260   -3.9840    4.7930 os        1 TPW     -0.657000
     11 P1         10.3250   -4.6210    5.9400 p5        1 TPW      1.396000
     12 O11        11.1180   -5.9230    5.3160 os        1 TPW     -0.954000
     13 O12         9.5080   -5.0530    7.1340 o         1 TPW     -0.694500
     14 O13        11.3290   -3.5770    6.3680 o         1 TPW     -0.694500
     15 P2         12.6570   -6.3410    5.7330 p5        1 TPW      1.119500
     16 O21        13.5930   -5.2010    5.4130 o         1 TPW     -0.653167
     17 O22        13.0740   -7.5680    4.9570 o         1 TPW     -0.653167
     18 O23        12.7140   -6.6380    7.2130 o         1 TPW     -0.653167
     19 N1'         2.0920    0.0000    1.2040 n2        1 TPW     -0.110000
     20 C2'         1.4910    0.0000    0.0000 c2        1 TPW     -0.162000
     21 N3'         2.0920   -0.0010   -1.2050 n2        1 TPW     -0.142000
     22 C4'         3.4410   -0.0020   -1.1690 c2        1 TPW     -0.057000
     23 N4'         4.1400   -0.0030   -2.4000 nv        1 TPW     -0.018000
     24 C5'         4.1430   -0.0020   -0.0020 c2        1 TPW     -0.166000
     25 C6'         3.4410   -0.0010    1.1670 c2        1 TPW     -0.090000
     26 C3          6.2200   -0.6730    1.4620 c3        1 TPW     -0.097000
     27 H2A1       -0.3610    0.8930   -0.4960 hc        1 TPW      0.030667
     28 H2A2       -0.3610   -0.8760   -0.5250 hc        1 TPW      0.030667
     29 H2A3       -0.3610   -0.0160    1.0210 hc        1 TPW      0.030667
     30 H351        6.0450   -0.3080   -0.9320 hc        1 TPW      0.070000
     31 H352        6.0040   -0.6970    0.7930 DU        1 TPW      0.213000
     32 H2          6.8930    1.3770    2.1510 h4        1 TPW      0.169000
     33 H5A1        7.0710   -3.9930    4.0440 hc        1 TPW      0.057500
     34 H5A2        6.4050   -2.9240    5.2860 hc        1 TPW      0.057500
     35 H4A1        6.5350   -4.2020    1.7900 hc        1 TPW      0.039667
     36 H4A2        4.8630   -3.6800    2.0390 hc        1 TPW      0.039667
     37 H4A3        5.6850   -3.3170    0.5150 hc        1 TPW      0.039667
     38 H5B1        8.4570   -2.8090    6.2080 h1        1 TPW      0.018000
     39 H5B2        9.0160   -1.9740    4.7520 h1        1 TPW      0.018000
     40 H6'         4.0080   -0.0460    2.0890 h4        1 TPW      0.133000
     41 H4'1        4.8820   -0.6570   -2.5530 hn        1 TPW      0.051500
     42 H4'2        3.8650    0.6210   -3.1330 hn        1 TPW      0.051500
@<TRIPOS>BOND
     1    1   20 1   
     2    1   27 1   
     3    1   28 1   
     4    1   29 1   
     5    2   24 1   
     6    2   26 1   
     7    2   30 1   
     8    2   31 1   
     9    3    4 1   
    10    3   26 1   
    11    3   32 1   
    12    4    5 1   
    13    5    6 1   
    14    5    8 1   
    15    6    7 1   
    16    6   26 1   
    17    7   35 1   
    18    7   36 1   
    19    7   37 1   
    20    8    9 1   
    21    8   33 1   
    22    8   34 1   
    23    9   10 1   
    24    9   38 1   
    25    9   39 1   
    26   10   11 1   
    27   11   12 1   
    28   11   13 1   
    29   11   14 1   
    30   12   15 1   
    31   15   16 1   
    32   15   17 1   
    33   15   18 1   
    34   19   20 1   
    35   19   25 1   
    36   20   21 1   
    37   21   22 1   
    38   22   23 1   
    39   22   24 1   
    40   23   41 1   
    41   23   42 1   
    42   24   25 1   
    43   25   40 1   
    44   26   31 1   
@<TRIPOS>SUBSTRUCTURE
     1 TPW         1 TEMP              0 ****  ****    0 ROOT
