@<TRIPOS>MOLECULE
TPX
   40    40     1     0     0
SMALL
bcc


@<TRIPOS>ATOM
      1 C           0.2160   -0.3850   -0.3110 c         1 TPX      0.567900
      2 CA          1.5460    0.3230   -0.1910 c3        1 TPX     -0.179700
      3 CB          2.1470    0.0590    1.1880 c3        1 TPX     -0.166700
      4 CC          3.5270    0.6570    1.2960 c         1 TPX      0.625100
      5 CD          1.3460    1.8150   -0.4180 c3        1 TPX     -0.079400
      6 CE          0.8730    2.1050   -1.8200 c3        1 TPX     -0.097100
      7 O           0.0320   -1.3260   -1.0810 o         1 TPX     -0.516100
      8 OA          3.9880    1.0380    2.5260 oh        1 TPX     -0.581100
      9 OB          4.3470    0.8230    0.3940 o         1 TPX     -0.483000
     10 CK          2.2560   -1.4620    1.4360 c3        1 TPX      0.226800
     11 N           2.7820   -1.8020    2.7210 n3        1 TPX     -0.924100
     12 OC          2.4470   -2.1270    5.1350 o         1 TPX     -0.654800
     13 OD          0.5600   -2.3660    3.6560 o         1 TPX     -0.654800
     14 S           1.9400   -2.5580    3.8900 sy        1 TPX      1.517200
     15 CF          2.3230   -4.1740    3.6690 ca        1 TPX     -0.407500
     16 CG1         3.4020   -4.7560    4.3490 ca        1 TPX     -0.007500
     17 CG2         1.5540   -4.9870    2.8250 ca        1 TPX     -0.007500
     18 CH1         3.7100   -6.1020    4.1860 ca        1 TPX     -0.159500
     19 CH2         1.8540   -6.3330    2.6560 ca        1 TPX     -0.159500
     20 CI          2.9390   -6.9040    3.3350 ca        1 TPX     -0.001300
     21 CJ          3.2550   -8.3410    3.1680 c3        1 TPX     -0.070800
     22 H          -0.5920    0.0100    0.3440 h4        1 TPX      0.008200
     23 HA          2.2570   -0.0720   -0.9730 hc        1 TPX      0.101700
     24 HB          1.4800    0.5240    1.9680 hc        1 TPX      0.078700
     25 HD2         0.6040    2.2130    0.3240 hc        1 TPX      0.052700
     26 HD1         2.3230    2.3400   -0.2370 hc        1 TPX      0.052700
     27 HE3         0.7020    3.2010   -1.9470 hc        1 TPX      0.042367
     28 HE2         1.6340    1.7770   -2.5690 hc        1 TPX      0.042367
     29 HE1        -0.0840    1.5690   -2.0340 hc        1 TPX      0.042367
     30 HK2         1.2210   -1.9060    1.3350 h1        1 TPX      0.073700
     31 HK1         2.9050   -1.8990    0.6210 h1        1 TPX      0.073700
     32 HN1         3.7400   -1.5670    2.8380 hn        1 TPX      0.452800
     33 HG1         4.0030   -4.1350    5.0380 ha        1 TPX      0.153000
     34 HG2         0.6860   -4.5480    2.3000 ha        1 TPX      0.153000
     35 HH1         4.5610   -6.5400    4.7300 ha        1 TPX      0.144500
     36 HH2         1.2380   -6.9550    1.9890 ha        1 TPX      0.144500
     37 HJ3         2.9640   -8.7000    2.1510 hc        1 TPX      0.055700
     38 HJ2         2.6890   -8.9410    3.9270 hc        1 TPX      0.055700
     39 HJ1         4.3460   -8.5320    3.3150 hc        1 TPX      0.055700
     40 H2          3.3020    0.9180    3.1970 ho        1 TPX      0.433000
@<TRIPOS>BOND
     1    1    2 1   
     2    1    7 2   
     3    1   22 1   
     4    2    3 1   
     5    2    5 1   
     6    2   23 1   
     7    3    4 1   
     8    3   10 1   
     9    3   24 1   
    10    4    8 1   
    11    4    9 2   
    12    5    6 1   
    13    5   25 1   
    14    5   26 1   
    15    6   27 1   
    16    6   28 1   
    17    6   29 1   
    18    8   40 1   
    19   10   11 1   
    20   10   30 1   
    21   10   31 1   
    22   11   14 1   
    23   11   32 1   
    24   12   14 2   
    25   13   14 2   
    26   14   15 1   
    27   15   16 ar  
    28   15   17 ar  
    29   16   18 ar  
    30   16   33 1   
    31   17   19 ar  
    32   17   34 1   
    33   18   20 ar  
    34   18   35 1   
    35   19   20 ar  
    36   19   36 1   
    37   20   21 1   
    38   21   37 1   
    39   21   38 1   
    40   21   39 1   
@<TRIPOS>SUBSTRUCTURE
     1 TPX         1 TEMP              0 ****  ****    0 ROOT
