@<TRIPOS>MOLECULE
TPX
   40    40     1     0     0
SMALL
bcc


@<TRIPOS>ATOM
      1 C           0.2630   -0.3480   -0.3350 c         1 TPX      0.567900
      2 CA          1.6030    0.3370   -0.1980 c3        1 TPX     -0.179700
      3 CB          2.1840    0.0600    1.1870 c3        1 TPX     -0.166700
      4 CC          3.5730    0.6330    1.3110 c         1 TPX      0.625100
      5 CD          1.4310    1.8340   -0.4240 c3        1 TPX     -0.079400
      6 CE          0.9790    2.1350   -1.8290 c3        1 TPX     -0.097100
      7 O           0.0700   -1.2810   -1.1110 o         1 TPX     -0.516100
      8 OA          4.0280    1.0010    2.5470 oh        1 TPX     -0.581100
      9 OB          4.4050    0.7860    0.4180 o         1 TPX     -0.483000
     10 CK          2.2630   -1.4640    1.4320 c3        1 TPX      0.226800
     11 N           2.7690   -1.8170    2.7210 n7        1 TPX     -0.924100
     12 OC          2.3970   -2.1320    5.1310 o         1 TPX     -0.654800
     13 OD          0.5280   -2.3520    3.6270 o         1 TPX     -0.654800
     14 S           1.9020   -2.5600    3.8800 sy        1 TPX      1.517200
     15 CF          2.2700   -4.1810    3.6670 ca        1 TPX     -0.407500
     16 CG1         3.3330   -4.7730    4.3620 ca        1 TPX     -0.008000
     17 CG2         1.5020   -4.9860    2.8160 ca        1 TPX     -0.008000
     18 CH1         3.6280   -6.1230    4.2070 ca        1 TPX     -0.159500
     19 CH2         1.7890   -6.3360    2.6530 ca        1 TPX     -0.159500
     20 CI          2.8580   -6.9180    3.3470 ca        1 TPX     -0.001300
     21 CJ          3.1590   -8.3590    3.1880 c3        1 TPX     -0.070800
     22 H          -0.5450    0.0590    0.3130 h4        1 TPX      0.008200
     23 HA          2.3160   -0.0680   -0.9740 hc        1 TPX      0.101700
     24 HB          1.5170    0.5340    1.9600 hc        1 TPX      0.078700
     25 HD2         0.6890    2.2420    0.3120 hc        1 TPX      0.052700
     26 HD1         2.4150    2.3400   -0.2300 hc        1 TPX      0.052700
     27 HE3         0.0150    1.6160   -2.0550 hc        1 TPX      0.042367
     28 HE2         1.7420    1.7950   -2.5710 hc        1 TPX      0.042367
     29 HE1         0.8290    3.2340   -1.9560 hc        1 TPX      0.042367
     30 HK2         1.2210   -1.8880    1.3190 h1        1 TPX      0.073700
     31 HK1         2.9120   -1.9110    0.6230 h1        1 TPX      0.073700
     32 HN1         3.7300   -1.5990    2.8480 hn        1 TPX      0.452800
     33 HG1         3.9320   -4.1580    5.0570 ha        1 TPX      0.153000
     34 HG2         0.6460   -4.5390    2.2790 ha        1 TPX      0.153000
     35 HH1         4.4660   -6.5700    4.7610 ha        1 TPX      0.144500
     36 HH2         1.1740   -6.9520    1.9800 ha        1 TPX      0.144500
     37 HJ3         2.5730   -8.9510    3.9370 hc        1 TPX      0.055700
     38 HJ2         4.2460   -8.5630    3.3530 hc        1 TPX      0.055700
     39 HJ1         2.8820   -8.7160    2.1650 hc        1 TPX      0.055700
     40 H2          3.3330    0.8920    3.2110 ho        1 TPX      0.433000
@<TRIPOS>BOND
     1    1    2 1   
     2    1    7 2   
     3    1   22 1   
     4    2    3 1   
     5    2    5 1   
     6    2   23 1   
     7    3    4 1   
     8    3   10 1   
     9    3   24 1   
    10    4    8 1   
    11    4    9 2   
    12    5    6 1   
    13    5   25 1   
    14    5   26 1   
    15    6   27 1   
    16    6   28 1   
    17    6   29 1   
    18    8   40 1   
    19   10   11 1   
    20   10   30 1   
    21   10   31 1   
    22   11   14 1   
    23   11   32 1   
    24   12   14 2   
    25   13   14 2   
    26   14   15 1   
    27   15   16 ar  
    28   15   17 ar  
    29   16   18 ar  
    30   16   33 1   
    31   17   19 ar  
    32   17   34 1   
    33   18   20 ar  
    34   18   35 1   
    35   19   20 ar  
    36   19   36 1   
    37   20   21 1   
    38   21   37 1   
    39   21   38 1   
    40   21   39 1   
@<TRIPOS>SUBSTRUCTURE
     1 TPX         1 TEMP              0 ****  ****    0 ROOT
