@<TRIPOS>MOLECULE
TPX
   40    40     1     0     0
SMALL
bcc


@<TRIPOS>ATOM
      1 C           0.2230   -0.3390   -0.2930 c         1 TPX      0.567900
      2 CA          1.5650    0.3460   -0.1770 c3        1 TPX     -0.179700
      3 CB          2.1710    0.0620    1.1960 c3        1 TPX     -0.166700
      4 CC          3.5620    0.6350    1.2980 c         1 TPX      0.625100
      5 CD          1.3890    1.8440   -0.3920 c3        1 TPX     -0.079400
      6 CE          0.9110    2.1520   -1.7880 c3        1 TPX     -0.097100
      7 O           0.0160   -1.2670   -1.0730 o         1 TPX     -0.516100
      8 OA          4.0390    0.9970    2.5270 oh        1 TPX     -0.581100
      9 OB          4.3780    0.7930    0.3910 o         1 TPX     -0.483000
     10 CK          2.2550   -1.4630    1.4320 c3        1 TPX      0.225800
     11 N           2.7840   -1.8220    2.7100 n3        1 TPX     -0.924100
     12 OC          2.4540   -2.1460    5.1240 o         1 TPX     -0.654800
     13 OD          0.5600   -2.3650    3.6520 o         1 TPX     -0.654800
     14 S           1.9390   -2.5710    3.8810 sy        1 TPX      1.517200
     15 CF          2.3060   -4.1900    3.6560 ca        1 TPX     -0.407500
     16 CG1         3.3820   -4.7830    4.3310 ca        1 TPX     -0.008000
     17 CG2         1.5250   -4.9940    2.8140 ca        1 TPX     -0.008000
     18 CH1         3.6770   -6.1310    4.1650 ca        1 TPX     -0.159500
     19 CH2         1.8120   -6.3430    2.6420 ca        1 TPX     -0.159500
     20 CI          2.8940   -6.9250    3.3160 ca        1 TPX     -0.001300
     21 CJ          3.1960   -8.3640    3.1460 c3        1 TPX     -0.070800
     22 H          -0.5730    0.0630    0.3730 h4        1 TPX      0.007200
     23 HA          2.2640   -0.0540   -0.9670 hc        1 TPX      0.101700
     24 HB          1.5180    0.5330    1.9840 hc        1 TPX      0.078700
     25 HD2         2.3760    2.3500   -0.2140 hc        1 TPX      0.052700
     26 HD1         0.6590    2.2480    0.3580 hc        1 TPX      0.052700
     27 HE3        -0.0560    1.6340   -1.9990 hc        1 TPX      0.042367
     28 HE2         0.7580    3.2520   -1.9060 hc        1 TPX      0.042367
     29 HE1         1.6620    1.8170   -2.5450 hc        1 TPX      0.042367
     30 HK2         1.2110   -1.8870    1.3360 h1        1 TPX      0.073700
     31 HK1         2.8890   -1.9050    0.6090 h1        1 TPX      0.073700
     32 HN1         3.3560    0.8850    3.2030 ho        1 TPX      0.433000
     33 HG1         3.9910   -4.1680    5.0180 ha        1 TPX      0.153000
     34 HG2         0.6590   -4.5470    2.2940 ha        1 TPX      0.153000
     35 HH1         4.5260   -6.5790    4.7040 ha        1 TPX      0.144500
     36 HH2         1.1870   -6.9580    1.9770 ha        1 TPX      0.144500
     37 HJ3         4.2860   -8.5660    3.2880 hc        1 TPX      0.055700
     38 HJ2         2.6280   -8.9600    3.9060 hc        1 TPX      0.055700
     39 HJ1         2.8970   -8.7200    2.1290 hc        1 TPX      0.055700
     40 H2          3.7470   -1.6040    2.8210 hn        1 TPX      0.452800
@<TRIPOS>BOND
     1    1    2 1   
     2    1    7 2   
     3    1   22 1   
     4    2    3 1   
     5    2    5 1   
     6    2   23 1   
     7    3    4 1   
     8    3   10 1   
     9    3   24 1   
    10    4    8 1   
    11    4    9 2   
    12    5    6 1   
    13    5   25 1   
    14    5   26 1   
    15    6   27 1   
    16    6   28 1   
    17    6   29 1   
    18    8   32 1   
    19   10   11 1   
    20   10   30 1   
    21   10   31 1   
    22   11   14 1   
    23   11   40 1   
    24   12   14 2   
    25   13   14 2   
    26   14   15 1   
    27   15   16 ar  
    28   15   17 ar  
    29   16   18 ar  
    30   16   33 1   
    31   17   19 ar  
    32   17   34 1   
    33   18   20 ar  
    34   18   35 1   
    35   19   20 ar  
    36   19   36 1   
    37   20   21 1   
    38   21   37 1   
    39   21   38 1   
    40   21   39 1   
@<TRIPOS>SUBSTRUCTURE
     1 TPX         1 TEMP              0 ****  ****    0 ROOT
