@<TRIPOS>MOLECULE
TPX
   39    39     1     0     0
SMALL
bcc


@<TRIPOS>ATOM
      1 C           0.1060    1.5560    3.8040 c         1 TPX      0.571900
      2 CA          0.4970    0.2320    3.2070 c3        1 TPX     -0.155700
      3 CB         -0.4820   -0.1680    2.1100 c3        1 TPX     -0.197700
      4 CC         -0.0650   -1.4780    1.3940 c         1 TPX      0.911600
      5 CD          0.5150   -0.8210    4.3100 c3        1 TPX     -0.074400
      6 CE          1.5940   -0.5550    5.3280 c3        1 TPX     -0.093100
      7 O           0.9000    2.4690    4.0470 o         1 TPX     -0.562100
      8 OA         -0.9550   -2.0410    0.6830 o         1 TPX     -0.834800
      9 OB          1.1090   -1.9160    1.5190 o         1 TPX     -0.834800
     10 CK         -0.5940    0.9580    1.0700 c3        1 TPX      0.247800
     11 N          -1.4800    0.6460   -0.0170 n3        1 TPX     -0.911100
     12 OC         -2.6260    1.0250   -2.1690 o         1 TPX     -0.676800
     13 OD         -1.1330    2.7060   -1.3910 o         1 TPX     -0.676800
     14 S          -1.4280    1.3160   -1.4620 sy        1 TPX      1.500200
     15 CF         -0.1370    0.5650   -2.2710 ca        1 TPX     -0.374500
     16 CG1         0.2660   -0.7530   -2.0340 ca        1 TPX     -0.016000
     17 CG2         0.5410    1.3020   -3.2530 ca        1 TPX     -0.016000
     18 CH1         1.3090   -1.3210   -2.7680 ca        1 TPX     -0.163000
     19 CH2         1.5770    0.7420   -3.9890 ca        1 TPX     -0.163000
     20 CI          1.9720   -0.5820   -3.7500 ca        1 TPX     -0.036300
     21 CJ          3.0910   -1.1790   -4.5140 c3        1 TPX     -0.056800
     22 H          -0.9780    1.6660    4.0410 h4        1 TPX     -0.022800
     23 HA          1.5280    0.2940    2.7580 hc        1 TPX      0.096700
     24 HB         -1.4920   -0.3480    2.5670 hc        1 TPX      0.049700
     25 HD2         0.6910   -1.8190    3.8210 hc        1 TPX      0.059700
     26 HD1        -0.4860   -0.8550    4.8140 hc        1 TPX      0.059700
     27 HE3         1.5370   -1.3020    6.1560 hc        1 TPX      0.027367
     28 HE2         2.6030   -0.6300    4.8530 hc        1 TPX      0.027367
     29 HE1         1.4890    0.4690    5.7630 hc        1 TPX      0.027367
     30 HK2        -0.9660    1.8970    1.5780 h1        1 TPX      0.030700
     31 HK1         0.4390    1.1770    0.6670 h1        1 TPX      0.030700
     32 HN1        -1.9440   -0.2380    0.1200 hn        1 TPX      0.490800
     33 HG1        -0.2140   -1.3700   -1.2410 ha        1 TPX      0.174500
     34 HG2         0.2470    2.3510   -3.4320 ha        1 TPX      0.174500
     35 HH1         1.6160   -2.3570   -2.5540 ha        1 TPX      0.132000
     36 HH2         2.0940    1.3370   -4.7550 ha        1 TPX      0.132000
     37 HJ3         3.1880   -0.7070   -5.5230 hc        1 TPX      0.040367
     38 HJ2         4.0520   -1.0230   -3.9600 hc        1 TPX      0.040367
     39 HJ1         2.9410   -2.2780   -4.6480 hc        1 TPX      0.040367
@<TRIPOS>BOND
     1    1    2 1   
     2    1    7 2   
     3    1   22 1   
     4    2    3 1   
     5    2    5 1   
     6    2   23 1   
     7    3    4 1   
     8    3   10 1   
     9    3   24 1   
    10    4    8 1   
    11    4    9 1   
    12    5    6 1   
    13    5   25 1   
    14    5   26 1   
    15    6   27 1   
    16    6   28 1   
    17    6   29 1   
    18   10   11 1   
    19   10   30 1   
    20   10   31 1   
    21   11   14 1   
    22   11   32 1   
    23   12   14 2   
    24   13   14 2   
    25   14   15 1   
    26   15   16 ar  
    27   15   17 ar  
    28   16   18 ar  
    29   16   33 1   
    30   17   19 ar  
    31   17   34 1   
    32   18   20 ar  
    33   18   35 1   
    34   19   20 ar  
    35   19   36 1   
    36   20   21 1   
    37   21   37 1   
    38   21   38 1   
    39   21   39 1   
@<TRIPOS>SUBSTRUCTURE
     1 TPX         1 TEMP              0 ****  ****    0 ROOT
