@<TRIPOS>MOLECULE
TPY
   39    38     1     0     0
SMALL
bcc


@<TRIPOS>ATOM
      1 C           0.3410   -0.8620   -0.3660 c         1 TPY      0.564900
      2 CA          1.7270   -0.6660    0.2090 c3        1 TPY     -0.185700
      3 CB          1.6100   -0.3520    1.7010 c3        1 TPY     -0.168700
      4 CC          2.9500   -0.0280    2.3110 c         1 TPY      0.632100
      5 CD          2.4270    0.4520   -0.5540 c3        1 TPY     -0.083400
      6 CE          2.5950    0.1150   -2.0130 c3        1 TPY     -0.099100
      7 O           0.0570   -1.7930   -1.1150 o         1 TPY     -0.500100
      8 OA          3.4290    1.2500    2.2400 oh        1 TPY     -0.577100
      9 OB          3.6870   -0.7930    2.9330 o         1 TPY     -0.489000
     10 OC         -0.2890   -0.6030    5.8610 o         1 TPY     -0.589700
     11 OD         -1.5200   -0.8360    3.8060 o         1 TPY     -0.633300
     12 S          -0.4800   -1.2860    4.6460 s6        1 TPY      1.860100
     13 CK          0.9970   -1.5730    2.4200 c3        1 TPY      0.222800
     14 CF         -0.8940   -2.9240    5.0660 ce        1 TPY     -0.498700
     15 CG1         4.8940   -6.5690    2.2720 cc        1 TPY      0.233600
     16 CG2        -0.0520   -3.8970    5.2930 cg        1 TPY     -0.443300
     17 CH1         4.4750   -6.8260    3.5570 cd        1 TPY     -0.232300
     18 CH2         0.7630   -4.8770    5.4930 c1        1 TPY      0.220000
     19 CI          3.2470   -6.0740    3.7410 cd        1 TPY     -0.253300
     20 NJ          2.9980   -5.4120    2.5720 na        1 TPY      0.318000
     21 OE          3.9790   -5.6920    1.6530 os        1 TPY     -0.319100
     22 OF          2.1450   -4.6720    2.1660 o         1 TPY     -0.244000
     23 H          -0.0310   -1.7490    1.9860 h1        1 TPY      0.090200
     24 HA         -0.4060   -0.0910   -0.0710 h4        1 TPY      0.004200
     25 HB          2.3180   -1.6180    0.0800 hc        1 TPY      0.106700
     26 HD2         1.8400    1.4030   -0.4460 hc        1 TPY      0.047200
     27 HD1         3.4410    0.6250   -0.1010 hc        1 TPY      0.047200
     28 HE3         3.0740    0.9690   -2.5500 hc        1 TPY      0.046367
     29 HE2         1.6070   -0.0970   -2.4900 hc        1 TPY      0.046367
     30 HE1         3.2410   -0.7890   -2.1360 hc        1 TPY      0.046367
     31 HN1         0.9360    0.5420    1.8360 hc        1 TPY      0.073700
     32 HK2         1.7800   -1.4420    4.2960 hn        1 TPY      0.478800
     33 HK1         1.6430   -2.4760    2.1920 h1        1 TPY      0.090200
     34 HG1         5.7240   -6.8590    1.6370 h4        1 TPY      0.072100
     35 HG2        -1.9850   -3.1160    5.1530 h4        1 TPY      0.183000
     36 HH1         4.9350   -7.4540    4.3140 ha        1 TPY      0.186000
     37 HH2         2.5860   -5.9840    4.6100 h4        1 TPY      0.238000
     38 N           0.8920   -1.4130    3.8410 n3        1 TPY     -0.919100
     39 H2          2.8180    1.8070    1.7370 ho        1 TPY      0.428000
@<TRIPOS>BOND
     1    1    2 1   
     2    1    7 2   
     3    1   24 1   
     4    2    3 1   
     5    2    5 1   
     6    2   25 1   
     7    3    4 1   
     8    3   13 1   
     9    3   31 1   
    10    4    8 1   
    11    4    9 2   
    12    5    6 1   
    13    5   26 1   
    14    5   27 1   
    15    6   28 1   
    16    6   29 1   
    17    6   30 1   
    18    8   39 1   
    19   10   12 1   
    20   11   12 2   
    21   12   14 2   
    22   12   38 1   
    23   13   23 1   
    24   13   33 1   
    25   13   38 1   
    26   14   16 1   
    27   14   35 1   
    28   15   17 2   
    29   15   21 1   
    30   15   34 1   
    31   16   18 3   
    32   17   19 1   
    33   17   36 1   
    34   19   20 2   
    35   19   37 1   
    36   20   21 1   
    37   20   22 1   
    38   32   38 1   
@<TRIPOS>SUBSTRUCTURE
     1 TPY         1 TEMP              0 ****  ****    0 ROOT
