@<TRIPOS>MOLECULE
TPY
   39    36     1     0     0
SMALL
bcc


@<TRIPOS>ATOM
      1 C          -0.0470   -0.4290    0.0150 c2        1 TPY      0.200000
      2 CA          1.4430   -0.6010   -0.2410 c3        1 TPY     -0.232000
      3 CB          1.9680   -1.8110    0.4010 c2        1 TPY      0.290000
      4 CC          3.4340   -1.8550    0.8880 c2        1 TPY      0.357000
      5 CD          2.1930    0.6660    0.1560 c3        1 TPY     -0.152000
      6 CE          1.7610    1.8450   -0.6750 c3        1 TPY     -0.219000
      7 O          -0.8820   -0.6690   -0.8530 o         1 TPY     -0.269000
      8 OA          3.6070   -1.6980    2.1220 o         1 TPY     -0.492000
      9 OB          4.2720   -2.0500   -0.0130 o         1 TPY     -0.492000
     10 OC          0.4620   -0.4580    4.9070 o         1 TPY     -0.966500
     11 OD          1.0140   -1.1690    2.7030 o         1 TPY     -0.966500
     12 S           1.4680   -0.9030    4.0270 s6        1 TPY      2.850000
     13 CK          1.1700   -3.0160    0.4760 c3        1 TPY     -0.305000
     14 CF          2.1860   -2.3570    4.6630 c3        1 TPY     -0.734000
     15 CG1         4.3790   -6.4740    4.8550 c1        1 TPY      0.332000
     16 CG2         1.2470   -3.4130    4.8080 c1        1 TPY     -0.161000
     17 CH1         3.3900   -6.2940    3.9990 c2        1 TPY     -0.553000
     18 CH2         0.4770   -4.3190    4.9510 c1        1 TPY     -0.190000
     19 CI          3.1080   -7.0650    2.7880 c2        1 TPY      0.220000
     20 NJ          1.9870   -6.5450    1.9450 n2        1 TPY      0.162000
     21 OE          3.7880   -8.0200    2.4010 o         1 TPY     -0.257000
     22 OF          0.9700   -7.0830    1.9520 o         1 TPY     -0.128000
     23 H           0.3060   -3.0330   -0.2360 hc        1 TPY      0.167000
     24 HA         -0.2990   -0.0790    1.0390 h4        1 TPY      0.148000
     25 HB          1.6090   -0.7780   -1.3570 hc        1 TPY      0.190000
     26 HD2         2.0100    0.8660    1.2450 hc        1 TPY      0.110500
     27 HD1         3.2960    0.4890    0.0270 hc        1 TPY      0.110500
     28 HE3         0.6610    2.0200   -0.5770 hc        1 TPY      0.084333
     29 HE2         2.2970    2.7640   -0.3370 hc        1 TPY      0.084333
     30 HE1         1.9960    1.6780   -1.7550 hc        1 TPY      0.084333
     31 HN1         0.7500   -3.0360    1.5330 hc        1 TPY      0.167000
     32 HK2         2.7400    0.8840    4.6800 hn        1 TPY      0.265000
     33 HK1         1.7970   -3.9390    0.3520 hc        1 TPY      0.167000
     34 HG1         3.0280   -2.6960    3.9830 h1        1 TPY      0.183500
     35 HG2         2.6680   -2.1630    5.6630 h1        1 TPY      0.183500
     36 HH1         2.6990   -5.4450    4.2300 ha        1 TPY      0.219000
     37 HH2        -0.2300   -5.1000    5.0810 ha        1 TPY      0.234000
     38 N           2.6700    0.1300    4.0430 n8        1 TPY     -0.957000
     39 H2          3.4540    0.0540    3.4320 hn        1 TPY      0.265000
@<TRIPOS>BOND
     1    1    2 1   
     2    1    7 1   
     3    1   24 1   
     4    2    3 1   
     5    2    5 1   
     6    2   25 1   
     7    3    4 1   
     8    3   13 1   
     9    4    8 1   
    10    4    9 1   
    11    5    6 1   
    12    5   26 1   
    13    5   27 1   
    14    6   28 1   
    15    6   29 1   
    16    6   30 1   
    17   10   12 1   
    18   11   12 1   
    19   12   14 1   
    20   12   38 1   
    21   13   23 1   
    22   13   31 1   
    23   13   33 1   
    24   14   16 1   
    25   14   34 1   
    26   14   35 1   
    27   15   17 1   
    28   16   18 1   
    29   17   19 1   
    30   17   36 1   
    31   18   37 1   
    32   19   20 1   
    33   19   21 1   
    34   20   22 1   
    35   32   38 1   
    36   38   39 1   
@<TRIPOS>SUBSTRUCTURE
     1 TPY         1 TEMP              0 ****  ****    0 ROOT
