@<TRIPOS>MOLECULE
TPY
   38    33     1     0     0
SMALL
bcc


@<TRIPOS>ATOM
      1 C          -2.2510    1.1960   -2.8730 c1        1 TPY      0.187000
      2 CA         -0.8230    0.9660   -3.2670 c2        1 TPY     -0.146000
      3 CB          0.0100    0.7120   -2.0240 c3        1 TPY     -0.204000
      4 CC          1.4280    0.4180   -2.4220 c2        1 TPY      0.337000
      5 CD         -0.2890    2.1980   -3.9950 c3        1 TPY     -0.153000
      6 CE         -0.8840    2.2590   -5.3960 c3        1 TPY     -0.211000
      7 O          -3.1360    0.5480   -3.3910 o         1 TPY     -0.319000
      8 OA          1.6700   -0.4810   -3.2690 o         1 TPY     -0.566000
      9 OB          2.3730    1.0660   -1.9060 o         1 TPY     -0.566000
     10 OC         -2.0900   -0.0880    1.5650 o         1 TPY     -0.942500
     11 OD         -1.6830   -2.2110    1.0290 o         1 TPY     -0.942500
     12 S          -0.9870   -0.9930    1.3510 ss        1 TPY      2.824000
     13 N          -0.0300   -0.4920    0.0830 n2        1 TPY     -0.879000
     14 CK         -0.5610   -0.4790   -1.2640 c3        1 TPY     -0.001000
     15 CF          0.0040   -1.1830    2.8480 c1        1 TPY     -0.749000
     16 CG1         0.5030   -0.0660    3.4930 c2        1 TPY     -0.039000
     17 CG2         0.2090   -2.4470    3.3890 c1        1 TPY     -0.046000
     18 CH1         1.2080   -0.2090    4.6840 c1        1 TPY     -0.094000
     19 CH2         0.9130   -2.5890    4.5780 c1        1 TPY     -0.114000
     20 CI          1.4120   -1.4730    5.2240 c1        1 TPY     -0.090000
     21 NJ          2.2000   -1.6260    6.3960 no        1 TPY      0.560000
     22 OE          2.8260   -0.5450    6.9410 o         1 TPY     -0.369000
     23 OF          2.3480   -2.7350    6.8940 o         1 TPY     -0.369000
     24 H          -2.4660    1.8470   -2.1780 ha        1 TPY      0.071000
     25 HA         -0.7700    0.1900   -3.8590 ha        1 TPY      0.138000
     26 HB         -0.0110    1.5050   -1.4500 hc        1 TPY      0.080000
     27 HD2         0.6850    2.1440   -4.0570 hc        1 TPY      0.098500
     28 HD1        -0.5400    3.0050   -3.4980 hc        1 TPY      0.098500
     29 HE3        -1.8540    2.3740   -5.3340 hc        1 TPY      0.067667
     30 HE2        -0.4940    3.0200   -5.8860 hc        1 TPY      0.067667
     31 HE1        -0.6840    1.4240   -5.8730 hc        1 TPY      0.067667
     32 HN1         0.8310   -0.2290    0.2370 hn        1 TPY      0.292000
     33 HK2        -1.5360   -0.4070   -1.2300 h1        1 TPY      0.091000
     34 HK1        -0.3100   -1.3090   -1.7230 h1        1 TPY      0.091000
     35 HG1         0.3120    0.8220    3.1450 ha        1 TPY      0.232000
     36 HG2        -0.1760   -3.2240    2.9600 ha        1 TPY      0.161000
     37 HH1         1.5580    0.5740    5.1370 ha        1 TPY      0.175000
     38 HH2         1.0840   -3.4820    4.9420 ha        1 TPY      0.162000
@<TRIPOS>BOND
     1    1    7 1   
     2    1   24 1   
     3    2    3 1   
     4    2    5 1   
     5    2   25 1   
     6    3    4 1   
     7    3   14 1   
     8    3   26 1   
     9    4    8 1   
    10    4    9 1   
    11    5    6 1   
    12    5   27 1   
    13    5   28 1   
    14    6   29 1   
    15    6   30 1   
    16    6   31 1   
    17   10   12 1   
    18   11   12 1   
    19   13   14 1   
    20   13   32 1   
    21   14   33 1   
    22   14   34 1   
    23   15   16 1   
    24   15   17 1   
    25   16   18 1   
    26   16   35 1   
    27   17   36 1   
    28   18   37 1   
    29   19   20 1   
    30   19   38 1   
    31   20   21 1   
    32   21   22 1   
    33   21   23 1   
@<TRIPOS>SUBSTRUCTURE
     1 TPY         1 TEMP              0 ****  ****    0 ROOT
