@<TRIPOS>MOLECULE
TPY
   38    38     1     0     0
SMALL
bcc


@<TRIPOS>ATOM
      1 C           4.2890    0.6560    1.5070 c         1 TPY      0.569900
      2 CA          3.5490    0.8750    0.2150 c3        1 TPY     -0.156700
      3 CB          2.6700   -0.3280   -0.1010 c3        1 TPY     -0.197700
      4 CC          1.8140   -0.1180   -1.3750 c         1 TPY      0.908600
      5 CD          4.5590    1.1010   -0.9040 c3        1 TPY     -0.074400
      6 CE          5.3390    2.3760   -0.7110 c3        1 TPY     -0.093100
      7 O           4.3640    1.4900    2.4130 o         1 TPY     -0.558100
      8 OA          1.3130   -1.1640   -1.8950 o         1 TPY     -0.833300
      9 OB          1.6160    1.0430   -1.8160 o         1 TPY     -0.833300
     10 OC         -1.1130   -3.1600    1.3160 o         1 TPY     -0.665800
     11 OD         -0.6010   -1.4320    2.8740 o         1 TPY     -0.665800
     12 S          -0.6150   -1.8490    1.5180 sy        1 TPY      1.492200
     13 CK          1.7360   -0.6210    1.0850 c3        1 TPY      0.245800
     14 CF         -1.6710   -0.7730    0.6870 ca        1 TPY     -0.312500
     15 CG1        -1.5320   -0.4290   -0.6570 ca        1 TPY     -0.035500
     16 CG2        -2.7520   -0.2510    1.4120 ca        1 TPY     -0.035500
     17 CH1        -2.4640    0.4050   -1.2860 ca        1 TPY     -0.098500
     18 CH2        -3.6940    0.5760    0.8160 ca        1 TPY     -0.098500
     19 CI         -3.5460    0.8940   -0.5460 ca        1 TPY     -0.134200
     20 NJ         -4.5590    1.7660   -1.2000 no        1 TPY      0.306200
     21 OE         -4.4850    1.9740   -2.3820 o         1 TPY     -0.220000
     22 OF         -5.4410    2.2420   -0.5330 o         1 TPY     -0.220000
     23 H           4.7970   -0.3330    1.5980 h4        1 TPY     -0.022800
     24 HA          2.8920    1.7870    0.2900 hc        1 TPY      0.097700
     25 HB          3.3230   -1.2240   -0.2830 hc        1 TPY      0.052700
     26 HD2         5.2600    0.2280   -0.9600 hc        1 TPY      0.059700
     27 HD1         3.9870    1.1470   -1.8720 hc        1 TPY      0.059700
     28 HE3         5.8500    2.3850    0.2830 hc        1 TPY      0.028033
     29 HE2         4.6580    3.2600   -0.7610 hc        1 TPY      0.028033
     30 HE1         6.1120    2.4800   -1.5100 hc        1 TPY      0.028033
     31 HN1         1.0100   -2.1600   -0.0400 hn        1 TPY      0.495800
     32 HK2         1.1720    0.3230    1.3420 h1        1 TPY      0.034200
     33 HK1         2.3590   -0.9030    1.9850 h1        1 TPY      0.034200
     34 HG1        -0.6630   -0.7810   -1.2650 ha        1 TPY      0.192500
     35 HG2        -2.8480   -0.4950    2.4860 ha        1 TPY      0.192500
     36 HH1        -2.3290    0.6760   -2.3470 ha        1 TPY      0.171000
     37 HH2        -4.5400    0.9780    1.3960 ha        1 TPY      0.171000
     38 N           0.8010   -1.6840    0.8250 n3        1 TPY     -0.914100
@<TRIPOS>BOND
     1    1    2 1   
     2    1    7 2   
     3    1   23 1   
     4    2    3 1   
     5    2    5 1   
     6    2   24 1   
     7    3    4 1   
     8    3   13 1   
     9    3   25 1   
    10    4    8 1   
    11    4    9 1   
    12    5    6 1   
    13    5   26 1   
    14    5   27 1   
    15    6   28 1   
    16    6   29 1   
    17    6   30 1   
    18   10   12 2   
    19   11   12 2   
    20   12   14 1   
    21   12   38 1   
    22   13   32 1   
    23   13   33 1   
    24   13   38 1   
    25   14   15 ar  
    26   14   16 ar  
    27   15   17 ar  
    28   15   34 1   
    29   16   18 ar  
    30   16   35 1   
    31   17   19 ar  
    32   17   36 1   
    33   18   19 ar  
    34   18   37 1   
    35   19   20 1   
    36   20   21 1   
    37   20   22 1   
    38   31   38 1   
@<TRIPOS>SUBSTRUCTURE
     1 TPY         1 TEMP              0 ****  ****    0 ROOT
