@<TRIPOS>MOLECULE
TPZ
   35    34     1     0     0
SMALL
bcc


@<TRIPOS>ATOM
      1 C           1.2290   -0.6030   -1.4620 c         1 TPZ      0.897600
      2 N           2.8650    1.1220   -0.7120 ns        1 TPZ     -0.475900
      3 O           0.9880   -1.8410   -1.5150 o         1 TPZ     -0.855800
      4 P           1.5530    2.1920    2.6030 p5        1 TPZ      1.427800
      5 C1          3.9450    1.0710   -1.5640 c         1 TPZ      0.652100
      6 O1          4.8140    0.1700   -1.5540 o         1 TPZ     -0.657100
      7 C2          4.1100    2.2500   -2.5260 c3        1 TPZ     -0.160400
      8 C3          3.1490    2.0630   -3.6810 c3        1 TPZ     -0.104400
      9 C4          3.0290    3.3190   -4.5200 c3        1 TPZ     -0.064400
     10 C5          1.9270    3.1520   -5.5340 c3        1 TPZ      0.036700
     11 S5          1.9660    4.5480   -6.6450 sh        1 TPZ     -0.447900
     12 CA          2.1540   -0.0810   -0.3060 c3        1 TPZ     -0.050300
     13 CB          1.2920    0.1710    0.9680 c3        1 TPZ      0.212100
     14 CG          0.7510   -1.1650    1.4660 c3        1 TPZ     -0.110100
     15 O1P         0.0850    2.1920    2.7680 o         1 TPZ     -0.848500
     16 O2P         1.9480    3.1300    1.3180 oh        1 TPZ     -0.782400
     17 O3P         2.5220    2.5730    3.6550 o         1 TPZ     -0.848500
     18 O4P         2.0570    0.7540    1.9900 os        1 TPZ     -0.586200
     19 OXT         0.7890    0.2250   -2.3150 o         1 TPZ     -0.855800
     20 HN          2.8890    3.2100    1.2230 ho        1 TPZ      0.418000
     21 H2          3.9120    3.2190   -2.0010 hc        1 TPZ      0.043200
     22 H2A         5.1680    2.2670   -2.8930 hc        1 TPZ      0.043200
     23 H3          3.5060    1.2150   -4.3240 hc        1 TPZ      0.085200
     24 H3A         2.1320    1.7590   -3.2890 hc        1 TPZ      0.085200
     25 H4          4.0020    3.5290   -5.0390 hc        1 TPZ      0.040200
     26 H4A         2.8050    4.1980   -3.8600 hc        1 TPZ      0.040200
     27 H5          2.0720    2.2130   -6.1210 h1        1 TPZ      0.072700
     28 H5A         0.9380    3.0910   -5.0200 h1        1 TPZ      0.072700
     29 HS5         0.7760    4.4030   -7.1980 hs        1 TPZ      0.191800
     30 HA          2.9170   -0.8750   -0.0730 h1        1 TPZ      0.073700
     31 HB          0.4370    0.8590    0.7050 h1        1 TPZ      0.047700
     32 HG          1.5820   -1.7730    1.8950 hc        1 TPZ      0.034700
     33 HGA        -0.0100   -0.9900    2.2630 hc        1 TPZ      0.034700
     34 HGB         0.2870   -1.7260    0.6190 hc        1 TPZ      0.034700
     35 H21         2.2370    1.8890   -0.8630 hn        1 TPZ      0.303500
@<TRIPOS>BOND
     1    1    3 1   
     2    1   12 1   
     3    1   19 1   
     4    2    5 1   
     5    2   12 1   
     6    2   35 1   
     7    4   15 1   
     8    4   16 1   
     9    4   17 1   
    10    4   18 1   
    11    5    6 2   
    12    5    7 1   
    13    7    8 1   
    14    7   21 1   
    15    7   22 1   
    16    8    9 1   
    17    8   23 1   
    18    8   24 1   
    19    9   10 1   
    20    9   25 1   
    21    9   26 1   
    22   10   11 1   
    23   10   27 1   
    24   10   28 1   
    25   11   29 1   
    26   12   13 1   
    27   12   30 1   
    28   13   14 1   
    29   13   18 1   
    30   13   31 1   
    31   14   32 1   
    32   14   33 1   
    33   14   34 1   
    34   16   20 1   
@<TRIPOS>SUBSTRUCTURE
     1 TPZ         1 TEMP              0 ****  ****    0 ROOT
