@<TRIPOS>MOLECULE
TPZ
   35    34     1     0     0
SMALL
bcc


@<TRIPOS>ATOM
      1 C           1.3390   -0.6500   -1.4910 c         1 TPZ      0.897600
      2 N           2.8600    1.1550   -0.6940 n         1 TPZ     -0.475900
      3 O           1.1640   -1.8990   -1.5520 o         1 TPZ     -0.855800
      4 P           1.3990    2.1490    2.5830 p5        1 TPZ      1.427800
      5 C1          3.9660    1.1620   -1.5140 c         1 TPZ      0.652100
      6 O1          4.8800    0.3070   -1.4790 o         1 TPZ     -0.657100
      7 C2          4.0980    2.3500   -2.4700 c3        1 TPZ     -0.160400
      8 C3          3.1810    2.1170   -3.6520 c3        1 TPZ     -0.104400
      9 C4          3.0210    3.3670   -4.4930 c3        1 TPZ     -0.064400
     10 C5          1.9580    3.1450   -5.5380 c3        1 TPZ      0.036700
     11 S5          1.9560    4.5430   -6.6460 sh        1 TPZ     -0.447900
     12 CA          2.2020   -0.0840   -0.3090 c3        1 TPZ     -0.050300
     13 CB          1.2920    0.1200    0.9400 c3        1 TPZ      0.212100
     14 CG          0.8060   -1.2420    1.4210 c3        1 TPZ     -0.110100
     15 O1P        -0.0720    2.0730    2.7040 o         1 TPZ     -0.848500
     16 O2P         1.7820    3.1090    1.3100 oh        1 TPZ     -0.782400
     17 O3P         2.3160    2.5780    3.6630 o         1 TPZ     -0.848500
     18 O4P         1.9950    0.7400    1.9830 os        1 TPZ     -0.586200
     19 OXT         0.8810    0.1560   -2.3570 o         1 TPZ     -0.855800
     20 HN          2.7200    3.2380    1.2430 ho        1 TPZ      0.418000
     21 H2          5.1630    2.4230   -2.8050 hc        1 TPZ      0.043200
     22 H2A         3.8350    3.3070   -1.9490 hc        1 TPZ      0.043200
     23 H3          3.5990    1.2900   -4.2850 hc        1 TPZ      0.085200
     24 H3A         2.1700    1.7600   -3.2900 hc        1 TPZ      0.085200
     25 H4          2.7320    4.2320   -3.8390 hc        1 TPZ      0.040200
     26 H4A         3.9950    3.6280   -4.9840 hc        1 TPZ      0.040200
     27 H5          0.9590    3.0310   -5.0530 h1        1 TPZ      0.072700
     28 H5A         2.1690    2.2170   -6.1210 h1        1 TPZ      0.072700
     29 HS5         0.7920    4.3390   -7.2340 hs        1 TPZ      0.191800
     30 HA          2.9970   -0.8370   -0.0540 h1        1 TPZ      0.073700
     31 HB          0.4090    0.7640    0.6520 h1        1 TPZ      0.047700
     32 HG          0.3960   -1.8250    0.5610 hc        1 TPZ      0.034700
     33 HGA         0.0140   -1.1090    2.1950 hc        1 TPZ      0.034700
     34 HGB         1.6540   -1.8080    1.8740 hc        1 TPZ      0.034700
     35 H21         2.1980    1.8890   -0.8610 hn        1 TPZ      0.303500
@<TRIPOS>BOND
     1    1    3 1   
     2    1   12 1   
     3    1   19 1   
     4    2    5 1   
     5    2   12 1   
     6    2   35 1   
     7    4   15 1   
     8    4   16 1   
     9    4   17 1   
    10    4   18 1   
    11    5    6 2   
    12    5    7 1   
    13    7    8 1   
    14    7   21 1   
    15    7   22 1   
    16    8    9 1   
    17    8   23 1   
    18    8   24 1   
    19    9   10 1   
    20    9   25 1   
    21    9   26 1   
    22   10   11 1   
    23   10   27 1   
    24   10   28 1   
    25   11   29 1   
    26   12   13 1   
    27   12   30 1   
    28   13   14 1   
    29   13   18 1   
    30   13   31 1   
    31   14   32 1   
    32   14   33 1   
    33   14   34 1   
    34   16   20 1   
@<TRIPOS>SUBSTRUCTURE
     1 TPZ         1 TEMP              0 ****  ****    0 ROOT
