@<TRIPOS>MOLECULE
TPZ
   34    33     1     0     0
SMALL
bcc


@<TRIPOS>ATOM
      1 C          -1.1480    2.2090   -2.1330 c         1 TPZ      0.915600
      2 N           0.5290    0.4700   -1.3980 n         1 TPZ     -0.468900
      3 O          -0.5510    3.1870   -1.5940 o         1 TPZ     -0.882800
      4 P          -0.8450   -1.1880    1.4930 p5        1 TPZ      1.340900
      5 C1          1.4310   -0.0260   -2.2750 c         1 TPZ      0.643100
      6 O1          1.2940   -0.0650   -3.5330 o         1 TPZ     -0.747100
      7 C2          2.7620   -0.5690   -1.7380 c3        1 TPZ     -0.129400
      8 C3          3.1320   -0.1470   -0.3390 c3        1 TPZ     -0.143400
      9 C4          4.4480   -0.7660    0.0920 c3        1 TPZ     -0.063400
     10 C5          4.7030   -0.4640    1.5450 c3        1 TPZ      0.056700
     11 S5          6.0510   -1.4240    2.2370 sh        1 TPZ     -0.533900
     12 CA         -0.8650    0.7380   -1.7090 c3        1 TPZ     -0.034300
     13 CB         -1.7520    0.3390   -0.4700 c3        1 TPZ      0.217100
     14 CG         -3.2190    0.4720   -0.8710 c3        1 TPZ     -0.099100
     15 O1P         0.5530   -0.6180    1.3190 o         1 TPZ     -0.941500
     16 O2P        -0.8860   -2.6820    1.6720 o         1 TPZ     -0.941500
     17 O3P        -1.7460   -0.3950    2.4000 o         1 TPZ     -0.941500
     18 O4P        -1.4950   -0.9640   -0.0740 os        1 TPZ     -0.589200
     19 OXT        -2.0120    2.3920   -3.0500 o         1 TPZ     -0.882800
     20 HN          0.6730    0.2810   -0.4020 hn        1 TPZ      0.379500
     21 H2          2.6770   -1.6870   -1.7810 hc        1 TPZ      0.022700
     22 H2A         3.5630   -0.2610   -2.4600 hc        1 TPZ      0.022700
     23 H3          3.2010    0.9690   -0.2790 hc        1 TPZ      0.115700
     24 H3A         2.3170   -0.4730    0.3920 hc        1 TPZ      0.115700
     25 H4          4.3970   -1.8770   -0.0580 hc        1 TPZ      0.016700
     26 H4A         5.2950   -0.3850   -0.5370 hc        1 TPZ      0.016700
     27 H5          5.0200    0.5970    1.6870 h1        1 TPZ      0.092200
     28 H5A         3.7700   -0.6430    2.1400 h1        1 TPZ      0.092200
     29 HS5         5.4840   -2.6200    2.2270 hs        1 TPZ      0.223800
     30 HA         -1.1700    0.0870   -2.5790 h1        1 TPZ      0.041700
     31 HB         -1.5290    1.0520    0.3780 h1        1 TPZ      0.044700
     32 HG         -3.4820   -0.3100   -1.6210 hc        1 TPZ      0.013367
     33 HGA        -3.8620    0.3290    0.0290 hc        1 TPZ      0.013367
     34 HGB        -3.4080    1.4780   -1.3150 hc        1 TPZ      0.013367
@<TRIPOS>BOND
     1    1    3 1   
     2    1   12 1   
     3    1   19 1   
     4    2    5 1   
     5    2   12 1   
     6    2   20 1   
     7    4   15 1   
     8    4   16 1   
     9    4   17 1   
    10    4   18 1   
    11    5    6 2   
    12    5    7 1   
    13    7    8 1   
    14    7   21 1   
    15    7   22 1   
    16    8    9 1   
    17    8   23 1   
    18    8   24 1   
    19    9   10 1   
    20    9   25 1   
    21    9   26 1   
    22   10   11 1   
    23   10   27 1   
    24   10   28 1   
    25   11   29 1   
    26   12   13 1   
    27   12   30 1   
    28   13   14 1   
    29   13   18 1   
    30   13   31 1   
    31   14   32 1   
    32   14   33 1   
    33   14   34 1   
@<TRIPOS>SUBSTRUCTURE
     1 TPZ         1 TEMP              0 ****  ****    0 ROOT
