@<TRIPOS>MOLECULE
TQ1
   33    25     1     0     0
SMALL
bcc


@<TRIPOS>ATOM
      1 C1         -5.0410   -0.8520   -1.2670 c1        1 TQ1     -0.181500
      2 C7         -0.7790   -1.6580   -0.7350 c1        1 TQ1     -0.141000
      3 C8          0.5680   -1.7110   -0.3450 c1        1 TQ1     -0.090000
      4 C2         -3.8940   -1.0370   -0.5160 c1        1 TQ1     -0.181500
      5 C19        -0.8890    0.6950   -0.1050 c1        1 TQ1     -0.168000
      6 C5         -4.6940   -0.1340   -2.4120 c1        1 TQ1     -0.097500
      7 C6         -1.5100   -0.4420   -0.6120 c1        1 TQ1      0.046000
      8 C9          1.1930   -0.5730    0.1620 c1        1 TQ1     -0.096000
      9 C18         0.4680    0.6420    0.2870 c1        1 TQ1      0.118000
     10 C3         -2.8370   -0.4390   -1.1910 c1        1 TQ1     -0.097500
     11 C11         3.2520    0.5440    1.1170 c1        1 TQ1     -0.094000
     12 C10         2.6140   -0.6290    0.5600 c2        1 TQ1     -0.028000
     13 C12         2.4770    1.8350    1.2380 c1        1 TQ1      0.036000
     14 C15         0.6000    3.0460    1.6600 c1        1 TQ1      0.336000
     15 C20         3.4180   -1.8770    0.2870 c3        1 TQ1      0.013000
     16 N13         2.8100    2.7170    2.1220 n1        1 TQ1     -0.087000
     17 N4         -3.3330    0.1180   -2.3620 n2        1 TQ1     -0.160000
     18 N14         1.8050    3.5250    2.5010 n1        1 TQ1     -0.231000
     19 N17         1.1580    1.8920    0.8500 n3        1 TQ1     -0.231000
     20 O16        -0.3770    3.7150    1.3720 o         1 TQ1     -0.334000
     21 O21         4.6710   -1.7800    0.9150 oh        1 TQ1     -0.326000
     22 H1         -5.9680   -1.1790   -1.0260 DU        1 TQ1      0.182000
     23 H2         -3.8320   -1.5400    0.3990 DU        1 TQ1      0.182000
     24 H5         -5.2960    0.1380   -3.1170 DU        1 TQ1      0.182000
     25 H7         -1.2180   -2.4600   -1.0900 ha        1 TQ1      0.145000
     26 H8          1.0690   -2.5440   -0.4300 ha        1 TQ1      0.135000
     27 H19        -1.4040    1.5550   -0.0190 ha        1 TQ1      0.165000
     28 H4         -2.8420    0.5770   -2.9990 DU        1 TQ1      0.182000
     29 H11         4.1840    0.4850    1.4770 ha        1 TQ1      0.187000
     30 H201        3.5480   -1.9790   -0.6990 h1        1 TQ1      0.081500
     31 H202        2.9130   -2.6970    0.6560 h1        1 TQ1      0.081500
     32 H14         1.8870    4.2960    2.8780 hn        1 TQ1      0.261000
     33 H21         5.2810   -2.2490    0.4420 ho        1 TQ1      0.209000
@<TRIPOS>BOND
     1    1    4 1   
     2    1    6 1   
     3    2    7 1   
     4    2   25 1   
     5    3    8 1   
     6    3   26 1   
     7    4   10 1   
     8    5    9 1   
     9    5   27 1   
    10    6   17 1   
    11    8   12 1   
    12    9   19 1   
    13   10   17 1   
    14   11   12 1   
    15   11   29 1   
    16   12   15 1   
    17   13   16 1   
    18   13   19 1   
    19   14   19 1   
    20   14   20 1   
    21   15   21 1   
    22   15   30 1   
    23   15   31 1   
    24   18   32 1   
    25   21   33 1   
@<TRIPOS>SUBSTRUCTURE
     1 TQ1         1 TEMP              0 ****  ****    0 ROOT
