@<TRIPOS>MOLECULE
TQ1
   33    36     1     0     0
SMALL
bcc


@<TRIPOS>ATOM
      1 C1          5.5620   -0.6920   -0.2030 cc        1 TQ1     -0.204000
      2 C7          1.3610   -1.9640    0.0320 ca        1 TQ1     -0.141000
      3 C8         -0.0030   -2.2000    0.0360 ca        1 TQ1     -0.090000
      4 C2          4.3080   -1.3590   -0.3440 cc        1 TQ1     -0.159000
      5 C19         0.9680    0.4230    0.0140 ca        1 TQ1     -0.168000
      6 C5          5.2900    0.6170    0.2290 cd        1 TQ1     -0.141300
      7 C6          1.8620   -0.6480    0.0190 ca        1 TQ1      0.046000
      8 C9         -0.9310   -1.1450    0.0360 ca        1 TQ1     -0.096000
      9 C18        -0.4240    0.1880    0.0300 ca        1 TQ1      0.093700
     10 C3          3.2950   -0.4380    0.0050 cd        1 TQ1     -0.102300
     11 C11        -3.2470   -0.3390    0.0190 cc        1 TQ1     -0.094000
     12 C10        -2.3670   -1.3720    0.0420 cd        1 TQ1     -0.035300
     13 C12        -2.7490    1.0210   -0.0100 cc        1 TQ1      0.011700
     14 C15        -1.1470    2.6600   -0.0580 c         1 TQ1      0.635300
     15 C20        -2.8400   -2.7910    0.0720 c3        1 TQ1      0.170700
     16 N13        -3.4120    2.1890   -0.1180 nd        1 TQ1     -0.219600
     17 N4          3.9190    0.7690    0.3510 na        1 TQ1     -0.161100
     18 N14        -2.4920    3.1870   -0.0510 n         1 TQ1     -0.251900
     19 N17        -1.3330    1.2440    0.0590 n         1 TQ1     -0.139200
     20 O16        -0.0820    3.2920   -0.0360 o         1 TQ1     -0.609500
     21 O21        -4.2600   -2.8120    0.0720 oh        1 TQ1     -0.598800
     22 H1          6.5440   -1.1140   -0.3950 ha        1 TQ1      0.155000
     23 H2          4.1560   -2.3840   -0.6690 ha        1 TQ1      0.151000
     24 H5          5.9740    1.4360    0.4530 h4        1 TQ1      0.169000
     25 H8         -0.3640   -3.2400    0.0430 ha        1 TQ1      0.135000
     26 H19         1.3290    1.4660   -0.0150 ha        1 TQ1      0.165000
     27 H4          3.4470    1.5850    0.6440 hn        1 TQ1      0.302700
     28 H11        -4.3380   -0.4870    0.0170 ha        1 TQ1      0.187000
     29 H201       -2.4560   -3.3360   -0.8360 h1        1 TQ1      0.042200
     30 H202       -2.4530   -3.2970    1.0000 h1        1 TQ1      0.042200
     31 H14        -2.6950    4.0050   -0.5910 hn        1 TQ1      0.347500
     32 H21        -4.5160   -3.7400    0.1210 ho        1 TQ1      0.410000
     33 H7          2.0650   -2.8110    0.0410 ha        1 TQ1      0.145000
@<TRIPOS>BOND
     1    1    4 1   
     2    1    6 2   
     3    1   22 1   
     4    2    3 ar  
     5    2    7 ar  
     6    2   33 1   
     7    3    8 ar  
     8    3   25 1   
     9    4   10 2   
    10    4   23 1   
    11    5    7 ar  
    12    5    9 ar  
    13    5   26 1   
    14    6   17 1   
    15    6   24 1   
    16    7   10 1   
    17    8    9 ar  
    18    8   12 1   
    19    9   19 1   
    20   10   17 1   
    21   11   12 2   
    22   11   13 1   
    23   11   28 1   
    24   12   15 1   
    25   13   16 2   
    26   13   19 1   
    27   14   18 1   
    28   14   19 1   
    29   14   20 2   
    30   15   21 1   
    31   15   29 1   
    32   15   30 1   
    33   16   18 1   
    34   17   27 1   
    35   18   31 1   
    36   21   32 1   
@<TRIPOS>SUBSTRUCTURE
     1 TQ1         1 TEMP              0 ****  ****    0 ROOT
