@<TRIPOS>MOLECULE
TQ1
   33    36     1     0     0
SMALL
bcc


@<TRIPOS>ATOM
      1 C1         -0.0420    0.1860   -0.0650 cc        1 TQ1     -0.204000
      2 C7          4.2520   -0.0410    0.8470 ca        1 TQ1     -0.141000
      3 C8          5.5610   -0.0420    1.2980 ca        1 TQ1     -0.090000
      4 C2          1.3790    0.3270   -0.0460 cc        1 TQ1     -0.159000
      5 C19         3.4460   -0.0070    3.1280 ca        1 TQ1     -0.168000
      6 C5         -0.4340   -0.2370    1.2170 cd        1 TQ1     -0.141300
      7 C6          3.1780   -0.0220    1.7590 ca        1 TQ1      0.046000
      8 C9          5.8650   -0.0320    2.6690 ca        1 TQ1     -0.096000
      9 C18         4.7780   -0.0200    3.5930 ca        1 TQ1      0.093700
     10 C3          1.8220   -0.0120    1.2520 cd        1 TQ1     -0.102300
     11 C11         7.5060   -0.0010    4.4920 cc        1 TQ1     -0.094000
     12 C10         7.2330   -0.0340    3.1630 cd        1 TQ1     -0.035300
     13 C12         6.4140    0.0340    5.4430 cc        1 TQ1      0.011700
     14 C15         4.2210    0.0860    6.1070 c         1 TQ1      0.635300
     15 C20         8.3320   -0.0700    2.1470 c3        1 TQ1      0.170700
     16 N13         6.4330    0.1530    6.7850 nd        1 TQ1     -0.219600
     17 N4          0.6940   -0.3530    2.0110 na        1 TQ1     -0.161100
     18 N14         5.1460    0.0880    7.2170 ns        1 TQ1     -0.251900
     19 N17         5.0660   -0.0390    4.9570 n         1 TQ1     -0.139200
     20 O16         2.9830    0.0640    6.1480 o         1 TQ1     -0.609500
     21 O21         9.5860   -0.0650    2.8140 oh        1 TQ1     -0.598800
     22 H1         -0.6990    0.3710   -0.9090 ha        1 TQ1      0.155000
     23 H2          2.0050    0.6460   -0.8730 ha        1 TQ1      0.151000
     24 H5         -1.4280   -0.4580    1.6070 h4        1 TQ1      0.169000
     25 H8          6.3790   -0.0530    0.5610 ha        1 TQ1      0.135000
     26 H19         2.6270    0.0260    3.8670 ha        1 TQ1      0.165000
     27 H4          0.7140   -0.6390    2.9560 hn        1 TQ1      0.302700
     28 H11         8.5340    0.0040    4.8880 ha        1 TQ1      0.187000
     29 H201        8.2370   -1.0030    1.5240 h1        1 TQ1      0.042200
     30 H202        8.2580    0.8320    1.4790 h1        1 TQ1      0.042200
     31 H14         4.9290    0.6340    8.0270 hn        1 TQ1      0.347500
     32 H21        10.2580   -0.1190    2.1250 ho        1 TQ1      0.410000
     33 H7          4.0440   -0.0580   -0.2340 ha        1 TQ1      0.145000
@<TRIPOS>BOND
     1    1    4 1   
     2    1    6 2   
     3    1   22 1   
     4    2    3 ar  
     5    2    7 ar  
     6    2   33 1   
     7    3    8 ar  
     8    3   25 1   
     9    4   10 2   
    10    4   23 1   
    11    5    7 ar  
    12    5    9 ar  
    13    5   26 1   
    14    6   17 1   
    15    6   24 1   
    16    7   10 1   
    17    8    9 ar  
    18    8   12 1   
    19    9   19 1   
    20   10   17 1   
    21   11   12 2   
    22   11   13 1   
    23   11   28 1   
    24   12   15 1   
    25   13   16 2   
    26   13   19 1   
    27   14   18 1   
    28   14   19 1   
    29   14   20 2   
    30   15   21 1   
    31   15   29 1   
    32   15   30 1   
    33   16   18 1   
    34   17   27 1   
    35   18   31 1   
    36   21   32 1   
@<TRIPOS>SUBSTRUCTURE
     1 TQ1         1 TEMP              0 ****  ****    0 ROOT
