@<TRIPOS>MOLECULE
TQ1
   33    36     1     0     0
SMALL
bcc


@<TRIPOS>ATOM
      1 C1         -0.0410    0.1990   -0.0660 cc        1 TQ1     -0.204000
      2 C7          4.2530   -0.0330    0.8470 ca        1 TQ1     -0.141000
      3 C8          5.5610   -0.0360    1.2990 ca        1 TQ1     -0.090000
      4 C2          1.3800    0.3400   -0.0460 cc        1 TQ1     -0.159000
      5 C19         3.4450   -0.0080    3.1280 ca        1 TQ1     -0.168000
      6 C5         -0.4340   -0.2290    1.2140 cd        1 TQ1     -0.141300
      7 C6          3.1790   -0.0180    1.7580 ca        1 TQ1      0.046000
      8 C9          5.8650   -0.0320    2.6700 ca        1 TQ1     -0.096000
      9 C18         4.7780   -0.0230    3.5930 ca        1 TQ1      0.093700
     10 C3          1.8230   -0.0050    1.2510 cd        1 TQ1     -0.102300
     11 C11         7.5050   -0.0090    4.4930 cc        1 TQ1     -0.094000
     12 C10         7.2330   -0.0360    3.1640 cd        1 TQ1     -0.035300
     13 C12         6.4130    0.0230    5.4440 cc        1 TQ1      0.011700
     14 C15         4.2200    0.0720    6.1070 c         1 TQ1      0.635300
     15 C20         8.3320   -0.0690    2.1490 c3        1 TQ1      0.170700
     16 N13         6.4310    0.1360    6.7870 nd        1 TQ1     -0.219600
     17 N4          0.6940   -0.3490    2.0080 na        1 TQ1     -0.161100
     18 N14         5.1440    0.0690    7.2170 n         1 TQ1     -0.251900
     19 N17         5.0650   -0.0480    4.9570 n         1 TQ1     -0.139200
     20 O16         2.9810    0.0510    6.1470 o         1 TQ1     -0.609500
     21 O21         9.5860   -0.0670    2.8160 oh        1 TQ1     -0.598800
     22 H1         -0.6970    0.3880   -0.9090 ha        1 TQ1      0.155000
     23 H2          2.0070    0.6630   -0.8710 ha        1 TQ1      0.151000
     24 H5         -1.4280   -0.4520    1.6020 h4        1 TQ1      0.169000
     25 H8          6.3800   -0.0450    0.5620 ha        1 TQ1      0.135000
     26 H19         2.6270    0.0230    3.8660 ha        1 TQ1      0.165000
     27 H4          0.7140   -0.6390    2.9510 hn        1 TQ1      0.302700
     28 H11         8.5330   -0.0050    4.8900 ha        1 TQ1      0.187000
     29 H201        8.2370   -0.9990    1.5220 h1        1 TQ1      0.042200
     30 H202        8.2580    0.8370    1.4840 h1        1 TQ1      0.042200
     31 H14         4.9270    0.6120    8.0300 hn        1 TQ1      0.347500
     32 H21        10.2580   -0.1180    2.1270 ho        1 TQ1      0.410000
     33 H7          4.0450   -0.0450   -0.2340 ha        1 TQ1      0.145000
@<TRIPOS>BOND
     1    1    4 1   
     2    1    6 2   
     3    1   22 1   
     4    2    3 ar  
     5    2    7 ar  
     6    2   33 1   
     7    3    8 ar  
     8    3   25 1   
     9    4   10 2   
    10    4   23 1   
    11    5    7 ar  
    12    5    9 ar  
    13    5   26 1   
    14    6   17 1   
    15    6   24 1   
    16    7   10 1   
    17    8    9 ar  
    18    8   12 1   
    19    9   19 1   
    20   10   17 1   
    21   11   12 2   
    22   11   13 1   
    23   11   28 1   
    24   12   15 1   
    25   13   16 2   
    26   13   19 1   
    27   14   18 1   
    28   14   19 1   
    29   14   20 2   
    30   15   21 1   
    31   15   29 1   
    32   15   30 1   
    33   16   18 1   
    34   17   27 1   
    35   18   31 1   
    36   21   32 1   
@<TRIPOS>SUBSTRUCTURE
     1 TQ1         1 TEMP              0 ****  ****    0 ROOT
