@<TRIPOS>MOLECULE
TQ2
   54    56     1     0     0
SMALL
bcc


@<TRIPOS>ATOM
      1 C01        -0.1140    0.3820   -0.0140 ca        1 TQ2     -0.173300
      2 C02         1.3150    0.2930    0.0020 ca        1 TQ2      0.398600
      3 C03         1.9820    0.2090    1.2600 ca        1 TQ2     -0.139300
      4 C04         1.2090    0.1980    2.4490 ca        1 TQ2     -0.103000
      5 C05        -0.1620    0.2820    2.4020 ca        1 TQ2     -0.159000
      6 C06        -0.8260    0.3780    1.1590 ca        1 TQ2     -0.144000
      7 N07         2.0040    0.2950   -1.1910 nb        1 TQ2     -0.707000
      8 C08         3.3280    0.1770   -1.1700 ca        1 TQ2      0.484600
      9 C09         4.0980    0.0570    0.0570 ca        1 TQ2     -0.116600
     10 C10         3.4160    0.1210    1.2620 cp        1 TQ2     -0.015000
     11 C11         4.0550    0.1920   -2.4780 c3        1 TQ2     -0.178400
     12 C12         4.0950    0.1220    2.5640 cp        1 TQ2     -0.043000
     13 C13         5.5840   -0.1520    0.0190 c3        1 TQ2      0.044400
     14 O14         6.1340    0.7940   -0.9070 os        1 TQ2     -0.414600
     15 C15         3.9760    1.2330    3.4110 ca        1 TQ2     -0.127000
     16 C16         4.5980    1.2360    4.6560 ca        1 TQ2     -0.151000
     17 C17         5.3480    0.1350    5.0820 ca        1 TQ2     -0.092300
     18 C18         5.4810   -0.9760    4.2340 ca        1 TQ2     -0.084300
     19 C19         4.8550   -0.9770    2.9810 ca        1 TQ2     -0.096000
     20 C20         6.0060    0.1510    6.4090 c3        1 TQ2     -0.042800
     21 C21         6.2870   -2.1500    4.6430 c3        1 TQ2     -0.051800
     22 C22         7.4980    1.1660   -0.6720 c3        1 TQ2      0.164800
     23 C23         7.5980    2.0950    0.5330 c3        1 TQ2     -0.110767
     24 C24         8.4050   -0.0420   -0.4940 c3        1 TQ2     -0.110767
     25 C25         7.8930    1.9280   -1.9390 c3        1 TQ2     -0.110767
     26 C26         5.9540   -1.6280   -0.3550 c         1 TQ2      0.909600
     27 O27         6.1570   -1.9380   -1.5580 o         1 TQ2     -0.821800
     28 O28         6.0680   -2.4330    0.6130 o         1 TQ2     -0.821800
     29 H01        -0.6300    0.4490   -0.9840 ha        1 TQ2      0.135000
     30 H04         1.7280    0.1130    3.4170 ha        1 TQ2      0.138000
     31 H05        -0.7540    0.2700    3.3280 ha        1 TQ2      0.116000
     32 H06        -1.9230    0.4450    1.1440 ha        1 TQ2      0.115000
     33 H11         3.3670    0.0580   -3.3470 hc        1 TQ2      0.073033
     34 H11A        4.5840    1.1720   -2.5820 hc        1 TQ2      0.073033
     35 H11B        4.8280   -0.6250   -2.4830 hc        1 TQ2      0.073033
     36 H13         6.0130    0.0450    1.0430 h1        1 TQ2      0.049700
     37 H15         3.3900    2.1050    3.0860 ha        1 TQ2      0.129000
     38 H16         4.5000    2.1150    5.3100 ha        1 TQ2      0.114000
     39 H19         4.9970   -1.8360    2.2910 ha        1 TQ2      0.213000
     40 H20         7.1190    0.1840    6.2870 hc        1 TQ2      0.033033
     41 H20A        5.6910    1.0380    7.0100 hc        1 TQ2      0.033033
     42 H20B        5.7510   -0.7760    6.9810 hc        1 TQ2      0.033033
     43 H21         6.4420   -2.8470    3.7810 hc        1 TQ2      0.042700
     44 H21A        5.7710   -2.7050    5.4660 hc        1 TQ2      0.042700
     45 H21B        7.2890   -1.8240    5.0190 hc        1 TQ2      0.042700
     46 H23         7.4300    1.5330    1.4820 hc        1 TQ2      0.039478
     47 H23A        6.8300    2.9020    0.4570 hc        1 TQ2      0.039478
     48 H23B        8.6120    2.5590    0.5700 hc        1 TQ2      0.039478
     49 H24         8.1720   -0.5700    0.4620 hc        1 TQ2      0.039478
     50 H24A        8.2300   -0.7650   -1.3310 hc        1 TQ2      0.039478
     51 H24B        9.4720    0.2810   -0.4860 hc        1 TQ2      0.039478
     52 H25         8.9480    2.2760   -1.8530 hc        1 TQ2      0.039478
     53 H25A        7.2230    2.8090   -2.0800 hc        1 TQ2      0.039478
     54 H25B        7.7930    1.2570   -2.8250 hc        1 TQ2      0.039478
@<TRIPOS>BOND
     1    1    2 ar  
     2    1    6 ar  
     3    1   29 1   
     4    2    3 ar  
     5    2    7 ar  
     6    3    4 ar  
     7    3   10 ar  
     8    4    5 ar  
     9    4   30 1   
    10    5    6 ar  
    11    5   31 1   
    12    6   32 1   
    13    7    8 ar  
    14    8    9 ar  
    15    8   11 1   
    16    9   10 ar  
    17    9   13 1   
    18   10   12 1   
    19   11   33 1   
    20   11   34 1   
    21   11   35 1   
    22   12   15 ar  
    23   12   19 ar  
    24   13   14 1   
    25   13   26 1   
    26   13   36 1   
    27   14   22 1   
    28   15   16 ar  
    29   15   37 1   
    30   16   17 ar  
    31   16   38 1   
    32   17   18 ar  
    33   17   20 1   
    34   18   19 ar  
    35   18   21 1   
    36   19   39 1   
    37   20   40 1   
    38   20   41 1   
    39   20   42 1   
    40   21   43 1   
    41   21   44 1   
    42   21   45 1   
    43   22   23 1   
    44   22   24 1   
    45   22   25 1   
    46   23   46 1   
    47   23   47 1   
    48   23   48 1   
    49   24   49 1   
    50   24   50 1   
    51   24   51 1   
    52   25   52 1   
    53   25   53 1   
    54   25   54 1   
    55   26   27 1   
    56   26   28 1   
@<TRIPOS>SUBSTRUCTURE
     1 TQ2         1 TEMP              0 ****  ****    0 ROOT
