@<TRIPOS>MOLECULE
TQ2
   54    56     1     0     0
SMALL
bcc


@<TRIPOS>ATOM
      1 C01         2.9540    3.7370   -0.6360 ca        1 TQ2     -0.173300
      2 C02         1.8490    2.8500   -0.4240 ca        1 TQ2      0.398600
      3 C03         2.0820    1.4440   -0.4590 ca        1 TQ2     -0.139300
      4 C04         3.4010    0.9710   -0.6840 ca        1 TQ2     -0.103000
      5 C05         4.4420    1.8460   -0.8810 ca        1 TQ2     -0.159000
      6 C06         4.2130    3.2400   -0.8600 ca        1 TQ2     -0.144000
      7 N07         0.5970    3.3780   -0.1980 nb        1 TQ2     -0.707000
      8 C08        -0.4170    2.5500    0.0340 ca        1 TQ2      0.484600
      9 C09        -0.2780    1.1040    0.0470 ca        1 TQ2     -0.116600
     10 C10         0.9660    0.5670   -0.2460 cp        1 TQ2     -0.015000
     11 C11        -1.7710    3.1460    0.2670 c3        1 TQ2     -0.178400
     12 C12         1.2020   -0.8770   -0.3700 cp        1 TQ2     -0.043000
     13 C13        -1.4410    0.2180    0.3890 c3        1 TQ2      0.044400
     14 O14        -2.5730    0.6730   -0.3640 os        1 TQ2     -0.414600
     15 C15         1.6270   -1.4110   -1.5960 ca        1 TQ2     -0.127000
     16 C16         1.8750   -2.7740   -1.7190 ca        1 TQ2     -0.151000
     17 C17         1.7060   -3.6330   -0.6270 ca        1 TQ2     -0.092300
     18 C18         1.2700   -3.1060    0.6000 ca        1 TQ2     -0.084300
     19 C19         1.0210   -1.7340    0.7220 ca        1 TQ2     -0.096000
     20 C20         1.9720   -5.0830   -0.7710 c3        1 TQ2     -0.042800
     21 C21         1.0590   -3.9890    1.7710 c3        1 TQ2     -0.051800
     22 C22        -3.5690   -0.3190   -0.6430 c3        1 TQ2      0.164800
     23 C23        -3.0750   -1.2800   -1.7200 c3        1 TQ2     -0.110767
     24 C24        -3.9900   -1.0810    0.6030 c3        1 TQ2     -0.110767
     25 C25        -4.7510    0.4890   -1.1820 c3        1 TQ2     -0.110767
     26 C26        -1.7260    0.2030    1.9310 c         1 TQ2      0.909600
     27 O27        -2.5520    1.0150    2.4230 o         1 TQ2     -0.821800
     28 O28        -1.1160   -0.6800    2.5980 o         1 TQ2     -0.821800
     29 H01         2.7750    4.8230   -0.6110 ha        1 TQ2      0.135000
     30 H04         3.5790   -0.1160   -0.6900 ha        1 TQ2      0.138000
     31 H05         5.4610    1.4720   -1.0520 ha        1 TQ2      0.116000
     32 H06         5.0600    3.9220   -1.0210 ha        1 TQ2      0.115000
     33 H11        -2.4030    2.9640   -0.6390 hc        1 TQ2      0.073033
     34 H11A       -2.2570    2.6320    1.1410 hc        1 TQ2      0.073033
     35 H11B       -1.7220    4.2440    0.4610 hc        1 TQ2      0.073033
     36 H13        -1.2030   -0.8420    0.0890 h1        1 TQ2      0.049700
     37 H15         1.7600   -0.7460   -2.4620 ha        1 TQ2      0.129000
     38 H16         2.2040   -3.1820   -2.6860 ha        1 TQ2      0.114000
     39 H19         0.6320   -1.3240    1.6790 ha        1 TQ2      0.213000
     40 H20         2.6580   -5.4350    0.0400 hc        1 TQ2      0.033033
     41 H20A        1.0160   -5.6590   -0.6890 hc        1 TQ2      0.033033
     42 H20B        2.4400   -5.3160   -1.7590 hc        1 TQ2      0.033033
     43 H21         2.0420   -4.3600    2.1570 hc        1 TQ2      0.042700
     44 H21A        0.5340   -3.4410    2.5930 hc        1 TQ2      0.042700
     45 H21B        0.4420   -4.8770    1.4850 hc        1 TQ2      0.042700
     46 H23        -2.2920   -1.9630   -1.3140 hc        1 TQ2      0.039478
     47 H23A       -3.9270   -1.8980   -2.0930 hc        1 TQ2      0.039478
     48 H23B       -2.6400   -0.7070   -2.5720 hc        1 TQ2      0.039478
     49 H24        -4.2370   -0.3540    1.4180 hc        1 TQ2      0.039478
     50 H24A       -4.8780   -1.7170    0.3780 hc        1 TQ2      0.039478
     51 H24B       -3.1570   -1.7290    0.9690 hc        1 TQ2      0.039478
     52 H25        -4.4420    1.0590   -2.0900 hc        1 TQ2      0.039478
     53 H25A       -5.5870   -0.1990   -1.4440 hc        1 TQ2      0.039478
     54 H25B       -5.0930    1.2130   -0.4050 hc        1 TQ2      0.039478
@<TRIPOS>BOND
     1    1    2 ar  
     2    1    6 ar  
     3    1   29 1   
     4    2    3 ar  
     5    2    7 ar  
     6    3    4 ar  
     7    3   10 ar  
     8    4    5 ar  
     9    4   30 1   
    10    5    6 ar  
    11    5   31 1   
    12    6   32 1   
    13    7    8 ar  
    14    8    9 ar  
    15    8   11 1   
    16    9   10 ar  
    17    9   13 1   
    18   10   12 1   
    19   11   33 1   
    20   11   34 1   
    21   11   35 1   
    22   12   15 ar  
    23   12   19 ar  
    24   13   14 1   
    25   13   26 1   
    26   13   36 1   
    27   14   22 1   
    28   15   16 ar  
    29   15   37 1   
    30   16   17 ar  
    31   16   38 1   
    32   17   18 ar  
    33   17   20 1   
    34   18   19 ar  
    35   18   21 1   
    36   19   39 1   
    37   20   40 1   
    38   20   41 1   
    39   20   42 1   
    40   21   43 1   
    41   21   44 1   
    42   21   45 1   
    43   22   23 1   
    44   22   24 1   
    45   22   25 1   
    46   23   46 1   
    47   23   47 1   
    48   23   48 1   
    49   24   49 1   
    50   24   50 1   
    51   24   51 1   
    52   25   52 1   
    53   25   53 1   
    54   25   54 1   
    55   26   27 1   
    56   26   28 1   
@<TRIPOS>SUBSTRUCTURE
     1 TQ2         1 TEMP              0 ****  ****    0 ROOT
