@<TRIPOS>MOLECULE
TQ2
   54    56     1     0     0
SMALL
bcc


@<TRIPOS>ATOM
      1 C01        -0.1180    0.3840    0.0040 ca        1 TQ2     -0.173300
      2 C02         1.3120    0.2920    0.0150 ca        1 TQ2      0.398600
      3 C03         1.9840    0.2120    1.2700 ca        1 TQ2     -0.139300
      4 C04         1.2160    0.2070    2.4620 ca        1 TQ2     -0.103000
      5 C05        -0.1550    0.2930    2.4210 ca        1 TQ2     -0.159000
      6 C06        -0.8250    0.3860    1.1800 ca        1 TQ2     -0.144000
      7 N07         1.9960    0.2890   -1.1810 nb        1 TQ2     -0.707000
      8 C08         3.3200    0.1680   -1.1650 ca        1 TQ2      0.484600
      9 C09         4.0940    0.0520    0.0590 ca        1 TQ2     -0.116600
     10 C10         3.4170    0.1220    1.2670 cp        1 TQ2     -0.015000
     11 C11         4.0410    0.1770   -2.4760 c3        1 TQ2     -0.178400
     12 C12         4.1020    0.1270    2.5660 cp        1 TQ2     -0.043000
     13 C13         5.5800   -0.1590    0.0170 c3        1 TQ2      0.044400
     14 O14         6.1280    0.7820   -0.9160 os        1 TQ2     -0.414600
     15 C15         3.9880    1.2420    3.4100 ca        1 TQ2     -0.127000
     16 C16         4.6140    1.2490    4.6520 ca        1 TQ2     -0.151000
     17 C17         5.3650    0.1490    5.0790 ca        1 TQ2     -0.092300
     18 C18         5.4930   -0.9660    4.2340 ca        1 TQ2     -0.084300
     19 C19         4.8620   -0.9710    2.9850 ca        1 TQ2     -0.096000
     20 C20         6.0290    0.1690    6.4030 c3        1 TQ2     -0.042800
     21 C21         6.2990   -2.1400    4.6450 c3        1 TQ2     -0.051800
     22 C22         7.4940    1.1530   -0.6880 c3        1 TQ2      0.164800
     23 C23         7.5990    2.0870    0.5140 c3        1 TQ2     -0.110767
     24 C24         8.3990   -0.0550   -0.5080 c3        1 TQ2     -0.110767
     25 C25         7.8840    1.9090   -1.9600 c3        1 TQ2     -0.110767
     26 C26         5.9470   -1.6380   -0.3530 c         1 TQ2      0.909600
     27 O27         6.1440   -1.9520   -1.5560 o         1 TQ2     -0.821800
     28 O28         6.0630   -2.4380    0.6180 o         1 TQ2     -0.821800
     29 H01        -0.6370    0.4480   -0.9640 ha        1 TQ2      0.135000
     30 H04         1.7380    0.1250    3.4290 ha        1 TQ2      0.138000
     31 H05        -0.7440    0.2860    3.3490 ha        1 TQ2      0.116000
     32 H06        -1.9220    0.4540    1.1690 ha        1 TQ2      0.115000
     33 H11         3.3500    0.0400   -3.3410 hc        1 TQ2      0.073033
     34 H11A        4.8140   -0.6410   -2.4800 hc        1 TQ2      0.073033
     35 H11B        4.5720    1.1560   -2.5860 hc        1 TQ2      0.073033
     36 H13         6.0140    0.0410    1.0380 h1        1 TQ2      0.049700
     37 H15         3.4020    2.1130    3.0830 ha        1 TQ2      0.129000
     38 H16         4.5210    2.1300    5.3030 ha        1 TQ2      0.114000
     39 H19         5.0000   -1.8340    2.2970 ha        1 TQ2      0.213000
     40 H20         7.1410    0.2000    6.2760 hc        1 TQ2      0.033033
     41 H20A        5.7740   -0.7550    6.9810 hc        1 TQ2      0.033033
     42 H20B        5.7180    1.0590    7.0020 hc        1 TQ2      0.033033
     43 H21         6.4490   -2.8400    3.7860 hc        1 TQ2      0.042700
     44 H21A        5.7850   -2.6900    5.4730 hc        1 TQ2      0.042700
     45 H21B        7.3030   -1.8130    5.0160 hc        1 TQ2      0.042700
     46 H23         7.4340    1.5290    1.4650 hc        1 TQ2      0.039478
     47 H23A        6.8320    2.8940    0.4360 hc        1 TQ2      0.039478
     48 H23B        8.6140    2.5490    0.5440 hc        1 TQ2      0.039478
     49 H24         8.1690   -0.5790    0.4510 hc        1 TQ2      0.039478
     50 H24A        9.4660    0.2660   -0.5060 hc        1 TQ2      0.039478
     51 H24B        8.2190   -0.7810   -1.3410 hc        1 TQ2      0.039478
     52 H25         8.9400    2.2560   -1.8790 hc        1 TQ2      0.039478
     53 H25A        7.2150    2.7900   -2.1010 hc        1 TQ2      0.039478
     54 H25B        7.7800    1.2350   -2.8420 hc        1 TQ2      0.039478
@<TRIPOS>BOND
     1    1    2 ar  
     2    1    6 ar  
     3    1   29 1   
     4    2    3 ar  
     5    2    7 ar  
     6    3    4 ar  
     7    3   10 ar  
     8    4    5 ar  
     9    4   30 1   
    10    5    6 ar  
    11    5   31 1   
    12    6   32 1   
    13    7    8 ar  
    14    8    9 ar  
    15    8   11 1   
    16    9   10 ar  
    17    9   13 1   
    18   10   12 1   
    19   11   33 1   
    20   11   34 1   
    21   11   35 1   
    22   12   15 ar  
    23   12   19 ar  
    24   13   14 1   
    25   13   26 1   
    26   13   36 1   
    27   14   22 1   
    28   15   16 ar  
    29   15   37 1   
    30   16   17 ar  
    31   16   38 1   
    32   17   18 ar  
    33   17   20 1   
    34   18   19 ar  
    35   18   21 1   
    36   19   39 1   
    37   20   40 1   
    38   20   41 1   
    39   20   42 1   
    40   21   43 1   
    41   21   44 1   
    42   21   45 1   
    43   22   23 1   
    44   22   24 1   
    45   22   25 1   
    46   23   46 1   
    47   23   47 1   
    48   23   48 1   
    49   24   49 1   
    50   24   50 1   
    51   24   51 1   
    52   25   52 1   
    53   25   53 1   
    54   25   54 1   
    55   26   27 1   
    56   26   28 1   
@<TRIPOS>SUBSTRUCTURE
     1 TQ2         1 TEMP              0 ****  ****    0 ROOT
