@<TRIPOS>MOLECULE
TQ3
   33    35     1     0     0
SMALL
bcc


@<TRIPOS>ATOM
      1 C1         -0.1610   -0.1160   -0.0150 ca        1 TQ3      0.421600
      2 C2          1.2540   -0.3320   -0.2310 ca        1 TQ3     -0.172600
      3 C3          2.0930   -0.0670    0.9210 ca        1 TQ3      0.583200
      4 N4          1.6090    0.3010    2.1180 nb        1 TQ3     -0.684000
      5 C5          0.2280    0.4390    2.2000 ca        1 TQ3      0.704900
      6 N6         -0.6630    0.2600    1.2080 nb        1 TQ3     -0.583000
      7 N7          3.5550   -0.1870    0.8140 n4        1 TQ3     -0.921300
      8 C8         -1.0780   -0.2910   -1.1020 ca        1 TQ3     -0.111300
      9 C9         -0.6050   -0.6690   -2.3360 ca        1 TQ3     -0.075000
     10 C12         0.7720   -0.9130   -2.5320 ca        1 TQ3      0.010000
     11 C13         1.6930   -0.7660   -1.5070 ca        1 TQ3     -0.094100
     12 N14        -0.3050    0.8330    3.5360 n4        1 TQ3     -0.810300
     13 S20         3.3120   -1.2630   -1.8120 ss        1 TQ3     -0.002800
     14 C22         3.9160   -0.2620   -3.0420 ca        1 TQ3     -0.151100
     15 C23         4.3590    1.0460   -2.8030 ca        1 TQ3     -0.063500
     16 C24         4.9710    1.7740   -3.8160 ca        1 TQ3     -0.121500
     17 C25         5.1480    1.2000   -5.0810 ca        1 TQ3     -0.043000
     18 C26         4.7030   -0.1000   -5.3260 ca        1 TQ3     -0.121500
     19 C27         4.0790   -0.8280   -4.3130 ca        1 TQ3     -0.063500
     20 HN71        3.9040   -0.8870    1.4780 hn        1 TQ3      0.475467
     21 HN72        3.8100   -0.5120   -0.2480 hn        1 TQ3      0.475467
     22 HC8        -2.1590   -0.1180   -0.9350 ha        1 TQ3      0.203000
     23 HC9        -1.3030   -0.7990   -3.1850 ha        1 TQ3      0.202000
     24 H12         1.1150   -1.2410   -3.5340 ha        1 TQ3      0.193000
     25 H141        0.1160    1.7290    3.8220 hn        1 TQ3      0.495133
     26 H142       -0.0650    0.1060    4.2250 hn        1 TQ3      0.495133
     27 H23         4.2250    1.5040   -1.8110 ha        1 TQ3      0.136000
     28 H24         5.3220    2.8010   -3.6260 ha        1 TQ3      0.171000
     29 H25         5.6390    1.7770   -5.8830 ha        1 TQ3      0.175000
     30 H26         4.8440   -0.5550   -6.3210 ha        1 TQ3      0.171000
     31 H27         3.7310   -1.8560   -4.5110 ha        1 TQ3      0.136000
     32 H73         4.0000    0.7110    1.0260 hn        1 TQ3      0.475467
     33 H143       -1.3320    0.9360    3.4910 hn        1 TQ3      0.495133
@<TRIPOS>BOND
     1    1    2 ar  
     2    1    6 ar  
     3    1    8 ar  
     4    2    3 ar  
     5    2   11 ar  
     6    3    4 ar  
     7    3    7 1   
     8    4    5 ar  
     9    5    6 ar  
    10    5   12 1   
    11    7   20 1   
    12    7   21 1   
    13    7   32 1   
    14    8    9 ar  
    15    8   22 1   
    16    9   10 ar  
    17    9   23 1   
    18   10   11 ar  
    19   10   24 1   
    20   11   13 1   
    21   12   25 1   
    22   12   26 1   
    23   12   33 1   
    24   13   14 1   
    25   14   15 ar  
    26   14   19 ar  
    27   15   16 ar  
    28   15   27 1   
    29   16   17 ar  
    30   16   28 1   
    31   17   18 ar  
    32   17   29 1   
    33   18   19 ar  
    34   18   30 1   
    35   19   31 1   
@<TRIPOS>SUBSTRUCTURE
     1 TQ3         1 TEMP              0 ****  ****    0 ROOT
