@<TRIPOS>MOLECULE
TQ3
   31    33     1     0     0
SMALL
bcc


@<TRIPOS>ATOM
      1 C1         -0.0370   -0.2470    0.0520 ca        1 TQ3      0.481600
      2 C2          1.2630    0.3190   -0.1610 ca        1 TQ3     -0.299600
      3 C3          2.0950    0.4190    1.0470 ca        1 TQ3      0.742200
      4 N4          1.6530    0.0070    2.2570 nb        1 TQ3     -0.839000
      5 C5          0.3610   -0.5200    2.3320 ca        1 TQ3      0.911900
      6 N6         -0.5000   -0.6440    1.2800 nb        1 TQ3     -0.801000
      7 N7          3.3510    0.9840    1.0150 nh        1 TQ3     -0.959500
      8 C8         -0.9180   -0.4200   -1.0690 ca        1 TQ3     -0.181300
      9 C9         -0.5200   -0.0420   -2.3240 ca        1 TQ3     -0.102000
     10 C12         0.7470    0.5380   -2.5220 ca        1 TQ3     -0.142000
     11 C13         1.6260    0.7250   -1.4720 ca        1 TQ3      0.018900
     12 N14        -0.0400   -1.0190    3.5790 nh        1 TQ3     -0.925500
     13 S20         3.0770    1.5690   -1.8290 ss        1 TQ3     -0.131800
     14 C22         3.7910    0.8000   -3.1680 ca        1 TQ3     -0.028100
     15 C23         4.7980    1.5440   -3.8020 ca        1 TQ3     -0.120500
     16 C24         5.5030    1.0010   -4.8710 ca        1 TQ3     -0.118500
     17 C25         5.2050   -0.2840   -5.3280 ca        1 TQ3     -0.129000
     18 C26         4.1990   -1.0230   -4.7070 ca        1 TQ3     -0.118500
     19 C27         3.4960   -0.4840   -3.6300 ca        1 TQ3     -0.120500
     20 HN71        3.9100    0.9470    1.8350 hn        1 TQ3      0.441300
     21 HN72        3.8230    1.0550    0.1390 hn        1 TQ3      0.441300
     22 HC8        -1.9120   -0.8640   -0.8990 ha        1 TQ3      0.155000
     23 HC9        -1.1890   -0.1760   -3.1880 ha        1 TQ3      0.139000
     24 H12         1.0320    0.8550   -3.5390 ha        1 TQ3      0.146000
     25 H141       -1.0170   -1.1520    3.7040 hn        1 TQ3      0.424300
     26 H142        0.4610   -0.6850    4.3700 hn        1 TQ3      0.424300
     27 H23         5.0270    2.5620   -3.4490 ha        1 TQ3      0.143000
     28 H24         6.2940    1.5890   -5.3600 ha        1 TQ3      0.136000
     29 H25         5.7610   -0.7110   -6.1760 ha        1 TQ3      0.135000
     30 H26         3.9580   -2.0360   -5.0620 ha        1 TQ3      0.136000
     31 H27         2.7030   -1.0750   -3.1430 ha        1 TQ3      0.143000
@<TRIPOS>BOND
     1    1    2 ar  
     2    1    6 ar  
     3    1    8 ar  
     4    2    3 ar  
     5    2   11 ar  
     6    3    4 ar  
     7    3    7 1   
     8    4    5 ar  
     9    5    6 ar  
    10    5   12 1   
    11    7   20 1   
    12    7   21 1   
    13    8    9 ar  
    14    8   22 1   
    15    9   10 ar  
    16    9   23 1   
    17   10   11 ar  
    18   10   24 1   
    19   11   13 1   
    20   12   25 1   
    21   12   26 1   
    22   13   14 1   
    23   14   15 ar  
    24   14   19 ar  
    25   15   16 ar  
    26   15   27 1   
    27   16   17 ar  
    28   16   28 1   
    29   17   18 ar  
    30   17   29 1   
    31   18   19 ar  
    32   18   30 1   
    33   19   31 1   
@<TRIPOS>SUBSTRUCTURE
     1 TQ3         1 TEMP              0 ****  ****    0 ROOT
