@<TRIPOS>MOLECULE
TQ3
   31    26     1     0     0
SMALL
bcc


@<TRIPOS>ATOM
      1 C1         -2.3610    0.4520    1.3450 c1        1 TQ3      0.091000
      2 C2         -1.0050    0.3940    1.3070 c1        1 TQ3     -0.175000
      3 C3         -0.2810    0.3470    2.4890 c1        1 TQ3      0.229000
      4 N4         -0.9230    0.3590    3.6710 n1        1 TQ3     -0.318000
      5 C5         -2.2920    0.4170    3.7080 c1        1 TQ3      0.195000
      6 N6         -3.0070    0.4630    2.5440 n1        1 TQ3     -0.277000
      7 N7          1.1370    0.3520    2.4540 n3        1 TQ3     -0.367000
      8 C8         -3.0980    0.5220    0.1420 c1        1 TQ3     -0.119000
      9 C9         -2.4380    0.5320   -1.0760 c1        1 TQ3     -0.123500
     10 C12        -1.0560    0.4730   -1.1150 c1        1 TQ3     -0.123500
     11 C13        -0.3320    0.4040    0.0640 c1        1 TQ3     -0.206000
     12 N14        -2.9680    0.4180    4.9560 n3        1 TQ3     -0.323000
     13 S20         1.4410    0.3930    0.0150 ss        1 TQ3      0.324000
     14 C22         1.9860   -0.1930   -1.5680 c2        1 TQ3     -0.256000
     15 C23         3.1040    0.3690   -2.1660 c2        1 TQ3     -0.114000
     16 C24         3.5870   -0.1490   -3.3570 c1        1 TQ3     -0.120000
     17 C25         2.9520   -1.2290   -3.9510 c1        1 TQ3     -0.123500
     18 C26         1.8350   -1.7900   -3.3540 c1        1 TQ3     -0.123500
     19 C27         1.3520   -1.2720   -2.1620 c1        1 TQ3     -0.125000
     20 HN71        1.6130    0.3500    3.2330 hn        1 TQ3      0.242000
     21 HN72        1.5720    0.3840    1.6540 hn        1 TQ3      0.242000
     22 HC8        -4.0740    0.5630    0.1690 ha        1 TQ3      0.154000
     23 HC9        -2.9490    0.5800   -1.9080 ha        1 TQ3      0.138500
     24 H12        -0.5910    0.4800   -1.9740 ha        1 TQ3      0.138500
     25 H141       -3.8340    0.7050    5.0060 hn        1 TQ3      0.219500
     26 H142       -2.5420    0.1140    5.7060 hn        1 TQ3      0.219500
     27 H23         3.5520    1.1290   -1.7470 ha        1 TQ3      0.143000
     28 H24         4.3740    0.2460   -3.7780 ha        1 TQ3      0.136000
     29 H25         3.2920   -1.5940   -4.7910 ha        1 TQ3      0.138500
     30 H26         1.3880   -2.5510   -3.7720 ha        1 TQ3      0.138500
     31 H27         0.5650   -1.6680   -1.7410 ha        1 TQ3      0.144000
@<TRIPOS>BOND
     1    1    6 1   
     2    1    8 1   
     3    2    3 1   
     4    2   11 1   
     5    3    7 1   
     6    4    5 1   
     7    5   12 1   
     8    7   20 1   
     9    7   21 1   
    10    8   22 1   
    11    9   10 1   
    12    9   23 1   
    13   10   24 1   
    14   11   13 1   
    15   12   25 1   
    16   12   26 1   
    17   13   14 1   
    18   14   15 1   
    19   14   19 1   
    20   15   16 1   
    21   15   27 1   
    22   16   28 1   
    23   17   18 1   
    24   17   29 1   
    25   18   30 1   
    26   19   31 1   
@<TRIPOS>SUBSTRUCTURE
     1 TQ3         1 TEMP              0 ****  ****    0 ROOT
