@<TRIPOS>MOLECULE
TQ3
   31    33     1     0     0
SMALL
bcc


@<TRIPOS>ATOM
      1 C1         -1.2550   -0.2280    2.2430 ca        1 TQ3      0.484600
      2 C2         -0.2500    0.2340    1.3280 ca        1 TQ3     -0.305600
      3 C3          1.1100    0.2810    1.8820 ca        1 TQ3      0.750200
      4 N4          1.3660   -0.0150    3.1790 nb        1 TQ3     -0.844000
      5 C5          0.2820   -0.3600    3.9890 ca        1 TQ3      0.913900
      6 N6         -1.0030   -0.5230    3.5580 nb        1 TQ3     -0.803000
      7 N7          2.1910    0.6330    1.1120 nh        1 TQ3     -0.969500
      8 C8         -2.6000   -0.4020    1.7730 ca        1 TQ3     -0.184300
      9 C9         -2.9240   -0.0980    0.4780 ca        1 TQ3     -0.100000
     10 C12        -1.9470    0.4110   -0.3980 ca        1 TQ3     -0.147000
     11 C13        -0.6370    0.5860    0.0090 ca        1 TQ3      0.020900
     12 N14         0.5460   -0.5110    5.3570 nh        1 TQ3     -0.925500
     13 S20         0.4230    1.3680   -1.0900 ss        1 TQ3     -0.129800
     14 C22         0.2350    0.6130   -2.6030 ca        1 TQ3     -0.029100
     15 C23         0.7250    1.3500   -3.6920 ca        1 TQ3     -0.119500
     16 C24         0.6950    0.8110   -4.9740 ca        1 TQ3     -0.119500
     17 C25         0.1650   -0.4630   -5.1880 ca        1 TQ3     -0.128000
     18 C26        -0.3320   -1.1950   -4.1110 ca        1 TQ3     -0.119500
     19 C27        -0.2950   -0.6610   -2.8230 ca        1 TQ3     -0.119500
     20 HN71        3.1020    0.5930    1.5020 hn        1 TQ3      0.446800
     21 HN72        2.0980    0.6770    0.1210 hn        1 TQ3      0.446800
     22 HC8        -3.3620   -0.7780    2.4740 ha        1 TQ3      0.154000
     23 HC9        -3.9540   -0.2320    0.1110 ha        1 TQ3      0.138000
     24 H12        -2.2450    0.6860   -1.4230 ha        1 TQ3      0.145000
     25 H141        1.4940   -0.6600    5.6120 hn        1 TQ3      0.424300
     26 H142       -0.1340   -1.0090    5.8840 hn        1 TQ3      0.424300
     27 H23         1.1330    2.3600   -3.5260 ha        1 TQ3      0.143500
     28 H24         1.0860    1.3940   -5.8210 ha        1 TQ3      0.136000
     29 H25         0.1370   -0.8850   -6.2020 ha        1 TQ3      0.135000
     30 H26        -0.7530   -2.1980   -4.2720 ha        1 TQ3      0.136000
     31 H27        -0.6880   -1.2460   -1.9760 ha        1 TQ3      0.143500
@<TRIPOS>BOND
     1    1    2 ar  
     2    1    6 ar  
     3    1    8 ar  
     4    2    3 ar  
     5    2   11 ar  
     6    3    4 ar  
     7    3    7 1   
     8    4    5 ar  
     9    5    6 ar  
    10    5   12 1   
    11    7   20 1   
    12    7   21 1   
    13    8    9 ar  
    14    8   22 1   
    15    9   10 ar  
    16    9   23 1   
    17   10   11 ar  
    18   10   24 1   
    19   11   13 1   
    20   12   25 1   
    21   12   26 1   
    22   13   14 1   
    23   14   15 ar  
    24   14   19 ar  
    25   15   16 ar  
    26   15   27 1   
    27   16   17 ar  
    28   16   28 1   
    29   17   18 ar  
    30   17   29 1   
    31   18   19 ar  
    32   18   30 1   
    33   19   31 1   
@<TRIPOS>SUBSTRUCTURE
     1 TQ3         1 TEMP              0 ****  ****    0 ROOT
