@<TRIPOS>MOLECULE
TQ3
   31    33     1     0     0
SMALL
bcc


@<TRIPOS>ATOM
      1 C1         -0.0390   -0.2330    0.0500 ca        1 TQ3      0.481600
      2 C2          1.2600    0.3360   -0.1690 ca        1 TQ3     -0.299600
      3 C3          2.0960    0.4420    1.0350 ca        1 TQ3      0.742200
      4 N4          1.6610    0.0280    2.2480 nb        1 TQ3     -0.839000
      5 C5          0.3720   -0.5050    2.3280 ca        1 TQ3      0.911900
      6 N6         -0.4940   -0.6310    1.2800 nb        1 TQ3     -0.801000
      7 N7          3.3480    1.0140    0.9980 nv        1 TQ3     -0.959500
      8 C8         -0.9240   -0.4080   -1.0670 ca        1 TQ3     -0.181300
      9 C9         -0.5330   -0.0310   -2.3240 ca        1 TQ3     -0.103000
     10 C12         0.7330    0.5500   -2.5290 ca        1 TQ3     -0.141000
     11 C13         1.6170    0.7400   -1.4820 ca        1 TQ3      0.017900
     12 N14        -0.0210   -1.0060    3.5760 nv        1 TQ3     -0.925500
     13 S20         3.0650    1.5840   -1.8510 ss        1 TQ3     -0.132800
     14 C22         3.7870    0.7910   -3.1720 ca        1 TQ3     -0.027100
     15 C23         4.8060    1.5190   -3.8040 ca        1 TQ3     -0.121000
     16 C24         5.5160    0.9570   -4.8610 ca        1 TQ3     -0.118500
     17 C25         5.2120   -0.3310   -5.3050 ca        1 TQ3     -0.129000
     18 C26         4.1940   -1.0540   -4.6850 ca        1 TQ3     -0.118500
     19 C27         3.4850   -0.4960   -3.6220 ca        1 TQ3     -0.121000
     20 HN71        3.9110    0.9810    1.8160 hn        1 TQ3      0.441300
     21 HN72        3.8140    1.0920    0.1200 hn        1 TQ3      0.441300
     22 HC8        -1.9170   -0.8530   -0.8920 ha        1 TQ3      0.155000
     23 HC9        -1.2060   -0.1660   -3.1850 ha        1 TQ3      0.139000
     24 H12         1.0130    0.8650   -3.5470 ha        1 TQ3      0.146000
     25 H141       -0.9970   -1.1430    3.7060 hn        1 TQ3      0.424300
     26 H142        0.4820   -0.6710    4.3650 hn        1 TQ3      0.424300
     27 H23         5.0410    2.5390   -3.4620 ha        1 TQ3      0.143000
     28 H24         6.3170    1.5330   -5.3490 ha        1 TQ3      0.136000
     29 H25         5.7720   -0.7720   -6.1430 ha        1 TQ3      0.135000
     30 H26         3.9480   -2.0680   -5.0310 ha        1 TQ3      0.136000
     31 H27         2.6830   -1.0740   -3.1360 ha        1 TQ3      0.143000
@<TRIPOS>BOND
     1    1    2 ar  
     2    1    6 ar  
     3    1    8 ar  
     4    2    3 ar  
     5    2   11 ar  
     6    3    4 ar  
     7    3    7 1   
     8    4    5 ar  
     9    5    6 ar  
    10    5   12 1   
    11    7   20 1   
    12    7   21 1   
    13    8    9 ar  
    14    8   22 1   
    15    9   10 ar  
    16    9   23 1   
    17   10   11 ar  
    18   10   24 1   
    19   11   13 1   
    20   12   25 1   
    21   12   26 1   
    22   13   14 1   
    23   14   15 ar  
    24   14   19 ar  
    25   15   16 ar  
    26   15   27 1   
    27   16   17 ar  
    28   16   28 1   
    29   17   18 ar  
    30   17   29 1   
    31   18   19 ar  
    32   18   30 1   
    33   19   31 1   
@<TRIPOS>SUBSTRUCTURE
     1 TQ3         1 TEMP              0 ****  ****    0 ROOT
