@<TRIPOS>MOLECULE
TQ4
   34    36     1     0     0
SMALL
bcc


@<TRIPOS>ATOM
      1 C1         -0.0660    0.2010    0.1220 ca        1 TQ4      0.482600
      2 C2          1.2740   -0.2340   -0.1520 ca        1 TQ4     -0.300600
      3 C3          2.1580   -0.2790    1.0200 ca        1 TQ4      0.741200
      4 N4          1.7240    0.0560    2.2570 nb        1 TQ4     -0.839000
      5 C5          0.3910    0.4510    2.3930 ca        1 TQ4      0.911900
      6 N6         -0.5170    0.5190    1.3770 nb        1 TQ4     -0.800000
      7 N7          3.4620   -0.7140    0.9250 nv        1 TQ4     -0.958500
      8 C8         -1.0000    0.3200   -0.9620 ca        1 TQ4     -0.184300
      9 C9         -0.6170    0.0120   -2.2400 ca        1 TQ4     -0.101000
     10 C12         0.6900   -0.4440   -2.4990 ca        1 TQ4     -0.146000
     11 C13         1.6220   -0.5750   -1.4860 ca        1 TQ4      0.020900
     12 N14        -0.0090    0.8720    3.6690 nv        1 TQ4     -0.925500
     13 S20         3.1290   -1.2760   -1.9090 ss        1 TQ4     -0.128800
     14 C22         3.6880   -0.4720   -3.3000 ca        1 TQ4     -0.036100
     15 C23         4.6910   -1.1490   -4.0090 ca        1 TQ4     -0.114500
     16 C24         5.2800   -0.5650   -5.1240 ca        1 TQ4     -0.121000
     17 C25         4.8740    0.7030   -5.5610 ca        1 TQ4     -0.072300
     18 C26         3.8660    1.3720   -4.8590 ca        1 TQ4     -0.121000
     19 C27         3.2800    0.7900   -3.7370 ca        1 TQ4     -0.114500
     20 C32         5.5120    1.3260   -6.7430 c3        1 TQ4     -0.055800
     21 HN71        3.9070   -0.6980    0.0330 hn        1 TQ4      0.440300
     22 HN72        4.0450   -0.6390    1.7270 hn        1 TQ4      0.440300
     23 HC8        -2.0230    0.6640   -0.7450 ha        1 TQ4      0.155000
     24 HC9        -1.3270    0.1050   -3.0770 ha        1 TQ4      0.138000
     25 H12         0.9630   -0.7100   -3.5340 ha        1 TQ4      0.146000
     26 H141        0.5510    0.5660    4.4310 hn        1 TQ4      0.423800
     27 H142       -0.9890    0.9040    3.8320 hn        1 TQ4      0.423800
     28 H23         5.0090   -2.1510   -3.6800 ha        1 TQ4      0.143000
     29 H24         6.0690   -1.1030   -5.6710 ha        1 TQ4      0.136000
     30 H26         3.5330    2.3660   -5.1930 ha        1 TQ4      0.136000
     31 H27         2.4890    1.3310   -3.1930 ha        1 TQ4      0.143000
     32 H321        5.7710    0.5530   -7.5090 hc        1 TQ4      0.046700
     33 H322        6.4550    1.8450   -6.4370 hc        1 TQ4      0.046700
     34 H323        4.8350    2.0790   -7.2160 hc        1 TQ4      0.046700
@<TRIPOS>BOND
     1    1    2 ar  
     2    1    6 ar  
     3    1    8 ar  
     4    2    3 ar  
     5    2   11 ar  
     6    3    4 ar  
     7    3    7 1   
     8    4    5 ar  
     9    5    6 ar  
    10    5   12 1   
    11    7   21 1   
    12    7   22 1   
    13    8    9 ar  
    14    8   23 1   
    15    9   10 ar  
    16    9   24 1   
    17   10   11 ar  
    18   10   25 1   
    19   11   13 1   
    20   12   26 1   
    21   12   27 1   
    22   13   14 1   
    23   14   15 ar  
    24   14   19 ar  
    25   15   16 ar  
    26   15   28 1   
    27   16   17 ar  
    28   16   29 1   
    29   17   18 ar  
    30   17   20 1   
    31   18   19 ar  
    32   18   30 1   
    33   19   31 1   
    34   20   32 1   
    35   20   33 1   
    36   20   34 1   
@<TRIPOS>SUBSTRUCTURE
     1 TQ4         1 TEMP              0 ****  ****    0 ROOT
