@<TRIPOS>MOLECULE
TQ4
   34    29     1     0     0
SMALL
bcc


@<TRIPOS>ATOM
      1 C1         -2.6550   -1.1460    1.4350 c1        1 TQ4      0.089000
      2 C2         -1.2980   -1.1750    1.4140 c1        1 TQ4     -0.170000
      3 C3         -0.5900   -1.2410    2.6040 c1        1 TQ4      0.220000
      4 N4         -1.2490   -1.2750    3.7770 n1        1 TQ4     -0.313000
      5 C5         -2.6190   -1.2450    3.7960 c1        1 TQ4      0.193000
      6 N6         -3.3180   -1.1810    2.6240 n1        1 TQ4     -0.274000
      7 N7          0.8240   -1.3620    2.5820 n3        1 TQ4     -0.356000
      8 C8         -3.3790   -1.1000    0.2220 c1        1 TQ4     -0.119000
      9 C9         -2.7040   -1.0840   -0.9870 c1        1 TQ4     -0.123500
     10 C12        -1.3200   -1.1140   -1.0070 c1        1 TQ4     -0.123500
     11 C13        -0.6100   -1.1590    0.1820 c1        1 TQ4     -0.206000
     12 N14        -3.3110   -1.2870    5.0330 n3        1 TQ4     -0.323000
     13 S20         1.1610   -1.1020    0.1570 ss        1 TQ4      0.324000
     14 C22         1.6950    0.1360   -0.9910 c2        1 TQ4     -0.263000
     15 C23         2.0050   -0.2160   -2.2950 c2        1 TQ4     -0.109000
     16 C24         2.4590    0.7450   -3.1830 c1        1 TQ4     -0.122000
     17 C25         2.6030    2.0600   -2.7680 c1        1 TQ4     -0.065000
     18 C26         2.2930    2.4120   -1.4640 c1        1 TQ4     -0.121000
     19 C27         1.8390    1.4500   -0.5750 c1        1 TQ4     -0.120000
     20 C32         3.0510    3.1160   -3.7480 c3        1 TQ4     -0.181000
     21 HN71        1.2190   -2.0010    2.0610 hn        1 TQ4      0.235500
     22 HN72        1.3370   -0.8240    3.1120 hn        1 TQ4      0.235500
     23 HC8        -4.3550   -1.0790    0.2370 ha        1 TQ4      0.155000
     24 HC9        -3.2040   -1.0520   -1.8250 ha        1 TQ4      0.142000
     25 H12        -0.8450   -1.1030   -1.8600 ha        1 TQ4      0.142000
     26 H141       -2.8430   -1.2980    5.8190 hn        1 TQ4      0.219000
     27 H142       -4.2240   -1.3000    5.0450 hn        1 TQ4      0.219000
     28 H23         1.9040   -1.1410   -2.5870 ha        1 TQ4      0.142000
     29 H24         2.6770    0.4970   -4.1010 ha        1 TQ4      0.136000
     30 H26         2.3940    3.3380   -1.1710 ha        1 TQ4      0.136000
     31 H27         1.6210    1.6980    0.3430 ha        1 TQ4      0.144000
     32 H321        3.3340    3.9160   -3.2600 hc        1 TQ4      0.086000
     33 H322        3.8010    2.7740   -4.2770 hc        1 TQ4      0.086000
     34 H323        2.3080    3.3440   -4.3450 hc        1 TQ4      0.086000
@<TRIPOS>BOND
     1    1    6 1   
     2    1    8 1   
     3    2    3 1   
     4    2   11 1   
     5    3    7 1   
     6    4    5 1   
     7    5   12 1   
     8    7   21 1   
     9    7   22 1   
    10    8   23 1   
    11    9   10 1   
    12    9   24 1   
    13   10   25 1   
    14   11   13 1   
    15   12   26 1   
    16   12   27 1   
    17   13   14 1   
    18   14   15 1   
    19   14   19 1   
    20   15   16 1   
    21   15   28 1   
    22   16   29 1   
    23   17   18 1   
    24   17   20 1   
    25   18   30 1   
    26   19   31 1   
    27   20   32 1   
    28   20   33 1   
    29   20   34 1   
@<TRIPOS>SUBSTRUCTURE
     1 TQ4         1 TEMP              0 ****  ****    0 ROOT
