@<TRIPOS>MOLECULE
TQ4
   36    38     1     0     0
SMALL
bcc


@<TRIPOS>ATOM
      1 C1         -0.1550   -0.2650    0.0450 ca        1 TQ4      0.420600
      2 C2          1.2630   -0.3970   -0.2160 ca        1 TQ4     -0.172600
      3 C3          2.1240    0.0450    0.8630 ca        1 TQ4      0.584200
      4 N4          1.6600    0.4950    2.0400 nb        1 TQ4     -0.685000
      5 C5          0.2770    0.5370    2.1730 ca        1 TQ4      0.703900
      6 N6         -0.6360    0.1950    1.2480 nb        1 TQ4     -0.583000
      7 N7          3.5840    0.0240    0.6960 n4        1 TQ4     -0.925300
      8 C8         -1.0980   -0.6140   -0.9770 ca        1 TQ4     -0.112300
      9 C9         -0.6460   -1.0770   -2.1890 ca        1 TQ4     -0.075000
     10 C12         0.7370   -1.2390   -2.4250 ca        1 TQ4      0.009000
     11 C13         1.6830   -0.9240   -1.4630 ca        1 TQ4     -0.096100
     12 N14        -0.2310    1.0230    3.4890 n4        1 TQ4     -0.810300
     13 S20         3.3230   -1.3330   -1.7920 ss        1 TQ4      0.010200
     14 C22         3.8020   -0.4220   -3.1340 ca        1 TQ4     -0.172100
     15 C23         3.8970   -1.0770   -4.3700 ca        1 TQ4     -0.053000
     16 C24         4.4220   -0.4160   -5.4760 ca        1 TQ4     -0.135500
     17 C25         4.8490    0.9160   -5.3730 ca        1 TQ4      0.028700
     18 C26         4.7380    1.5750   -4.1360 ca        1 TQ4     -0.135500
     19 C27         4.2200    0.9130   -3.0320 ca        1 TQ4     -0.053000
     20 C32         5.4210    1.6140   -6.5440 c3        1 TQ4     -0.087800
     21 HN71        4.0160   -0.5710    1.4120 hn        1 TQ4      0.474467
     22 HN72        3.8210   -0.3960   -0.3420 hn        1 TQ4      0.474467
     23 HC8        -2.1810   -0.5050   -0.7770 ha        1 TQ4      0.202000
     24 HC9        -1.3640   -1.3410   -2.9890 ha        1 TQ4      0.201000
     25 H12         1.0660   -1.6380   -3.4060 ha        1 TQ4      0.193000
     26 H141        0.0920    0.3880    4.2330 hn        1 TQ4      0.494467
     27 H142        0.1300    1.9710    3.6670 hn        1 TQ4      0.494467
     28 H23         3.5690   -2.1260   -4.4650 ha        1 TQ4      0.133000
     29 H24         4.5060   -0.9440   -6.4420 ha        1 TQ4      0.169000
     30 H26         5.0680    2.6230   -4.0480 ha        1 TQ4      0.169000
     31 H27         4.1420    1.4430   -2.0710 ha        1 TQ4      0.133000
     32 H321        4.9660    1.2430   -7.4970 hc        1 TQ4      0.077367
     33 H322        6.5260    1.4250   -6.5910 hc        1 TQ4      0.077367
     34 H323        5.2590    2.7190   -6.4780 hc        1 TQ4      0.077367
     35 H73         3.9640    0.9700    0.7910 hn        1 TQ4      0.474467
     36 H143       -1.2640    1.0450    3.4830 hn        1 TQ4      0.494467
@<TRIPOS>BOND
     1    1    2 ar  
     2    1    6 ar  
     3    1    8 ar  
     4    2    3 ar  
     5    2   11 ar  
     6    3    4 ar  
     7    3    7 1   
     8    4    5 ar  
     9    5    6 ar  
    10    5   12 1   
    11    7   21 1   
    12    7   22 1   
    13    7   35 1   
    14    8    9 ar  
    15    8   23 1   
    16    9   10 ar  
    17    9   24 1   
    18   10   11 ar  
    19   10   25 1   
    20   11   13 1   
    21   12   26 1   
    22   12   27 1   
    23   12   36 1   
    24   13   14 1   
    25   14   15 ar  
    26   14   19 ar  
    27   15   16 ar  
    28   15   28 1   
    29   16   17 ar  
    30   16   29 1   
    31   17   18 ar  
    32   17   20 1   
    33   18   19 ar  
    34   18   30 1   
    35   19   31 1   
    36   20   32 1   
    37   20   33 1   
    38   20   34 1   
@<TRIPOS>SUBSTRUCTURE
     1 TQ4         1 TEMP              0 ****  ****    0 ROOT
