@<TRIPOS>MOLECULE
TQ4
   34    36     1     0     0
SMALL
bcc


@<TRIPOS>ATOM
      1 C1         -0.0620   -0.2740    0.1110 ca        1 TQ4      0.485600
      2 C2          1.2430    0.2760   -0.1200 ca        1 TQ4     -0.306600
      3 C3          2.1180    0.2980    1.0610 ca        1 TQ4      0.748200
      4 N4          1.6840   -0.0980    2.2810 nb        1 TQ4     -0.843000
      5 C5          0.3580   -0.5220    2.3890 ca        1 TQ4      0.913900
      6 N6         -0.5090   -0.6700    1.3450 nb        1 TQ4     -0.803000
      7 N7          3.4200    0.7320    0.9860 nh        1 TQ4     -0.967500
      8 C8         -0.9590   -0.4310   -0.9990 ca        1 TQ4     -0.186300
      9 C9         -0.5840   -0.0290   -2.2530 ca        1 TQ4     -0.099000
     10 C12         0.6740    0.5660   -2.4610 ca        1 TQ4     -0.150000
     11 C13         1.5740    0.7300   -1.4240 ca        1 TQ4      0.022900
     12 N14        -0.1150   -0.7760    3.6840 nh        1 TQ4     -0.925500
     13 S20         3.0050    1.6140   -1.7560 ss        1 TQ4     -0.126800
     14 C22         3.6340    1.0330   -3.2250 ca        1 TQ4     -0.037100
     15 C23         3.3850   -0.2230   -3.7830 ca        1 TQ4     -0.113000
     16 C24         4.0220   -0.6130   -4.9580 ca        1 TQ4     -0.122500
     17 C25         4.9250    0.2460   -5.5950 ca        1 TQ4     -0.071300
     18 C26         5.1740    1.5060   -5.0350 ca        1 TQ4     -0.122500
     19 C27         4.5310    1.8990   -3.8680 ca        1 TQ4     -0.113000
     20 C32         5.5960   -0.1600   -6.8510 c3        1 TQ4     -0.055800
     21 HN71        4.0000    0.6660    1.7880 hn        1 TQ4      0.444800
     22 HN72        3.8540    0.8280    0.0950 hn        1 TQ4      0.444800
     23 HC8        -1.9510   -0.8760   -0.8200 ha        1 TQ4      0.154000
     24 HC9        -1.2670   -0.1500   -3.1080 ha        1 TQ4      0.138000
     25 H12         0.9320    0.9190   -3.4740 ha        1 TQ4      0.145000
     26 H141       -0.9400   -1.3260    3.7500 hn        1 TQ4      0.423800
     27 H142        0.5730   -0.9320    4.3830 hn        1 TQ4      0.423800
     28 H23         2.6780   -0.9120   -3.2920 ha        1 TQ4      0.143000
     29 H24         3.8160   -1.6060   -5.3860 ha        1 TQ4      0.136000
     30 H26         5.8810    2.1910   -5.5270 ha        1 TQ4      0.136000
     31 H27         4.7240    2.8970   -3.4420 ha        1 TQ4      0.143000
     32 H321        5.6480   -1.2730   -6.9380 hc        1 TQ4      0.046700
     33 H322        5.0270    0.2340   -7.7310 hc        1 TQ4      0.046700
     34 H323        6.6360    0.2480   -6.8960 hc        1 TQ4      0.046700
@<TRIPOS>BOND
     1    1    2 ar  
     2    1    6 ar  
     3    1    8 ar  
     4    2    3 ar  
     5    2   11 ar  
     6    3    4 ar  
     7    3    7 1   
     8    4    5 ar  
     9    5    6 ar  
    10    5   12 1   
    11    7   21 1   
    12    7   22 1   
    13    8    9 ar  
    14    8   23 1   
    15    9   10 ar  
    16    9   24 1   
    17   10   11 ar  
    18   10   25 1   
    19   11   13 1   
    20   12   26 1   
    21   12   27 1   
    22   13   14 1   
    23   14   15 ar  
    24   14   19 ar  
    25   15   16 ar  
    26   15   28 1   
    27   16   17 ar  
    28   16   29 1   
    29   17   18 ar  
    30   17   20 1   
    31   18   19 ar  
    32   18   30 1   
    33   19   31 1   
    34   20   32 1   
    35   20   33 1   
    36   20   34 1   
@<TRIPOS>SUBSTRUCTURE
     1 TQ4         1 TEMP              0 ****  ****    0 ROOT
