@<TRIPOS>MOLECULE
TQ4
   34    36     1     0     0
SMALL
bcc


@<TRIPOS>ATOM
      1 C1         -1.2710    0.2610   -2.5750 ca        1 TQ4      0.485600
      2 C2         -0.2620   -0.2240   -1.6790 ca        1 TQ4     -0.306600
      3 C3          1.0970   -0.2470   -2.2380 ca        1 TQ4      0.748200
      4 N4          1.3470    0.0910   -3.5260 nb        1 TQ4     -0.843000
      5 C5          0.2590    0.4540   -4.3220 ca        1 TQ4      0.913900
      6 N6         -1.0260    0.5980   -3.8810 nb        1 TQ4     -0.803000
      7 N7          2.1820   -0.6220   -1.4830 nh        1 TQ4     -0.966500
      8 C8         -2.6150    0.4160   -2.0950 ca        1 TQ4     -0.186300
      9 C9         -2.9330    0.0710   -0.8080 ca        1 TQ4     -0.098000
     10 C12        -1.9500   -0.4640    0.0470 ca        1 TQ4     -0.151000
     11 C13        -0.6410   -0.6220   -0.3700 ca        1 TQ4      0.022900
     12 N14         0.5160    0.6450   -5.6860 nh        1 TQ4     -0.925500
     13 S20         0.4300   -1.4330    0.6930 ss        1 TQ4     -0.126800
     14 C22         0.1950   -0.7850    2.2480 ca        1 TQ4     -0.037100
     15 C23        -0.3300    0.4760    2.5380 ca        1 TQ4     -0.113000
     16 C24        -0.4020    0.9250    3.8540 ca        1 TQ4     -0.122500
     17 C25         0.0560    0.1230    4.9050 ca        1 TQ4     -0.071300
     18 C26         0.5830   -1.1430    4.6130 ca        1 TQ4     -0.122500
     19 C27         0.6450   -1.5950    3.3000 ca        1 TQ4     -0.113000
     20 C32        -0.0290    0.5930    6.3060 c3        1 TQ4     -0.055800
     21 HN71        3.0920   -0.5570   -1.8740 hn        1 TQ4      0.444800
     22 HN72        2.0970   -0.6680   -0.4920 hn        1 TQ4      0.444800
     23 HC8        -3.3810    0.8120   -2.7800 ha        1 TQ4      0.154000
     24 HC9        -3.9610    0.1900   -0.4330 ha        1 TQ4      0.138000
     25 H12        -2.2450   -0.7720    1.0640 ha        1 TQ4      0.145000
     26 H141        1.4630    0.8080   -5.9390 hn        1 TQ4      0.423800
     27 H142       -0.1670    1.1570   -6.1950 hn        1 TQ4      0.423800
     28 H23        -0.6920    1.1210    1.7210 ha        1 TQ4      0.143000
     29 H24        -0.8180    1.9220    4.0680 ha        1 TQ4      0.136000
     30 H26         0.9450   -1.7840    5.4310 ha        1 TQ4      0.136000
     31 H27         1.0500   -2.5970    3.0830 ha        1 TQ4      0.143000
     32 H321       -0.9720    0.2160    6.7780 hc        1 TQ4      0.046700
     33 H322        0.8360    0.2160    6.9060 hc        1 TQ4      0.046700
     34 H323       -0.0350    1.7090    6.3560 hc        1 TQ4      0.046700
@<TRIPOS>BOND
     1    1    2 ar  
     2    1    6 ar  
     3    1    8 ar  
     4    2    3 ar  
     5    2   11 ar  
     6    3    4 ar  
     7    3    7 1   
     8    4    5 ar  
     9    5    6 ar  
    10    5   12 1   
    11    7   21 1   
    12    7   22 1   
    13    8    9 ar  
    14    8   23 1   
    15    9   10 ar  
    16    9   24 1   
    17   10   11 ar  
    18   10   25 1   
    19   11   13 1   
    20   12   26 1   
    21   12   27 1   
    22   13   14 1   
    23   14   15 ar  
    24   14   19 ar  
    25   15   16 ar  
    26   15   28 1   
    27   16   17 ar  
    28   16   29 1   
    29   17   18 ar  
    30   17   20 1   
    31   18   19 ar  
    32   18   30 1   
    33   19   31 1   
    34   20   32 1   
    35   20   33 1   
    36   20   34 1   
@<TRIPOS>SUBSTRUCTURE
     1 TQ4         1 TEMP              0 ****  ****    0 ROOT
