@<TRIPOS>MOLECULE
TQ5
   45    47     1     0     0
SMALL
bcc


@<TRIPOS>ATOM
      1 C1         -0.1480   -0.3050    0.1250 ca        1 TQ5      0.420600
      2 C2          1.2600   -0.4270   -0.1880 ca        1 TQ5     -0.172600
      3 C3          2.1560    0.1440    0.7990 ca        1 TQ5      0.585200
      4 N4          1.7320    0.6990    1.9450 nb        1 TQ5     -0.686000
      5 C5          0.3550    0.7190    2.1390 ca        1 TQ5      0.703900
      6 N6         -0.5880    0.2620    1.2970 nb        1 TQ5     -0.584000
      7 N7          3.6070    0.1430    0.5640 n4        1 TQ5     -0.926300
      8 C8         -1.1240   -0.7800   -0.8110 ca        1 TQ5     -0.112300
      9 C9         -0.7130   -1.3520   -1.9900 ca        1 TQ5     -0.075000
     10 C12         0.6620   -1.5020   -2.2750 ca        1 TQ5      0.010000
     11 C13         1.6400   -1.0670   -1.3940 ca        1 TQ5     -0.097100
     12 N14        -0.1070    1.3230    3.4220 n4        1 TQ5     -0.810300
     13 S20         3.2750   -1.4660   -1.7600 ss        1 TQ5      0.014200
     14 C22         3.6700   -0.6730   -3.1990 ca        1 TQ5     -0.173100
     15 C23         3.7220   -1.4310   -4.3770 ca        1 TQ5     -0.057000
     16 C24         4.1830   -0.8620   -5.5580 ca        1 TQ5     -0.132500
     17 C25         4.5890    0.4830   -5.6040 ca        1 TQ5      0.039700
     18 C26         4.5180    1.2410   -4.4220 ca        1 TQ5     -0.132500
     19 C27         4.0640    0.6710   -3.2400 ca        1 TQ5     -0.057000
     20 C32         5.0830    1.0620   -6.9030 c3        1 TQ5     -0.030700
     21 C33         5.4770    2.5280   -6.7740 c3        1 TQ5     -0.093100
     22 C37         3.9800    0.9500   -7.9530 c3        1 TQ5     -0.093100
     23 C41         6.3070    0.2740   -7.3670 c3        1 TQ5     -0.093100
     24 HN71        4.0890   -0.3580    1.3170 hn        1 TQ5      0.473800
     25 HN72        3.8090   -0.3810   -0.4360 hn        1 TQ5      0.473800
     26 HC8        -2.2000   -0.6790   -0.5720 ha        1 TQ5      0.202000
     27 HC9        -1.4590   -1.7140   -2.7250 ha        1 TQ5      0.201000
     28 H12         0.9590   -1.9890   -3.2250 ha        1 TQ5      0.193000
     29 H141       -1.1400    1.3170    3.4630 hn        1 TQ5      0.494467
     30 H142        0.2320    2.2930    3.4870 hn        1 TQ5      0.494467
     31 H23         3.4130   -2.4900   -4.3640 ha        1 TQ5      0.131500
     32 H24         4.2320   -1.4790   -6.4720 ha        1 TQ5      0.170000
     33 H26         4.8260    2.3000   -4.4190 ha        1 TQ5      0.170000
     34 H27         4.0210    1.2860   -2.3280 ha        1 TQ5      0.131500
     35 H331        5.8340    2.9050   -7.7640 hc        1 TQ5      0.050144
     36 H332        6.3060    2.6540   -6.0360 hc        1 TQ5      0.050144
     37 H333        4.6040    3.1490   -6.4610 hc        1 TQ5      0.050144
     38 H371        3.6990   -0.1160   -8.1240 hc        1 TQ5      0.050144
     39 H372        3.0750    1.5170   -7.6310 hc        1 TQ5      0.050144
     40 H373        4.3420    1.3780   -8.9200 hc        1 TQ5      0.050144
     41 H411        6.6800    0.6990   -8.3300 hc        1 TQ5      0.050144
     42 H412        7.1240    0.3390   -6.6090 hc        1 TQ5      0.050144
     43 H413        6.0500   -0.8000   -7.5310 hc        1 TQ5      0.050144
     44 H73         3.9600    1.1050    0.5370 hn        1 TQ5      0.473800
     45 H143        0.2680    0.7750    4.2100 hn        1 TQ5      0.494467
@<TRIPOS>BOND
     1    1    2 ar  
     2    1    6 ar  
     3    1    8 ar  
     4    2    3 ar  
     5    2   11 ar  
     6    3    4 ar  
     7    3    7 1   
     8    4    5 ar  
     9    5    6 ar  
    10    5   12 1   
    11    7   24 1   
    12    7   25 1   
    13    7   44 1   
    14    8    9 ar  
    15    8   26 1   
    16    9   10 ar  
    17    9   27 1   
    18   10   11 ar  
    19   10   28 1   
    20   11   13 1   
    21   12   29 1   
    22   12   30 1   
    23   12   45 1   
    24   13   14 1   
    25   14   15 ar  
    26   14   19 ar  
    27   15   16 ar  
    28   15   31 1   
    29   16   17 ar  
    30   16   32 1   
    31   17   18 ar  
    32   17   20 1   
    33   18   19 ar  
    34   18   33 1   
    35   19   34 1   
    36   20   21 1   
    37   20   22 1   
    38   20   23 1   
    39   21   35 1   
    40   21   36 1   
    41   21   37 1   
    42   22   38 1   
    43   22   39 1   
    44   22   40 1   
    45   23   41 1   
    46   23   42 1   
    47   23   43 1   
@<TRIPOS>SUBSTRUCTURE
     1 TQ5         1 TEMP              0 ****  ****    0 ROOT
