@<TRIPOS>MOLECULE
TQ5
   43    45     1     0     0
SMALL
bcc


@<TRIPOS>ATOM
      1 C1          0.0310   -0.4600    0.1970 ca        1 TQ5      0.482600
      2 C2          1.2320    0.2710   -0.0860 ca        1 TQ5     -0.300600
      3 C3          2.1740    0.3660    1.0380 ca        1 TQ5      0.740200
      4 N4          1.9080   -0.1880    2.2430 nb        1 TQ5     -0.839000
      5 C5          0.6940   -0.8620    2.3950 ca        1 TQ5      0.910900
      6 N6         -0.2550   -1.0030    1.4230 nb        1 TQ5     -0.800000
      7 N7          3.3550    1.0680    0.9340 nh        1 TQ5     -0.958500
      8 C8         -0.9370   -0.6470   -0.8470 ca        1 TQ5     -0.184300
      9 C9         -0.7190   -0.1250   -2.0930 ca        1 TQ5     -0.100000
     10 C12         0.4470    0.6190   -2.3570 ca        1 TQ5     -0.147000
     11 C13         1.4060    0.8260   -1.3820 ca        1 TQ5      0.021900
     12 N14         0.4810   -1.4970    3.6260 nh        1 TQ5     -0.925500
     13 S20         2.7070    1.8680   -1.7840 ss        1 TQ5     -0.128800
     14 C22         3.3020    1.3710   -3.2980 ca        1 TQ5     -0.035100
     15 C23         3.1290    0.1110   -3.8750 ca        1 TQ5     -0.117000
     16 C24         3.7280   -0.1960   -5.0930 ca        1 TQ5     -0.119000
     17 C25         4.5210    0.7460   -5.7660 ca        1 TQ5     -0.060300
     18 C26         4.6900    2.0080   -5.1840 ca        1 TQ5     -0.119000
     19 C27         4.0840    2.3200   -3.9700 ca        1 TQ5     -0.117000
     20 C32         5.1540    0.3710   -7.0790 c3        1 TQ5     -0.010700
     21 C33         5.9790    1.5080   -7.6720 c3        1 TQ5     -0.086100
     22 C37         4.0630    0.0020   -8.0810 c3        1 TQ5     -0.086100
     23 C41         6.0750   -0.8290   -6.8730 c3        1 TQ5     -0.086100
     24 HN71        3.7280    1.2430    0.0250 hn        1 TQ5      0.440300
     25 HN72        3.9990    1.0260    1.6900 hn        1 TQ5      0.440300
     26 HC8        -1.8530   -1.2190   -0.6250 ha        1 TQ5      0.154000
     27 HC9        -1.4550   -0.2690   -2.8990 ha        1 TQ5      0.138000
     28 H12         0.5840    1.0510   -3.3620 ha        1 TQ5      0.146000
     29 H141       -0.4580   -1.7490    3.8320 hn        1 TQ5      0.423800
     30 H142        1.0220   -1.1690    4.3910 hn        1 TQ5      0.423800
     31 H23         2.5120   -0.6470   -3.3650 ha        1 TQ5      0.142000
     32 H24         3.5770   -1.1960   -5.5270 ha        1 TQ5      0.137500
     33 H26         5.3010    2.7790   -5.6770 ha        1 TQ5      0.137500
     34 H27         4.2190    3.3220   -3.5330 ha        1 TQ5      0.142000
     35 H331        6.8080    1.7950   -6.9820 hc        1 TQ5      0.037811
     36 H332        6.4260    1.1800   -8.6420 hc        1 TQ5      0.037811
     37 H333        5.3370    2.4010   -7.8660 hc        1 TQ5      0.037811
     38 H371        3.3750    0.8670   -8.2400 hc        1 TQ5      0.037811
     39 H372        4.5230   -0.2750   -9.0590 hc        1 TQ5      0.037811
     40 H373        3.4660   -0.8660   -7.7110 hc        1 TQ5      0.037811
     41 H411        6.8780   -0.5780   -6.1380 hc        1 TQ5      0.037811
     42 H412        6.5520   -1.1120   -7.8420 hc        1 TQ5      0.037811
     43 H413        5.5010   -1.7050   -6.4900 hc        1 TQ5      0.037811
@<TRIPOS>BOND
     1    1    2 ar  
     2    1    6 ar  
     3    1    8 ar  
     4    2    3 ar  
     5    2   11 ar  
     6    3    4 ar  
     7    3    7 1   
     8    4    5 ar  
     9    5    6 ar  
    10    5   12 1   
    11    7   24 1   
    12    7   25 1   
    13    8    9 ar  
    14    8   26 1   
    15    9   10 ar  
    16    9   27 1   
    17   10   11 ar  
    18   10   28 1   
    19   11   13 1   
    20   12   29 1   
    21   12   30 1   
    22   13   14 1   
    23   14   15 ar  
    24   14   19 ar  
    25   15   16 ar  
    26   15   31 1   
    27   16   17 ar  
    28   16   32 1   
    29   17   18 ar  
    30   17   20 1   
    31   18   19 ar  
    32   18   33 1   
    33   19   34 1   
    34   20   21 1   
    35   20   22 1   
    36   20   23 1   
    37   21   35 1   
    38   21   36 1   
    39   21   37 1   
    40   22   38 1   
    41   22   39 1   
    42   22   40 1   
    43   23   41 1   
    44   23   42 1   
    45   23   43 1   
@<TRIPOS>SUBSTRUCTURE
     1 TQ5         1 TEMP              0 ****  ****    0 ROOT
