@<TRIPOS>MOLECULE
TQ5
   43    45     1     0     0
SMALL
bcc


@<TRIPOS>ATOM
      1 C1         -1.2140    0.4690   -3.4570 ca        1 TQ5      0.485600
      2 C2         -0.2710   -0.1770   -2.5900 ca        1 TQ5     -0.306600
      3 C3          1.0830   -0.3100   -3.1440 ca        1 TQ5      0.748200
      4 N4          1.3820    0.0780   -4.4060 nb        1 TQ5     -0.843000
      5 C5          0.3460    0.6050   -5.1820 ca        1 TQ5      0.912900
      6 N6         -0.9200    0.8590   -4.7380 nb        1 TQ5     -0.802000
      7 N7          2.1140   -0.8460   -2.4090 nh        1 TQ5     -0.966500
      8 C8         -2.5380    0.7380   -2.9730 ca        1 TQ5     -0.187300
      9 C9         -2.9040    0.3490   -1.7120 ca        1 TQ5     -0.098000
     10 C12        -1.9940   -0.3420   -0.8880 ca        1 TQ5     -0.151000
     11 C13        -0.7050   -0.6140   -1.3100 ca        1 TQ5      0.023900
     12 N14         0.6380    0.8520   -6.5300 nh        1 TQ5     -0.924500
     13 S20         0.2630   -1.6010   -0.2980 ss        1 TQ5     -0.126800
     14 C22         0.0720   -1.0400    1.2960 ca        1 TQ5     -0.037100
     15 C23        -0.3170    0.2480    1.6700 ca        1 TQ5     -0.115500
     16 C24        -0.3610    0.6090    3.0130 ca        1 TQ5     -0.120000
     17 C25        -0.0130   -0.3050    4.0190 ca        1 TQ5     -0.058300
     18 C26         0.3740   -1.5950    3.6390 ca        1 TQ5     -0.120000
     19 C27         0.4090   -1.9610    2.2960 ca        1 TQ5     -0.115500
     20 C32        -0.0710    0.1290    5.4600 c3        1 TQ5     -0.010700
     21 C33         0.3380   -0.9830    6.4180 c3        1 TQ5     -0.086100
     22 C37        -1.4960    0.5550    5.8040 c3        1 TQ5     -0.086100
     23 C41         0.8720    1.3110    5.6710 c3        1 TQ5     -0.086100
     24 HN71        3.0300   -0.8530   -2.7920 hn        1 TQ5      0.444800
     25 HN72        2.0140   -0.9420   -1.4230 hn        1 TQ5      0.444800
     26 HC8        -3.2500    1.2560   -3.6350 ha        1 TQ5      0.154000
     27 HC9        -3.9170    0.5540   -1.3340 ha        1 TQ5      0.138000
     28 H12        -2.3310   -0.6800    0.1050 ha        1 TQ5      0.145000
     29 H141        1.5990    0.9280   -6.7690 hn        1 TQ5      0.423800
     30 H142        0.0180    1.4650   -7.0080 hn        1 TQ5      0.423800
     31 H23        -0.5930    0.9850    0.8980 ha        1 TQ5      0.142500
     32 H24        -0.6720    1.6300    3.2830 ha        1 TQ5      0.137500
     33 H26         0.6530   -2.3460    4.3940 ha        1 TQ5      0.137500
     34 H27         0.7050   -2.9850    2.0160 ha        1 TQ5      0.142500
     35 H331        0.2800   -0.6120    7.4700 hc        1 TQ5      0.037811
     36 H332       -0.3450   -1.8610    6.3180 hc        1 TQ5      0.037811
     37 H333        1.3860   -1.3100    6.2190 hc        1 TQ5      0.037811
     38 H371       -2.2020   -0.2960    5.6500 hc        1 TQ5      0.037811
     39 H372       -1.5490    0.8750    6.8720 hc        1 TQ5      0.037811
     40 H373       -1.8190    1.4080    5.1610 hc        1 TQ5      0.037811
     41 H411        1.9200    1.0190    5.4190 hc        1 TQ5      0.037811
     42 H412        0.5760    2.1720    5.0260 hc        1 TQ5      0.037811
     43 H413        0.8380    1.6380    6.7380 hc        1 TQ5      0.037811
@<TRIPOS>BOND
     1    1    2 ar  
     2    1    6 ar  
     3    1    8 ar  
     4    2    3 ar  
     5    2   11 ar  
     6    3    4 ar  
     7    3    7 1   
     8    4    5 ar  
     9    5    6 ar  
    10    5   12 1   
    11    7   24 1   
    12    7   25 1   
    13    8    9 ar  
    14    8   26 1   
    15    9   10 ar  
    16    9   27 1   
    17   10   11 ar  
    18   10   28 1   
    19   11   13 1   
    20   12   29 1   
    21   12   30 1   
    22   13   14 1   
    23   14   15 ar  
    24   14   19 ar  
    25   15   16 ar  
    26   15   31 1   
    27   16   17 ar  
    28   16   32 1   
    29   17   18 ar  
    30   17   20 1   
    31   18   19 ar  
    32   18   33 1   
    33   19   34 1   
    34   20   21 1   
    35   20   22 1   
    36   20   23 1   
    37   21   35 1   
    38   21   36 1   
    39   21   37 1   
    40   22   38 1   
    41   22   39 1   
    42   22   40 1   
    43   23   41 1   
    44   23   42 1   
    45   23   43 1   
@<TRIPOS>SUBSTRUCTURE
     1 TQ5         1 TEMP              0 ****  ****    0 ROOT
