@<TRIPOS>MOLECULE
TQ5
   43    38     1     0     0
SMALL
bcc


@<TRIPOS>ATOM
      1 C1          0.6680    0.2490    4.5530 c1        1 TQ5      0.089000
      2 C2         -0.3630    0.0540    3.6910 c1        1 TQ5     -0.170000
      3 C3         -1.6060   -0.3250    4.1740 c1        1 TQ5      0.219000
      4 N4         -1.7890   -0.4990    5.4960 n1        1 TQ5     -0.313000
      5 C5         -0.7480   -0.3020    6.3650 c1        1 TQ5      0.192000
      6 N6          0.4780    0.0720    5.8910 n1        1 TQ5     -0.274000
      7 N7         -2.6710   -0.5760    3.2720 n3        1 TQ5     -0.356000
      8 C8          1.9350    0.6390    4.0630 c1        1 TQ5     -0.119000
      9 C9          2.1250    0.8210    2.7030 c1        1 TQ5     -0.123500
     10 C12         1.0740    0.6220    1.8240 c1        1 TQ5     -0.123500
     11 C13        -0.1680    0.2410    2.3040 c1        1 TQ5     -0.205000
     12 N14        -0.9440   -0.4840    7.7590 n3        1 TQ5     -0.323000
     13 S20        -1.5100   -0.0280    1.1760 ss        1 TQ5      0.325000
     14 C22        -0.8930   -0.0250   -0.4880 c2        1 TQ5     -0.262000
     15 C23        -0.5090   -1.2150   -1.0870 c2        1 TQ5     -0.122000
     16 C24        -0.0500   -1.2170   -2.3950 c1        1 TQ5     -0.119000
     17 C25         0.0230   -0.0280   -3.1050 c1        1 TQ5     -0.053000
     18 C26        -0.3610    1.1620   -2.5060 c1        1 TQ5     -0.119000
     19 C27        -0.8190    1.1630   -1.1980 c1        1 TQ5     -0.112000
     20 C32         0.5180   -0.0310   -4.5360 c3        1 TQ5     -0.018000
     21 C33         0.3250    1.3440   -5.1380 c3        1 TQ5     -0.204000
     22 C37        -0.2650   -1.0470   -5.3380 c3        1 TQ5     -0.204000
     23 C41         1.9870   -0.3910   -4.5610 c3        1 TQ5     -0.204000
     24 HN71       -3.5320   -0.6010    3.5780 hn        1 TQ5      0.235500
     25 HN72       -2.4940   -0.7530    2.3950 hn        1 TQ5      0.235500
     26 HC8         2.6750    0.7790    4.6830 ha        1 TQ5      0.154000
     27 HC9         3.0000    1.0910    2.3650 ha        1 TQ5      0.142000
     28 H12         1.2080    0.7510    0.8660 ha        1 TQ5      0.142000
     29 H141       -1.7800   -0.6620    8.0830 hn        1 TQ5      0.219000
     30 H142       -0.2360   -0.4120    8.3330 hn        1 TQ5      0.219000
     31 H23        -0.5600   -2.0530   -0.5870 ha        1 TQ5      0.143000
     32 H24         0.2210   -2.0550   -2.8170 ha        1 TQ5      0.136000
     33 H26        -0.3090    1.9990   -3.0060 ha        1 TQ5      0.139000
     34 H27        -1.0900    2.0010   -0.7760 ha        1 TQ5      0.141000
     35 H331        0.9410    1.9760   -4.7120 hc        1 TQ5      0.077111
     36 H332        0.5080    1.3070   -6.1000 hc        1 TQ5      0.077111
     37 H333       -0.5990    1.6380   -4.9920 hc        1 TQ5      0.077111
     38 H371       -1.2020   -1.0360   -5.0530 hc        1 TQ5      0.077111
     39 H372        0.1120   -1.9400   -5.1900 hc        1 TQ5      0.077111
     40 H373       -0.2110   -0.8230   -6.2910 hc        1 TQ5      0.077111
     41 H411        2.3770   -0.1110   -5.4160 hc        1 TQ5      0.077111
     42 H412        2.4480    0.0650   -3.8270 hc        1 TQ5      0.077111
     43 H413        2.0880   -1.3610   -4.4580 hc        1 TQ5      0.077111
@<TRIPOS>BOND
     1    1    6 1   
     2    1    8 1   
     3    2    3 1   
     4    2   11 1   
     5    3    7 1   
     6    4    5 1   
     7    5   12 1   
     8    7   24 1   
     9    7   25 1   
    10    8   26 1   
    11    9   10 1   
    12    9   27 1   
    13   10   28 1   
    14   11   13 1   
    15   12   29 1   
    16   12   30 1   
    17   13   14 1   
    18   14   15 1   
    19   14   19 1   
    20   15   16 1   
    21   15   31 1   
    22   16   32 1   
    23   17   18 1   
    24   17   20 1   
    25   18   33 1   
    26   19   34 1   
    27   20   21 1   
    28   20   22 1   
    29   20   23 1   
    30   21   35 1   
    31   21   36 1   
    32   21   37 1   
    33   22   38 1   
    34   22   39 1   
    35   22   40 1   
    36   23   41 1   
    37   23   42 1   
    38   23   43 1   
@<TRIPOS>SUBSTRUCTURE
     1 TQ5         1 TEMP              0 ****  ****    0 ROOT
