@<TRIPOS>MOLECULE
TQ5
   43    45     1     0     0
SMALL
bcc


@<TRIPOS>ATOM
      1 C1          0.0210   -0.4460    0.1910 ca        1 TQ5      0.482600
      2 C2          1.2310    0.2730   -0.0880 ca        1 TQ5     -0.300600
      3 C3          2.1740    0.3500    1.0370 ca        1 TQ5      0.740200
      4 N4          1.9020   -0.2080    2.2390 nb        1 TQ5     -0.839000
      5 C5          0.6800   -0.8690    2.3860 ca        1 TQ5      0.910900
      6 N6         -0.2700   -0.9930    1.4140 nb        1 TQ5     -0.800000
      7 N7          3.3630    1.0390    0.9370 nv        1 TQ5     -0.958500
      8 C8         -0.9490   -0.6170   -0.8530 ca        1 TQ5     -0.184300
      9 C9         -0.7240   -0.0900   -2.0970 ca        1 TQ5     -0.100000
     10 C12         0.4510    0.6430   -2.3560 ca        1 TQ5     -0.147000
     11 C13         1.4110    0.8330   -1.3800 ca        1 TQ5      0.021900
     12 N14         0.4600   -1.5090    3.6140 nv        1 TQ5     -0.925500
     13 S20         2.7240    1.8630   -1.7760 ss        1 TQ5     -0.128800
     14 C22         3.3140    1.3680   -3.2930 ca        1 TQ5     -0.035100
     15 C23         3.1260    0.1130   -3.8780 ca        1 TQ5     -0.117000
     16 C24         3.7230   -0.1930   -5.0970 ca        1 TQ5     -0.119000
     17 C25         4.5270    0.7440   -5.7640 ca        1 TQ5     -0.060300
     18 C26         4.7110    2.0000   -5.1740 ca        1 TQ5     -0.119000
     19 C27         4.1070    2.3110   -3.9580 ca        1 TQ5     -0.117000
     20 C32         5.1570    0.3700   -7.0790 c3        1 TQ5     -0.010700
     21 C33         5.9960    1.4990   -7.6640 c3        1 TQ5     -0.086100
     22 C37         4.0620    0.0190   -8.0830 c3        1 TQ5     -0.086100
     23 C41         6.0640   -0.8430   -6.8790 c3        1 TQ5     -0.086100
     24 HN71        4.0070    0.9840    1.6920 hn        1 TQ5      0.440300
     25 HN72        3.7380    1.2150    0.0290 hn        1 TQ5      0.440300
     26 HC8        -1.8700   -1.1790   -0.6350 ha        1 TQ5      0.154000
     27 HC9        -1.4610   -0.2210   -2.9040 ha        1 TQ5      0.138000
     28 H12         0.5930    1.0780   -3.3590 ha        1 TQ5      0.146000
     29 H141       -0.4820   -1.7510    3.8180 hn        1 TQ5      0.423800
     30 H142        1.0050   -1.1910    4.3810 hn        1 TQ5      0.423800
     31 H23         2.5010   -0.6400   -3.3730 ha        1 TQ5      0.142000
     32 H24         3.5600   -1.1880   -5.5380 ha        1 TQ5      0.137500
     33 H26         5.3310    2.7670   -5.6620 ha        1 TQ5      0.137500
     34 H27         4.2540    3.3090   -3.5150 ha        1 TQ5      0.142000
     35 H331        6.4410    1.1720   -8.6350 hc        1 TQ5      0.037811
     36 H332        6.8270    1.7720   -6.9710 hc        1 TQ5      0.037811
     37 H333        5.3650    2.4010   -7.8530 hc        1 TQ5      0.037811
     38 H371        4.5200   -0.2570   -9.0630 hc        1 TQ5      0.037811
     39 H372        3.4550   -0.8430   -7.7200 hc        1 TQ5      0.037811
     40 H373        3.3850    0.8930   -8.2380 hc        1 TQ5      0.037811
     41 H411        6.5380   -1.1260   -7.8490 hc        1 TQ5      0.037811
     42 H412        6.8680   -0.6070   -6.1430 hc        1 TQ5      0.037811
     43 H413        5.4780   -1.7150   -6.5020 hc        1 TQ5      0.037811
@<TRIPOS>BOND
     1    1    2 ar  
     2    1    6 ar  
     3    1    8 ar  
     4    2    3 ar  
     5    2   11 ar  
     6    3    4 ar  
     7    3    7 1   
     8    4    5 ar  
     9    5    6 ar  
    10    5   12 1   
    11    7   24 1   
    12    7   25 1   
    13    8    9 ar  
    14    8   26 1   
    15    9   10 ar  
    16    9   27 1   
    17   10   11 ar  
    18   10   28 1   
    19   11   13 1   
    20   12   29 1   
    21   12   30 1   
    22   13   14 1   
    23   14   15 ar  
    24   14   19 ar  
    25   15   16 ar  
    26   15   31 1   
    27   16   17 ar  
    28   16   32 1   
    29   17   18 ar  
    30   17   20 1   
    31   18   19 ar  
    32   18   33 1   
    33   19   34 1   
    34   20   21 1   
    35   20   22 1   
    36   20   23 1   
    37   21   35 1   
    38   21   36 1   
    39   21   37 1   
    40   22   38 1   
    41   22   39 1   
    42   22   40 1   
    43   23   41 1   
    44   23   42 1   
    45   23   43 1   
@<TRIPOS>SUBSTRUCTURE
     1 TQ5         1 TEMP              0 ****  ****    0 ROOT
