@<TRIPOS>MOLECULE
TQ6
   46    49     1     0     0
SMALL
bcc


@<TRIPOS>ATOM
      1 C1         -0.3600    0.1110    0.2120 ca        1 TQ6      0.590200
      2 N2          0.7950    0.7170   -0.1040 nb        1 TQ6     -0.691000
      3 C3          1.6700    0.9480    0.9520 ca        1 TQ6      0.700900
      4 N4          1.4730    0.6530    2.2480 nb        1 TQ6     -0.587000
      5 C5         -2.0900   -1.2550    3.2940 ca        1 TQ6      0.004000
      6 C6         -1.8690   -0.9960    1.9510 ca        1 TQ6     -0.111100
      7 C7         -0.6940   -0.3080    1.5600 ca        1 TQ6     -0.172600
      8 C8          0.2870    0.0340    2.5670 ca        1 TQ6      0.418600
      9 C9          0.0230   -0.2690    3.9410 ca        1 TQ6     -0.117300
     10 C10        -1.1560   -0.8870    4.2860 ca        1 TQ6     -0.075000
     11 N11         2.9600    1.6030    0.5880 n4        1 TQ6     -0.810300
     12 N12        -1.3150   -0.1110   -0.8800 n4        1 TQ6     -0.941300
     13 S21        -2.9810   -1.6650    0.8130 ss        1 TQ6      0.077200
     14 C22        -4.4780   -0.9980    1.0980 ca        1 TQ6     -0.285100
     15 C23        -4.9080    0.2130    0.5260 ca        1 TQ6      0.002000
     16 C24        -6.2010    0.6590    0.6560 ca        1 TQ6     -0.224500
     17 C25        -7.1710   -0.0880    1.4080 ca        1 TQ6      0.281600
     18 C26        -6.7210   -1.3230    1.9820 ca        1 TQ6     -0.224500
     19 C27        -5.4180   -1.7420    1.8390 ca        1 TQ6      0.002000
     20 C32       -10.7810    0.1630    2.5280 c3        1 TQ6      0.114900
     21 C33        -9.4340   -0.5000    2.2110 c3        1 TQ6      0.161300
     22 N34        -8.4460    0.3710    1.5950 nh        1 TQ6     -0.616000
     23 C35        -8.9010    1.5380    0.8580 c3        1 TQ6      0.161300
     24 C36       -10.2810    2.0690    1.2690 c3        1 TQ6      0.114900
     25 O37       -11.2080    1.0170    1.4790 os        1 TQ6     -0.380600
     26 HC5        -3.0200   -1.7730    3.6040 ha        1 TQ6      0.189000
     27 HC9         0.7710   -0.0010    4.7110 ha        1 TQ6      0.199000
     28 H10        -1.3750   -1.1160    5.3460 ha        1 TQ6      0.197000
     29 H111        3.4790    0.9930   -0.0590 hn        1 TQ6      0.492800
     30 H112        2.7690    2.5050    0.1310 hn        1 TQ6      0.492800
     31 H121       -0.8860   -0.6740   -1.6200 hn        1 TQ6      0.467467
     32 H122       -2.2450   -0.6800   -0.4430 hn        1 TQ6      0.467467
     33 H23        -4.1940    0.8190   -0.0560 ha        1 TQ6      0.126000
     34 H24        -6.4860    1.6010    0.1620 ha        1 TQ6      0.161000
     35 H26        -7.4190   -1.9660    2.5410 ha        1 TQ6      0.161000
     36 H27        -5.1080   -2.6990    2.2960 ha        1 TQ6      0.126000
     37 H331       -9.6150   -1.3790    1.5250 h1        1 TQ6      0.064950
     38 H332       -9.0170   -0.8850    3.1870 h1        1 TQ6      0.064950
     39 H351       -8.9240    1.2830   -0.2420 h1        1 TQ6      0.064950
     40 H352       -8.1630    2.3770    1.0180 h1        1 TQ6      0.064950
     41 H361      -10.7180    2.6700    0.4270 h1        1 TQ6      0.077200
     42 H362      -10.1990    2.7010    2.1930 h1        1 TQ6      0.077200
     43 H321      -10.7180    0.7370    3.4900 h1        1 TQ6      0.077200
     44 H113        3.5260    1.7620    1.4370 hn        1 TQ6      0.492800
     45 H123       -1.6040    0.7850   -1.2820 hn        1 TQ6      0.467467
     46 H322      -11.5790   -0.6240    2.5990 h1        1 TQ6      0.077200
@<TRIPOS>BOND
     1    1    2 ar  
     2    1    7 ar  
     3    1   12 1   
     4    2    3 ar  
     5    3    4 ar  
     6    3   11 1   
     7    4    8 ar  
     8    5    6 ar  
     9    5   10 ar  
    10    5   26 1   
    11    6    7 ar  
    12    6   13 1   
    13    7    8 ar  
    14    8    9 ar  
    15    9   10 ar  
    16    9   27 1   
    17   10   28 1   
    18   11   29 1   
    19   11   30 1   
    20   11   44 1   
    21   12   31 1   
    22   12   32 1   
    23   12   45 1   
    24   13   14 1   
    25   14   15 ar  
    26   14   19 ar  
    27   15   16 ar  
    28   15   33 1   
    29   16   17 ar  
    30   16   34 1   
    31   17   18 ar  
    32   17   22 1   
    33   18   19 ar  
    34   18   35 1   
    35   19   36 1   
    36   20   21 1   
    37   20   25 1   
    38   20   43 1   
    39   20   46 1   
    40   21   22 1   
    41   21   37 1   
    42   21   38 1   
    43   22   23 1   
    44   23   24 1   
    45   23   39 1   
    46   23   40 1   
    47   24   25 1   
    48   24   41 1   
    49   24   42 1   
@<TRIPOS>SUBSTRUCTURE
     1 TQ6         1 TEMP              0 ****  ****    0 ROOT
