@<TRIPOS>MOLECULE
TQ6
   44    47     1     0     0
SMALL
bcc


@<TRIPOS>ATOM
      1 C1         -0.0680    0.1740    0.0110 ca        1 TQ6      0.742200
      2 N2          1.2080   -0.1930   -0.2530 nb        1 TQ6     -0.840000
      3 C3          2.0150   -0.5480    0.8310 ca        1 TQ6      0.911900
      4 N4          1.5900   -0.6660    2.1230 nb        1 TQ6     -0.800000
      5 C5         -2.3010    0.4970    3.0860 ca        1 TQ6     -0.165000
      6 C6         -1.8980    0.6320    1.7700 ca        1 TQ6      0.030900
      7 C7         -0.6050    0.1910    1.3770 ca        1 TQ6     -0.309600
      8 C8          0.2930   -0.3010    2.3820 ca        1 TQ6      0.487600
      9 C9         -0.1730   -0.4300    3.7330 ca        1 TQ6     -0.195300
     10 C10        -1.4470   -0.0510    4.0610 ca        1 TQ6     -0.092000
     11 N11         3.3730   -0.7630    0.5570 nv        1 TQ6     -0.924500
     12 N12        -0.8350    0.5510   -1.0710 nv        1 TQ6     -0.960500
     13 S21        -2.9340    1.4510    0.6830 ss        1 TQ6     -0.118800
     14 C22        -4.5330    1.0680    1.1150 ca        1 TQ6     -0.074100
     15 C23        -5.4880    2.0640    0.8700 ca        1 TQ6     -0.080000
     16 C24        -6.8380    1.8260    1.0770 ca        1 TQ6     -0.170000
     17 C25        -7.2880    0.5730    1.5630 ca        1 TQ6      0.152600
     18 C26        -6.3150   -0.4200    1.8170 ca        1 TQ6     -0.170000
     19 C27        -4.9650   -0.1680    1.5960 ca        1 TQ6     -0.080000
     20 C32       -10.4950   -0.8800    2.9430 c3        1 TQ6      0.122900
     21 C33        -9.0180   -0.8550    2.5260 c3        1 TQ6      0.150300
     22 N34        -8.6590    0.3880    1.8590 nh        1 TQ6     -0.634000
     23 C35        -9.5900    0.7430    0.7950 c3        1 TQ6      0.150300
     24 C36       -11.0510    0.6720    1.2580 c3        1 TQ6      0.122900
     25 O37       -11.3550   -0.5840    1.8500 os        1 TQ6     -0.411600
     26 HC5        -3.3030    0.8360    3.3940 ha        1 TQ6      0.145000
     27 HC9         0.5130   -0.8340    4.4950 ha        1 TQ6      0.153000
     28 H10        -1.8120   -0.1510    5.0950 ha        1 TQ6      0.137000
     29 H111        3.8830   -1.2720    1.2420 hn        1 TQ6      0.423800
     30 H112        3.6100   -0.9470   -0.3900 hn        1 TQ6      0.423800
     31 H121       -0.4560    0.4460   -1.9830 hn        1 TQ6      0.439800
     32 H122       -1.8270    0.5370   -0.9820 hn        1 TQ6      0.439800
     33 H23        -5.1600    3.0530    0.5090 ha        1 TQ6      0.143500
     34 H24        -7.5540    2.6390    0.8810 ha        1 TQ6      0.139000
     35 H26        -6.6040   -1.4140    2.1910 ha        1 TQ6      0.139000
     36 H27        -4.2290   -0.9610    1.8050 ha        1 TQ6      0.143500
     37 H322      -10.6840   -0.1560    3.7790 h1        1 TQ6      0.057700
     38 H331       -8.8200   -1.7480    1.8650 h1        1 TQ6      0.048950
     39 H332       -8.3880   -0.9510    3.4540 h1        1 TQ6      0.048950
     40 H351       -9.4630    0.0590   -0.0940 h1        1 TQ6      0.048950
     41 H352       -9.3780    1.7950    0.4610 h1        1 TQ6      0.048950
     42 H361      -11.2780    1.4960    1.9850 h1        1 TQ6      0.057700
     43 H362      -11.7350    0.7390    0.3720 h1        1 TQ6      0.057700
     44 H321      -10.7840   -1.9170    3.2560 h1        1 TQ6      0.057700
@<TRIPOS>BOND
     1    1    2 ar  
     2    1    7 ar  
     3    1   12 1   
     4    2    3 ar  
     5    3    4 ar  
     6    3   11 1   
     7    4    8 ar  
     8    5    6 ar  
     9    5   10 ar  
    10    5   26 1   
    11    6    7 ar  
    12    6   13 1   
    13    7    8 ar  
    14    8    9 ar  
    15    9   10 ar  
    16    9   27 1   
    17   10   28 1   
    18   11   29 1   
    19   11   30 1   
    20   12   31 1   
    21   12   32 1   
    22   13   14 1   
    23   14   15 ar  
    24   14   19 ar  
    25   15   16 ar  
    26   15   33 1   
    27   16   17 ar  
    28   16   34 1   
    29   17   18 ar  
    30   17   22 1   
    31   18   19 ar  
    32   18   35 1   
    33   19   36 1   
    34   20   21 1   
    35   20   25 1   
    36   20   37 1   
    37   20   44 1   
    38   21   22 1   
    39   21   38 1   
    40   21   39 1   
    41   22   23 1   
    42   23   24 1   
    43   23   40 1   
    44   23   41 1   
    45   24   25 1   
    46   24   42 1   
    47   24   43 1   
@<TRIPOS>SUBSTRUCTURE
     1 TQ6         1 TEMP              0 ****  ****    0 ROOT
