@<TRIPOS>MOLECULE
TQ6
   44    47     1     0     0
SMALL
bcc


@<TRIPOS>ATOM
      1 C1          1.1180    0.0480    3.9620 ca        1 TQ6      0.742200
      2 N2          1.2590   -0.3070    5.2600 nb        1 TQ6     -0.841000
      3 C3          0.0940   -0.5520    5.9930 ca        1 TQ6      0.911900
      4 N4         -1.1690   -0.5760    5.4760 nb        1 TQ6     -0.800000
      5 C5         -1.7520    0.5600    1.5030 ca        1 TQ6     -0.164000
      6 C6         -0.4610    0.5990    1.9990 ca        1 TQ6      0.030900
      7 C7         -0.2000    0.1610    3.3250 ca        1 TQ6     -0.309600
      8 C8         -1.3040   -0.2250    4.1570 ca        1 TQ6      0.487600
      9 C9         -2.6240   -0.2560    3.5960 ca        1 TQ6     -0.194300
     10 C10        -2.8280    0.1160    2.2940 ca        1 TQ6     -0.092000
     11 N11         0.2520   -0.7550    7.3700 nh        1 TQ6     -0.924500
     12 N12         2.2790    0.3160    3.2690 nh        1 TQ6     -0.960500
     13 S21         0.7610    1.3000    1.0290 ss        1 TQ6     -0.119800
     14 C22         0.4150    0.9090   -0.5900 ca        1 TQ6     -0.074100
     15 C23         0.8110    1.8550   -1.5450 ca        1 TQ6     -0.080000
     16 C24         0.6830    1.5980   -2.9010 ca        1 TQ6     -0.170000
     17 C25         0.1280    0.3770   -3.3590 ca        1 TQ6      0.152600
     18 C26        -0.2790   -0.5650   -2.3860 ca        1 TQ6     -0.170000
     19 C27        -0.1350   -0.2950   -1.0300 ca        1 TQ6     -0.080000
     20 C32        -1.1350   -1.0460   -6.6270 c3        1 TQ6      0.122900
     21 C33        -0.8250   -1.0140   -5.1240 c3        1 TQ6      0.150300
     22 N34        -0.0840    0.1790   -4.7440 nh        1 TQ6     -0.634000
     23 C35         1.0710    0.4190   -5.6000 c3        1 TQ6      0.150300
     24 C36         0.7110    0.3470   -7.0900 c3        1 TQ6      0.122900
     25 O37         0.0380   -0.8650   -7.4110 os        1 TQ6     -0.411600
     26 HC5        -1.9580    0.8970    0.4740 ha        1 TQ6      0.145000
     27 HC9        -3.4630   -0.5790    4.2320 ha        1 TQ6      0.153000
     28 H10        -3.8380    0.0910    1.8560 ha        1 TQ6      0.137000
     29 H111        1.1610   -1.0080    7.6790 hn        1 TQ6      0.423800
     30 H112       -0.5070   -1.1930    7.8390 hn        1 TQ6      0.423800
     31 H121        3.1510    0.1470    3.7160 hn        1 TQ6      0.439800
     32 H122        2.2610    0.2840    2.2730 hn        1 TQ6      0.439800
     33 H23         1.2290    2.8200   -1.2120 ha        1 TQ6      0.143500
     34 H24         0.9980    2.3720   -3.6180 ha        1 TQ6      0.139000
     35 H26        -0.7130   -1.5320   -2.6810 ha        1 TQ6      0.139000
     36 H27        -0.4630   -1.0480   -0.2940 ha        1 TQ6      0.143500
     37 H322       -1.8910   -0.2610   -6.8930 h1        1 TQ6      0.057700
     38 H331       -0.2570   -1.9530   -4.8590 h1        1 TQ6      0.048950
     39 H332       -1.8010   -1.0160   -4.5630 h1        1 TQ6      0.048950
     40 H351        1.4760    1.4460   -5.3870 h1        1 TQ6      0.048950
     41 H352        1.8880   -0.3320   -5.3930 h1        1 TQ6      0.048950
     42 H361        1.6460    0.3210   -7.7080 h1        1 TQ6      0.057700
     43 H362        0.0740    1.2210   -7.3880 h1        1 TQ6      0.057700
     44 H321       -1.5120   -2.0610   -6.9170 h1        1 TQ6      0.057700
@<TRIPOS>BOND
     1    1    2 ar  
     2    1    7 ar  
     3    1   12 1   
     4    2    3 ar  
     5    3    4 ar  
     6    3   11 1   
     7    4    8 ar  
     8    5    6 ar  
     9    5   10 ar  
    10    5   26 1   
    11    6    7 ar  
    12    6   13 1   
    13    7    8 ar  
    14    8    9 ar  
    15    9   10 ar  
    16    9   27 1   
    17   10   28 1   
    18   11   29 1   
    19   11   30 1   
    20   12   31 1   
    21   12   32 1   
    22   13   14 1   
    23   14   15 ar  
    24   14   19 ar  
    25   15   16 ar  
    26   15   33 1   
    27   16   17 ar  
    28   16   34 1   
    29   17   18 ar  
    30   17   22 1   
    31   18   19 ar  
    32   18   35 1   
    33   19   36 1   
    34   20   21 1   
    35   20   25 1   
    36   20   37 1   
    37   20   44 1   
    38   21   22 1   
    39   21   38 1   
    40   21   39 1   
    41   22   23 1   
    42   23   24 1   
    43   23   40 1   
    44   23   41 1   
    45   24   25 1   
    46   24   42 1   
    47   24   43 1   
@<TRIPOS>SUBSTRUCTURE
     1 TQ6         1 TEMP              0 ****  ****    0 ROOT
