@<TRIPOS>MOLECULE
TQ6
   44    47     1     0     0
SMALL
bcc


@<TRIPOS>ATOM
      1 C1         -0.0860    0.2600    0.0140 ca        1 TQ6      0.736200
      2 N2          1.1580   -0.1790   -0.2850 nb        1 TQ6     -0.837000
      3 C3          1.9340   -0.6920    0.7580 ca        1 TQ6      0.909900
      4 N4          1.5360   -0.7900    2.0590 nb        1 TQ6     -0.798000
      5 C5         -2.2800    0.5200    3.1240 ca        1 TQ6     -0.161000
      6 C6         -1.8910    0.6840    1.8070 ca        1 TQ6      0.028900
      7 C7         -0.6190    0.2150    1.3810 ca        1 TQ6     -0.304600
      8 C8          0.2660   -0.3620    2.3530 ca        1 TQ6      0.484600
      9 C9         -0.1820   -0.5100    3.7080 ca        1 TQ6     -0.192300
     10 C10        -1.4330   -0.0870    4.0700 ca        1 TQ6     -0.094000
     11 N11         3.1890   -1.2090    0.4070 nh        1 TQ6     -0.925500
     12 N12        -0.8140    0.8010   -1.0280 nh        1 TQ6     -0.953500
     13 S21        -2.9300    1.5630    0.7700 ss        1 TQ6     -0.120800
     14 C22        -4.5260    1.1390    1.1740 ca        1 TQ6     -0.072100
     15 C23        -5.4950    2.1240    0.9420 ca        1 TQ6     -0.082000
     16 C24        -6.8430    1.8610    1.1330 ca        1 TQ6     -0.168000
     17 C25        -7.2760    0.5900    1.5870 ca        1 TQ6      0.150600
     18 C26        -6.2890   -0.3930    1.8280 ca        1 TQ6     -0.168000
     19 C27        -4.9420   -0.1140    1.6230 ca        1 TQ6     -0.082000
     20 C32       -10.4700   -0.9450    2.9080 c3        1 TQ6      0.122900
     21 C33        -8.9900   -0.8860    2.5060 c3        1 TQ6      0.150300
     22 N34        -8.6470    0.3760    1.8680 nh        1 TQ6     -0.633000
     23 C35        -9.5730    0.7350    0.8020 c3        1 TQ6      0.150300
     24 C36       -11.0370    0.6310    1.2480 c3        1 TQ6      0.122900
     25 O37       -11.3260   -0.6420    1.8130 os        1 TQ6     -0.411600
     26 HC5        -3.2680    0.8810    3.4560 ha        1 TQ6      0.145000
     27 HC9         0.4960   -0.9690    4.4440 ha        1 TQ6      0.154000
     28 H10        -1.7860   -0.2030    5.1070 ha        1 TQ6      0.137000
     29 H111        3.5720   -0.8910   -0.4530 hn        1 TQ6      0.423800
     30 H112        3.8340   -1.3340    1.1530 hn        1 TQ6      0.423800
     31 H121       -0.4420    0.7220   -1.9470 hn        1 TQ6      0.436300
     32 H122       -1.8080    0.8140   -0.9480 hn        1 TQ6      0.436300
     33 H23        -5.1810    3.1260    0.6050 ha        1 TQ6      0.143500
     34 H24        -7.5710    2.6660    0.9490 ha        1 TQ6      0.139000
     35 H26        -6.5650   -1.3990    2.1760 ha        1 TQ6      0.139000
     36 H27        -4.1940   -0.9000    1.8210 ha        1 TQ6      0.143500
     37 H322      -10.6790   -0.2410    3.7560 h1        1 TQ6      0.057450
     38 H331       -8.7710   -1.7620    1.8290 h1        1 TQ6      0.048950
     39 H332       -8.3670   -0.9910    3.4380 h1        1 TQ6      0.048950
     40 H351       -9.3760    1.7970    0.4890 h1        1 TQ6      0.048950
     41 H352       -9.4260    0.0710   -0.0990 h1        1 TQ6      0.048950
     42 H361      -11.2850    1.4370    1.9890 h1        1 TQ6      0.057450
     43 H362      -11.7140    0.7030    0.3570 h1        1 TQ6      0.057450
     44 H321      -10.7450   -1.9930    3.1980 h1        1 TQ6      0.057450
@<TRIPOS>BOND
     1    1    2 ar  
     2    1    7 ar  
     3    1   12 1   
     4    2    3 ar  
     5    3    4 ar  
     6    3   11 1   
     7    4    8 ar  
     8    5    6 ar  
     9    5   10 ar  
    10    5   26 1   
    11    6    7 ar  
    12    6   13 1   
    13    7    8 ar  
    14    8    9 ar  
    15    9   10 ar  
    16    9   27 1   
    17   10   28 1   
    18   11   29 1   
    19   11   30 1   
    20   12   31 1   
    21   12   32 1   
    22   13   14 1   
    23   14   15 ar  
    24   14   19 ar  
    25   15   16 ar  
    26   15   33 1   
    27   16   17 ar  
    28   16   34 1   
    29   17   18 ar  
    30   17   22 1   
    31   18   19 ar  
    32   18   35 1   
    33   19   36 1   
    34   20   21 1   
    35   20   25 1   
    36   20   37 1   
    37   20   44 1   
    38   21   22 1   
    39   21   38 1   
    40   21   39 1   
    41   22   23 1   
    42   23   24 1   
    43   23   40 1   
    44   23   41 1   
    45   24   25 1   
    46   24   42 1   
    47   24   43 1   
@<TRIPOS>SUBSTRUCTURE
     1 TQ6         1 TEMP              0 ****  ****    0 ROOT
