@<TRIPOS>MOLECULE
TQ8
   41    42     1     0     0
SMALL
bcc


@<TRIPOS>ATOM
      1 C1          0.9190    1.2860    0.0080 c3        1 TQ8      0.150500
      2 N2          0.3250    0.0360   -0.3670 n3        1 TQ8     -0.902100
      3 C3          2.2170    1.6230   -0.7580 c3        1 TQ8     -0.043100
      4 C4         -0.0340    2.4740   -0.2240 c         1 TQ8      0.537100
      5 O5         -0.7330    2.5640   -1.2310 o         1 TQ8     -0.487100
      6 C6          3.3330    0.7050   -0.4150 ca        1 TQ8     -0.095300
      7 C7          3.8090   -0.2140   -1.3560 ca        1 TQ8     -0.119500
      8 C8          3.9370    0.7710    0.8470 ca        1 TQ8     -0.119500
      9 C9          4.8720   -1.0590   -1.0360 ca        1 TQ8     -0.123000
     10 C10         4.9980   -0.0750    1.1640 ca        1 TQ8     -0.123000
     11 C11         5.4670   -0.9910    0.2230 ca        1 TQ8     -0.122000
     12 S12        -0.0020   -1.1830    0.6560 sy        1 TQ8      1.524200
     13 O13         0.5780   -2.3740    0.1800 o         1 TQ8     -0.654300
     14 O14         0.3190   -0.7870    1.9740 o         1 TQ8     -0.654300
     15 C15        -4.4710   -1.6000    0.3010 ca        1 TQ8     -0.004300
     16 C16        -3.6230   -2.2690   -0.5900 ca        1 TQ8     -0.159000
     17 C17        -2.2440   -2.1310   -0.4800 ca        1 TQ8     -0.010500
     18 C18        -1.6750   -1.3250    0.5140 ca        1 TQ8     -0.396500
     19 C19        -2.5310   -0.6670    1.4070 ca        1 TQ8     -0.010500
     20 C20        -3.9110   -0.7990    1.3050 ca        1 TQ8     -0.159000
     21 C22        -0.0000    3.4730    0.8960 c3        1 TQ8     -0.081000
     22 CL         -0.7640    5.0000    0.5430 cl        1 TQ8     -0.143400
     23 H1          1.1690    1.2360    1.1150 h1        1 TQ8      0.095700
     24 H2          0.1120   -0.0150   -1.3350 hn        1 TQ8      0.453800
     25 H31C        2.0140    1.6030   -1.8620 hc        1 TQ8      0.061700
     26 H32C        2.5060    2.6750   -0.4880 hc        1 TQ8      0.061700
     27 H221       -0.5270    3.0380    1.7830 h1        1 TQ8      0.091700
     28 H222        1.0620    3.6980    1.1670 h1        1 TQ8      0.091700
     29 H7          3.3420   -0.2750   -2.3500 ha        1 TQ8      0.130000
     30 H8          3.5690    1.4910    1.5930 ha        1 TQ8      0.130000
     31 H9          5.2360   -1.7840   -1.7790 ha        1 TQ8      0.134500
     32 H10         5.4630   -0.0210    2.1600 ha        1 TQ8      0.134500
     33 H11         6.3020   -1.6610    0.4750 ha        1 TQ8      0.134000
     34 H16        -4.0510   -2.9060   -1.3790 ha        1 TQ8      0.142000
     35 H20        -4.5680   -0.2730    2.0150 ha        1 TQ8      0.142000
     36 H211       -6.2760   -2.6120    0.8290 hc        1 TQ8      0.054033
     37 H212       -6.4650   -0.8310    0.5510 hc        1 TQ8      0.054033
     38 H213       -6.2480   -1.9520   -0.8600 hc        1 TQ8      0.054033
     39 H17        -1.5810   -2.6790   -1.1730 ha        1 TQ8      0.150000
     40 H19        -2.0970   -0.0490    2.2120 ha        1 TQ8      0.150000
     41 C21        -5.9400   -1.7520    0.1960 c3        1 TQ8     -0.069800
@<TRIPOS>BOND
     1    1    2 1   
     2    1    3 1   
     3    1    4 1   
     4    1   23 1   
     5    2   12 1   
     6    2   24 1   
     7    3    6 1   
     8    3   25 1   
     9    3   26 1   
    10    4    5 2   
    11    4   21 1   
    12    6    7 ar  
    13    6    8 ar  
    14    7    9 ar  
    15    7   29 1   
    16    8   10 ar  
    17    8   30 1   
    18    9   11 ar  
    19    9   31 1   
    20   10   11 ar  
    21   10   32 1   
    22   11   33 1   
    23   12   13 2   
    24   12   14 2   
    25   12   18 1   
    26   15   16 ar  
    27   15   20 ar  
    28   15   41 1   
    29   16   17 ar  
    30   16   34 1   
    31   17   18 ar  
    32   17   39 1   
    33   18   19 ar  
    34   19   20 ar  
    35   19   40 1   
    36   20   35 1   
    37   21   22 1   
    38   21   27 1   
    39   21   28 1   
    40   36   41 1   
    41   37   41 1   
    42   38   41 1   
@<TRIPOS>SUBSTRUCTURE
     1 TQ8         1 TEMP              0 ****  ****    0 ROOT
