@<TRIPOS>MOLECULE
TQ8
   42    39     1     0     0
SMALL
bcc


@<TRIPOS>ATOM
      1 C1          3.0340   -0.8830   -0.2260 c3        1 TQ8     -0.008000
      2 N2          1.5930   -0.8640   -0.3890 n7        1 TQ8     -0.836000
      3 C3          3.5020    0.1160    0.8530 c3        1 TQ8     -0.210000
      4 C4          3.5800   -2.2800    0.0990 c2        1 TQ8      0.217000
      5 O5          2.8340   -3.2460    0.2530 o         1 TQ8     -0.236000
      6 C6          2.5600    1.2200    0.8910 c1        1 TQ8     -0.095000
      7 C7         -0.4600    1.9660    1.4500 c3        1 TQ8      0.136000
      8 C8          2.8070    2.4240    1.4640 c1        1 TQ8     -0.214000
      9 C9         -1.7150    2.2910    0.8360 c1        1 TQ8     -0.285000
     10 C10         2.9790    3.5340    1.9220 c1        1 TQ8      0.019000
     11 C11        -2.7730    2.6210    0.3850 c1        1 TQ8     -0.082000
     12 S12         0.7020    0.4370   -0.4530 s6        1 TQ8      2.885000
     13 O13         0.0350    0.6880    1.0650 os        1 TQ8     -0.627000
     14 O14         1.1140    1.5660   -1.1610 o         1 TQ8     -0.845000
     15 C15        -1.8080   -0.0610   -5.4370 c2        1 TQ8     -0.040000
     16 C16        -3.1100    0.2200   -5.6010 c2        1 TQ8     -0.168000
     17 C17        -1.6990   -0.9010   -0.8810 c1        1 TQ8      0.509000
     18 C18        -0.6410   -0.1650   -1.1660 c2        1 TQ8     -1.304000
     19 C19        -0.2240    1.4920   -4.0570 c1        1 TQ8     -0.248000
     20 C20        -0.9550    0.7790   -4.6860 c1        1 TQ8     -0.119000
     21 C22         5.0700   -2.3990    0.2360 c3        1 TQ8     -0.189000
     22 Cl          5.9470   -1.6230   -1.0530 cl        1 TQ8     -0.050000
     23 H1          3.4920   -0.5780   -1.2210 h1        1 TQ8      0.152000
     24 H2          0.3200    2.7480    1.2190 h1        1 TQ8      0.140500
     25 H31C        3.5120   -0.3690    1.8750 hc        1 TQ8      0.167000
     26 H32C        4.5610    0.4280    0.6290 hc        1 TQ8      0.167000
     27 H221        5.3640   -3.4820    0.2370 h1        1 TQ8      0.151500
     28 H222        5.3940   -1.9290    1.2000 h1        1 TQ8      0.151500
     29 H7         -0.5750    1.8530    2.5720 h1        1 TQ8      0.140500
     30 H8          1.5430    0.4620    3.0190 ha        1 TQ8      0.002000
     31 H9          1.0480    0.2260    3.4180 ha        1 TQ8      0.002000
     32 H10        -3.7130    2.9170   -0.0190 ha        1 TQ8      0.246000
     33 H11         3.1260    4.5130    2.3220 ha        1 TQ8      0.260000
     34 H20         0.4290    2.1460   -3.5290 ha        1 TQ8      0.241000
     35 H211       -0.3730   -0.9320   -6.7750 hc        1 TQ8      0.090333
     36 H212       -0.6880   -1.8910   -5.2690 hc        1 TQ8      0.090333
     37 H213       -1.9170   -1.8710   -6.6040 hc        1 TQ8      0.090333
     38 H17        -3.5850    1.1090   -5.1660 ha        1 TQ8      0.128500
     39 H19        -0.7480    0.1850   -2.2560 h4        1 TQ8      0.323000
     40 C21        -1.1660   -1.2530   -6.0530 c3        1 TQ8     -0.180000
     41 H22         1.1910   -1.7850   -0.3620 hn        1 TQ8      0.298000
     42 H16        -3.7700   -0.4250   -6.1970 ha        1 TQ8      0.128500
@<TRIPOS>BOND
     1    1    2 1   
     2    1    3 1   
     3    1    4 1   
     4    1   23 1   
     5    2   12 1   
     6    2   41 1   
     7    3    6 1   
     8    3   25 1   
     9    3   26 1   
    10    4    5 1   
    11    4   21 1   
    12    6    8 1   
    13    7    9 1   
    14    7   13 1   
    15    7   24 1   
    16    7   29 1   
    17    8   10 1   
    18    9   11 1   
    19   10   33 1   
    20   11   32 1   
    21   12   13 1   
    22   12   14 1   
    23   12   18 1   
    24   15   16 1   
    25   15   20 1   
    26   15   40 1   
    27   16   38 1   
    28   16   42 1   
    29   17   18 1   
    30   18   39 1   
    31   19   20 1   
    32   19   34 1   
    33   21   22 1   
    34   21   27 1   
    35   21   28 1   
    36   30   31 1   
    37   35   40 1   
    38   36   40 1   
    39   37   40 1   
@<TRIPOS>SUBSTRUCTURE
     1 TQ8         1 TEMP              0 ****  ****    0 ROOT
