@<TRIPOS>MOLECULE
TQ8
   42    39     1     0     0
SMALL
bcc


@<TRIPOS>ATOM
      1 C1          3.0480   -0.8330   -0.2370 c3        1 TQ8     -0.008000
      2 N2          1.6070   -0.8680   -0.4000 n3        1 TQ8     -0.836000
      3 C3          3.4760    0.1650    0.8590 c3        1 TQ8     -0.210000
      4 C4          3.6470   -2.2120    0.0650 c2        1 TQ8      0.217000
      5 O5          2.9400   -3.2100    0.2020 o         1 TQ8     -0.236000
      6 C6          2.4910    1.2300    0.9160 c1        1 TQ8     -0.095000
      7 C7         -0.5550    1.8480    1.4860 c3        1 TQ8      0.136000
      8 C8          2.6910    2.4330    1.5100 c1        1 TQ8     -0.214000
      9 C9         -1.8220    2.1340    0.8770 c1        1 TQ8     -0.285000
     10 C10         2.8200    3.5410    1.9870 c1        1 TQ8      0.019000
     11 C11        -2.8930    2.4300    0.4300 c1        1 TQ8     -0.082000
     12 S12         0.6660    0.3990   -0.4420 s6        1 TQ8      2.885000
     13 O13        -0.0110    0.5970    1.0790 os        1 TQ8     -0.627000
     14 O14         1.0330    1.5540   -1.1310 o         1 TQ8     -0.845000
     15 C15        -1.8270   -0.1070   -5.4350 c2        1 TQ8     -0.040000
     16 C16        -3.1400    0.1250   -5.5920 c2        1 TQ8     -0.168000
     17 C17        -1.6820   -1.0250   -0.8950 c1        1 TQ8      0.509000
     18 C18        -0.6530   -0.2430   -1.1660 c2        1 TQ8     -1.304000
     19 C19        -0.3040    1.4800   -4.0270 c1        1 TQ8     -0.248000
     20 C20        -1.0070    0.7510   -4.6690 c1        1 TQ8     -0.119000
     21 C22         5.1410   -2.2760    0.2010 c3        1 TQ8     -0.189000
     22 CL          5.9860   -1.4450   -1.0750 cl        1 TQ8     -0.050000
     23 H1          3.4930   -0.4930   -1.2260 h1        1 TQ8      0.152000
     24 H2          0.1940    2.6640    1.2690 h1        1 TQ8      0.140500
     25 H31C        3.5050   -0.3370    1.8730 hc        1 TQ8      0.167000
     26 H32C        4.5220    0.5220    0.6420 hc        1 TQ8      0.167000
     27 H221        5.4770   -3.3460    0.1830 h1        1 TQ8      0.151500
     28 H222        5.4470   -1.8100    1.1720 h1        1 TQ8      0.151500
     29 H7         -0.6660    1.7110    2.6060 h1        1 TQ8      0.140500
     30 H8          1.0190    0.1350    3.4250 ha        1 TQ8      0.002000
     31 H9          1.5050    0.3970    3.0300 ha        1 TQ8      0.002000
     32 H10        -3.8430    2.6960    0.0310 ha        1 TQ8      0.246000
     33 H11         2.9280    4.5180    2.4040 ha        1 TQ8      0.260000
     34 H20         0.3240    2.1490   -3.4880 ha        1 TQ8      0.241000
     35 H211       -0.6370   -1.8950   -5.3020 hc        1 TQ8      0.090333
     36 H212       -0.3620   -0.8970   -6.7900 hc        1 TQ8      0.090333
     37 H213       -1.8680   -1.8990   -6.6350 hc        1 TQ8      0.090333
     38 H17        -3.6480    0.9860   -5.1400 ha        1 TQ8      0.128500
     39 H19        -0.7740    0.1220   -2.2500 h4        1 TQ8      0.323000
     40 C21        -1.1400   -1.2620   -6.0740 c3        1 TQ8     -0.180000
     41 H22         1.2410   -1.8040   -0.3890 hn        1 TQ8      0.298000
     42 H16        -3.7750   -0.5340   -6.1990 ha        1 TQ8      0.128500
@<TRIPOS>BOND
     1    1    2 1   
     2    1    3 1   
     3    1    4 1   
     4    1   23 1   
     5    2   12 1   
     6    2   41 1   
     7    3    6 1   
     8    3   25 1   
     9    3   26 1   
    10    4    5 1   
    11    4   21 1   
    12    6    8 1   
    13    7    9 1   
    14    7   13 1   
    15    7   24 1   
    16    7   29 1   
    17    8   10 1   
    18    9   11 1   
    19   10   33 1   
    20   11   32 1   
    21   12   13 1   
    22   12   14 1   
    23   12   18 1   
    24   15   16 1   
    25   15   20 1   
    26   15   40 1   
    27   16   38 1   
    28   16   42 1   
    29   17   18 1   
    30   18   39 1   
    31   19   20 1   
    32   19   34 1   
    33   21   22 1   
    34   21   27 1   
    35   21   28 1   
    36   30   31 1   
    37   35   40 1   
    38   36   40 1   
    39   37   40 1   
@<TRIPOS>SUBSTRUCTURE
     1 TQ8         1 TEMP              0 ****  ****    0 ROOT
