@<TRIPOS>MOLECULE
TQ9
   15    14     1     0     0
SMALL
bcc


@<TRIPOS>ATOM
      1 C91        -2.1970    0.5230   -0.9820 c3        1 TQ9     -0.077000
      2 C92        -0.6990    0.3210   -0.9270 c         1 TQ9      0.577100
      3 C2         -0.0050    0.1690    0.4090 c3        1 TQ9     -0.168400
      4 O4         -0.0530    0.2800   -1.9550 o         1 TQ9     -0.570100
      5 C5          1.3410   -0.4900    0.2060 c3        1 TQ9     -0.201400
      6 C7          2.0460   -0.6190    1.5390 c         1 TQ9      0.897600
      7 O8          1.9560   -1.6890    2.1970 o         1 TQ9     -0.843800
      8 O9          2.7220    0.3420    1.9890 o         1 TQ9     -0.843800
      9 CL         -2.6860    0.7990   -2.6330 cl        1 TQ9     -0.223400
     10 H911       -2.4430    1.2960   -0.4360 h1        1 TQ9      0.130200
     11 H912       -2.6470   -0.2750   -0.6380 h1        1 TQ9      0.130200
     12 H21C       -0.5540   -0.3850    1.0000 hc        1 TQ9      0.063200
     13 H22C        0.1210    1.0510    0.8130 hc        1 TQ9      0.063200
     14 H51C        1.8840    0.0560   -0.3980 hc        1 TQ9      0.033200
     15 H52C        1.2140   -1.3780   -0.1830 hc        1 TQ9      0.033200
@<TRIPOS>BOND
     1    1    2 1   
     2    1    9 1   
     3    1   10 1   
     4    1   11 1   
     5    2    3 1   
     6    2    4 2   
     7    3    5 1   
     8    3   12 1   
     9    3   13 1   
    10    5    6 1   
    11    5   14 1   
    12    5   15 1   
    13    6    7 1   
    14    6    8 1   
@<TRIPOS>SUBSTRUCTURE
     1 TQ9         1 TEMP              0 ****  ****    0 ROOT
