@<TRIPOS>MOLECULE
TQ9
   15    14     1     0     0
SMALL
bcc


@<TRIPOS>ATOM
      1 C91         1.0170   -0.8250    0.6990 c3        1 TQ9     -0.077000
      2 C92         0.9920    0.0870   -0.4900 c         1 TQ9      0.577100
      3 C2         -0.3510    0.1740   -1.1620 c3        1 TQ9     -0.168400
      4 O4          1.9710    0.7150   -0.9110 o         1 TQ9     -0.570100
      5 C5         -1.4670    0.5250   -0.2050 c3        1 TQ9     -0.201400
      6 C7         -1.8720   -0.6680    0.6820 c         1 TQ9      0.897600
      7 O8         -1.8370   -1.8310    0.1810 o         1 TQ9     -0.843800
      8 O9         -2.2080   -0.4220    1.8740 o         1 TQ9     -0.843800
      9 CL          2.6230   -1.2470    1.2760 cl        1 TQ9     -0.223400
     10 H911        0.4730   -0.3350    1.5500 h1        1 TQ9      0.130200
     11 H912        0.4820   -1.7840    0.4570 h1        1 TQ9      0.130200
     12 H21C       -0.2940    0.9270   -1.9910 hc        1 TQ9      0.063200
     13 H22C       -0.5770   -0.8350   -1.6090 hc        1 TQ9      0.063200
     14 H51C       -1.1770    1.3880    0.4440 hc        1 TQ9      0.033200
     15 H52C       -2.3690    0.8250   -0.7950 hc        1 TQ9      0.033200
@<TRIPOS>BOND
     1    1    2 1   
     2    1    9 1   
     3    1   10 1   
     4    1   11 1   
     5    2    3 1   
     6    2    4 2   
     7    3    5 1   
     8    3   12 1   
     9    3   13 1   
    10    5    6 1   
    11    5   14 1   
    12    5   15 1   
    13    6    7 1   
    14    6    8 1   
@<TRIPOS>SUBSTRUCTURE
     1 TQ9         1 TEMP              0 ****  ****    0 ROOT
