@<TRIPOS>MOLECULE
TQ9
   15    14     1     0     0
SMALL
bcc


@<TRIPOS>ATOM
      1 C91         0.8940    0.6410    0.4550 c3        1 TQ9     -0.077000
      2 C92         1.5460   -0.5520   -0.1760 c         1 TQ9      0.577100
      3 C2          2.6390   -1.1610    0.6580 c3        1 TQ9     -0.168400
      4 O4          1.2290   -1.0210   -1.2770 o         1 TQ9     -0.570100
      5 C5          3.6820   -0.1560    1.0880 c3        1 TQ9     -0.201400
      6 C7          3.1820    0.7550    2.2250 c         1 TQ9      0.897600
      7 O8          2.4070    0.2620    3.0960 o         1 TQ9     -0.843800
      8 O9          3.5660    1.9580    2.2210 o         1 TQ9     -0.843800
      9 Cl         -0.6130    1.1470   -0.2960 cl        1 TQ9     -0.223400
     10 H911        1.6000    1.5130    0.4110 h1        1 TQ9      0.129700
     11 H912        0.6790    0.4300    1.5380 h1        1 TQ9      0.129700
     12 H21C        2.1630   -1.5900    1.5850 hc        1 TQ9      0.063200
     13 H22C        3.1130   -1.9960    0.0810 hc        1 TQ9      0.063200
     14 H51C        4.5790   -0.7060    1.4700 hc        1 TQ9      0.033200
     15 H52C        4.0060    0.4740    0.2240 hc        1 TQ9      0.033200
@<TRIPOS>BOND
     1    1    2 1   
     2    1    9 1   
     3    1   10 1   
     4    1   11 1   
     5    2    3 1   
     6    2    4 2   
     7    3    5 1   
     8    3   12 1   
     9    3   13 1   
    10    5    6 1   
    11    5   14 1   
    12    5   15 1   
    13    6    7 1   
    14    6    8 1   
@<TRIPOS>SUBSTRUCTURE
     1 TQ9         1 TEMP              0 ****  ****    0 ROOT
