@<TRIPOS>MOLECULE
TQ9
   15    14     1     0     0
SMALL
bcc


@<TRIPOS>ATOM
      1 C91         0.0710   -0.0000    0.0420 c3        1 TQ9     -0.077000
      2 C92         1.5690   -0.0000   -0.1620 c         1 TQ9      0.577100
      3 C2          2.3030    0.0000    1.1430 c3        1 TQ9     -0.168400
      4 O4          2.0940   -0.0000   -1.2770 o         1 TQ9     -0.570100
      5 C5          3.8050    0.0000    1.0220 c3        1 TQ9     -0.201400
      6 C7          4.4610    0.0000    2.4170 c         1 TQ9      0.897600
      7 O8          3.7110    0.0000    3.4370 o         1 TQ9     -0.843800
      8 O9          5.7230    0.0000    2.4660 o         1 TQ9     -0.843800
      9 CL         -0.9030   -0.0000   -1.4160 cl        1 TQ9     -0.223400
     10 H911       -0.2200    0.9130    0.6160 h1        1 TQ9      0.130200
     11 H912       -0.2200   -0.9140    0.6160 h1        1 TQ9      0.130200
     12 H21C        1.9870    0.9000    1.7390 hc        1 TQ9      0.063200
     13 H22C        1.9870   -0.8990    1.7390 hc        1 TQ9      0.063200
     14 H51C        4.1520   -0.9020    0.4600 hc        1 TQ9      0.033200
     15 H52C        4.1520    0.9020    0.4600 hc        1 TQ9      0.033200
@<TRIPOS>BOND
     1    1    2 1   
     2    1    9 1   
     3    1   10 1   
     4    1   11 1   
     5    2    3 1   
     6    2    4 2   
     7    3    5 1   
     8    3   12 1   
     9    3   13 1   
    10    5    6 1   
    11    5   14 1   
    12    5   15 1   
    13    6    7 1   
    14    6    8 1   
@<TRIPOS>SUBSTRUCTURE
     1 TQ9         1 TEMP              0 ****  ****    0 ROOT
