@<TRIPOS>MOLECULE
TQD
   58    60     1     0     0
SMALL
bcc


@<TRIPOS>ATOM
      1 C2D        -0.1570    0.4870    0.3270 c3        1 TQD      0.665900
      2 C4D         0.1180    0.8160    2.6690 ce        1 TQD      0.654500
      3 C4A         1.5430    0.5820    2.5910 ce        1 TQD     -0.335800
      4 C5D         2.3700    0.5840    3.8180 c3        1 TQD     -0.048200
      5 C6D         3.8760    0.5240    3.6070 c3        1 TQD     -0.095700
      6 C7'         4.2070   -0.3740    2.4300 c3        1 TQD     -0.079400
      7 C8          3.5600    0.1350    1.1560 c3        1 TQD     -0.073200
      8 C8A         2.0850    0.3570    1.3280 c2        1 TQD      0.258800
      9 C8'         4.5800    0.0020    4.8850 c3        1 TQD      0.203800
     10 C1'         3.3010    1.3130    6.4650 ca        1 TQD      0.195600
     11 C2'         2.9860    2.6830    6.6080 ca        1 TQD     -0.229000
     12 C3'         1.6550    3.0930    6.7480 ca        1 TQD      0.123600
     13 C3B         2.2760    5.3640    7.1390 c3        1 TQD      0.114700
     14 C4'         0.6120    2.1400    6.7070 ca        1 TQD     -0.055900
     15 C4B        -1.3100    3.2440    7.5780 c3        1 TQD      0.118700
     16 C5'         0.9510    0.7740    6.7450 ca        1 TQD      0.123600
     17 C5B        -0.7980   -0.4110    7.8280 c3        1 TQD      0.114700
     18 C6'         2.2770    0.3530    6.6820 ca        1 TQD     -0.229000
     19 N1'         1.2760    0.3790    0.2090 nu        1 TQD     -0.773000
     20 N2'        -0.8530   -0.8670   -0.2050 nz        1 TQD     -0.927600
     21 N3'        -0.7010    0.7970    1.6280 n2        1 TQD     -0.676900
     22 N4'        -0.4660    1.1390    3.9910 nz        1 TQD     -0.806600
     23 N9'         4.5730    0.8660    6.0490 nh        1 TQD     -0.645000
     24 O3'         1.2630    4.4060    6.8170 os        1 TQD     -0.366900
     25 O4'        -0.7160    2.4780    6.5180 os        1 TQD     -0.397900
     26 O5'        -0.0420   -0.1900    6.6270 os        1 TQD     -0.366900
     27 C9'         5.6750    1.7890    6.1620 c3        1 TQD      0.168100
     28 H2'        -0.5690    1.2490   -0.4230 hx        1 TQD      0.159700
     29 H5'1        2.1520    1.5260    4.3990 hc        1 TQD      0.075200
     30 H5'2        2.0530   -0.3030    4.4410 hc        1 TQD      0.075200
     31 H6'         4.2560    1.5610    3.3840 hc        1 TQD      0.074700
     32 H7'1        5.3190   -0.4050    2.2730 hc        1 TQD      0.081700
     33 H7'2        3.8700   -1.4230    2.6420 hc        1 TQD      0.081700
     34 H81         3.7610   -0.5940    0.3230 hc        1 TQD      0.102700
     35 H82         4.0240    1.1200    0.8610 hc        1 TQD      0.102700
     36 H8'1        5.6560   -0.2100    4.6220 h1        1 TQD      0.075200
     37 H8'2        4.0980   -0.9750    5.1780 h1        1 TQD      0.075200
     38 H2'1        3.7840    3.4420    6.5860 ha        1 TQD      0.172000
     39 H3B1        2.9690    5.4920    6.2730 h1        1 TQD      0.064033
     40 H3B2        2.8330    5.0620    8.0580 h1        1 TQD      0.064033
     41 H3B3        1.6870    6.3010    7.3180 h1        1 TQD      0.064033
     42 H4B1       -2.3850    3.3110    7.2780 h1        1 TQD      0.063700
     43 H4B2       -1.1950    2.7100    8.5510 h1        1 TQD      0.063700
     44 H4B3       -0.8390    4.2560    7.6240 h1        1 TQD      0.063700
     45 H5B1       -1.5020   -1.2320    7.5470 h1        1 TQD      0.064033
     46 H5B2       -1.3460    0.5230    8.1020 h1        1 TQD      0.064033
     47 H5B3       -0.1160   -0.7300    8.6520 h1        1 TQD      0.064033
     48 H6'1        2.5110   -0.7200    6.7570 ha        1 TQD      0.172000
     49 H1D         1.6920    0.4010   -0.7000 hn        1 TQD      0.493800
     50 H2A1       -0.5780   -1.6830    0.3410 hn        1 TQD      0.457467
     51 H2A2       -1.8680   -0.7520   -0.1400 hn        1 TQD      0.457467
     52 H4'1        0.0340    1.9480    4.4110 hn        1 TQD      0.504133
     53 H4'2       -0.3420    0.3330    4.6350 hn        1 TQD      0.504133
     54 H9'1        5.6450    2.5990    5.3840 h1        1 TQD      0.055367
     55 H9'2        5.6610    2.2570    7.1830 h1        1 TQD      0.055367
     56 H9'3        6.6340    1.2150    6.0510 h1        1 TQD      0.055367
     57 H2'3       -0.5980   -1.0200   -1.1810 hn        1 TQD      0.457467
     58 H4'3       -1.4670    1.3720    3.9360 hn        1 TQD      0.504133
@<TRIPOS>BOND
     1    1   19 1   
     2    1   20 1   
     3    1   21 1   
     4    1   28 1   
     5    2    3 1   
     6    2   21 2   
     7    2   22 1   
     8    3    4 1   
     9    3    8 2   
    10    4    5 1   
    11    4   29 1   
    12    4   30 1   
    13    5    6 1   
    14    5    9 1   
    15    5   31 1   
    16    6    7 1   
    17    6   32 1   
    18    6   33 1   
    19    7    8 1   
    20    7   34 1   
    21    7   35 1   
    22    8   19 1   
    23    9   23 1   
    24    9   36 1   
    25    9   37 1   
    26   10   11 ar  
    27   10   18 ar  
    28   10   23 1   
    29   11   12 ar  
    30   11   38 1   
    31   12   14 ar  
    32   12   24 1   
    33   13   24 1   
    34   13   39 1   
    35   13   40 1   
    36   13   41 1   
    37   14   16 ar  
    38   14   25 1   
    39   15   25 1   
    40   15   42 1   
    41   15   43 1   
    42   15   44 1   
    43   16   18 ar  
    44   16   26 1   
    45   17   26 1   
    46   17   45 1   
    47   17   46 1   
    48   17   47 1   
    49   18   48 1   
    50   19   49 1   
    51   20   50 1   
    52   20   51 1   
    53   20   57 1   
    54   22   52 1   
    55   22   53 1   
    56   22   58 1   
    57   23   27 1   
    58   27   54 1   
    59   27   55 1   
    60   27   56 1   
@<TRIPOS>SUBSTRUCTURE
     1 TQD         1 TEMP              0 ****  ****    0 ROOT
