@<TRIPOS>MOLECULE
TQD
   59    61     1     0     0
SMALL
bcc


@<TRIPOS>ATOM
      1 C2D        -0.1950    0.5890    0.3260 c3        1 TQD      0.659900
      2 C4D         0.0150    0.6410    2.7060 ce        1 TQD      0.658500
      3 C4A         1.4600    0.5240    2.6500 ce        1 TQD     -0.369800
      4 C5D         2.2640    0.4720    3.8940 c3        1 TQD     -0.032200
      5 C6D         3.7780    0.5370    3.7120 c3        1 TQD     -0.064700
      6 C7'         4.1910   -0.1910    2.4390 c3        1 TQD     -0.084400
      7 C8          3.5240    0.4110    1.2210 c3        1 TQD     -0.076200
      8 C8A         2.0320    0.4860    1.3800 c2        1 TQD      0.277800
      9 C8'         4.5290   -0.1130    4.8870 c3        1 TQD      0.115800
     10 C1'         3.3170    1.2060    6.5640 ca        1 TQD     -0.003400
     11 C2'         3.0680    2.5870    6.6140 ca        1 TQD     -0.169000
     12 C3'         1.7480    3.0460    6.7410 ca        1 TQD      0.122600
     13 C3B         2.4250    5.3230    7.0470 c3        1 TQD      0.109700
     14 C4'         0.6760    2.1150    6.7520 ca        1 TQD      0.054100
     15 C4B        -1.2170    3.4260    7.4190 c3        1 TQD      0.117700
     16 C5'         0.9690    0.7410    6.8430 ca        1 TQD      0.122600
     17 C5B        -0.8620   -0.3060    7.9450 c3        1 TQD      0.109700
     18 C6'         2.2890    0.2770    6.8040 ca        1 TQD     -0.169000
     19 N1'         1.2530    0.5640    0.2480 nh        1 TQD     -0.775000
     20 N2'        -0.8170   -0.6610   -0.4330 n4        1 TQD     -0.910600
     21 N3'        -0.7760    0.6750    1.6520 n2        1 TQD     -0.659900
     22 N4'        -0.6380    0.7810    4.0330 n4        1 TQD     -0.808600
     23 N9'         4.6320    0.6680    6.1770 n4        1 TQD     -0.554800
     24 O3'         1.3970    4.3640    6.7600 os        1 TQD     -0.353400
     25 O4'        -0.6350    2.4560    6.5240 os        1 TQD     -0.389900
     26 O5'        -0.0430   -0.1970    6.7620 os        1 TQD     -0.353400
     27 C9'         5.7130    1.6870    6.1140 c3        1 TQD      0.080100
     28 H2'        -0.6100    1.4660   -0.2920 hx        1 TQD      0.171700
     29 H5'1        1.9640    1.3490    4.5380 hc        1 TQD      0.064700
     30 H5'2        1.9980   -0.4750    4.4460 hc        1 TQD      0.064700
     31 H6'         4.0860    1.6170    3.6220 hc        1 TQD      0.085700
     32 H7'1        5.3050   -0.1200    2.2960 hc        1 TQD      0.090700
     33 H7'2        3.9320   -1.2800    2.5220 hc        1 TQD      0.090700
     34 H81         3.9060    1.4590    1.0460 hc        1 TQD      0.117200
     35 H82         3.8070   -0.1980    0.3160 hc        1 TQD      0.117200
     36 H8'1        5.5920   -0.3250    4.5630 hx        1 TQD      0.114700
     37 H8'2        4.0320   -1.0950    5.1420 hx        1 TQD      0.114700
     38 H2'1        3.8790    3.3310    6.5390 ha        1 TQD      0.182000
     39 H3B1        1.8420    6.2730    7.1810 h1        1 TQD      0.077700
     40 H3B2        3.1210    5.4050    6.1780 h1        1 TQD      0.077700
     41 H3B3        2.9670    5.0540    7.9850 h1        1 TQD      0.077700
     42 H4B1       -1.0680    3.1080    8.4780 h1        1 TQD      0.080700
     43 H4B2       -2.3000    3.4040    7.1370 h1        1 TQD      0.080700
     44 H4B3       -0.7690    4.4320    7.2310 h1        1 TQD      0.080700
     45 H5B1       -1.3740    0.6680    8.1350 h1        1 TQD      0.077700
     46 H5B2       -0.2310   -0.6090    8.8140 h1        1 TQD      0.077700
     47 H5B3       -1.5900   -1.1130    7.6760 h1        1 TQD      0.077700
     48 H6'1        2.4740   -0.8040    6.9210 ha        1 TQD      0.182000
     49 H1D         1.6890    0.7090   -0.6430 hn        1 TQD      0.502800
     50 H2A1       -0.5270   -1.5520   -0.0270 hn        1 TQD      0.470133
     51 H2A2       -0.5350   -0.6370   -1.4180 hn        1 TQD      0.470133
     52 H4'1       -0.3760    1.6900    4.4570 hn        1 TQD      0.501133
     53 H4'2       -1.6670    0.7440    3.9620 hn        1 TQD      0.501133
     54 H9'1        5.7690    2.2340    7.0960 hx        1 TQD      0.116033
     55 H9'2        5.5140    2.4110    5.2810 hx        1 TQD      0.116033
     56 H9'3        6.6940    1.1650    5.9310 hx        1 TQD      0.116033
     57 H2'3       -1.8410   -0.5930   -0.3840 hn        1 TQD      0.470133
     58 H4'3       -0.3170    0.0240    4.6630 hn        1 TQD      0.501133
     59 H9'4        4.9030   -0.0130    6.9110 hn        1 TQD      0.474800
@<TRIPOS>BOND
     1    1   19 1   
     2    1   20 1   
     3    1   21 1   
     4    1   28 1   
     5    2    3 1   
     6    2   21 2   
     7    2   22 1   
     8    3    4 1   
     9    3    8 2   
    10    4    5 1   
    11    4   29 1   
    12    4   30 1   
    13    5    6 1   
    14    5    9 1   
    15    5   31 1   
    16    6    7 1   
    17    6   32 1   
    18    6   33 1   
    19    7    8 1   
    20    7   34 1   
    21    7   35 1   
    22    8   19 1   
    23    9   23 1   
    24    9   36 1   
    25    9   37 1   
    26   10   11 ar  
    27   10   18 ar  
    28   10   23 1   
    29   11   12 ar  
    30   11   38 1   
    31   12   14 ar  
    32   12   24 1   
    33   13   24 1   
    34   13   39 1   
    35   13   40 1   
    36   13   41 1   
    37   14   16 ar  
    38   14   25 1   
    39   15   25 1   
    40   15   42 1   
    41   15   43 1   
    42   15   44 1   
    43   16   18 ar  
    44   16   26 1   
    45   17   26 1   
    46   17   45 1   
    47   17   46 1   
    48   17   47 1   
    49   18   48 1   
    50   19   49 1   
    51   20   50 1   
    52   20   51 1   
    53   20   57 1   
    54   22   52 1   
    55   22   53 1   
    56   22   58 1   
    57   23   27 1   
    58   23   59 1   
    59   27   54 1   
    60   27   55 1   
    61   27   56 1   
@<TRIPOS>SUBSTRUCTURE
     1 TQD         1 TEMP              0 ****  ****    0 ROOT
