@<TRIPOS>MOLECULE
TQD
   56    54     1     0     0
SMALL
bcc


@<TRIPOS>ATOM
      1 C2D        -3.7390    4.3190   -3.8230 c3        1 TQD      0.146000
      2 C4D        -1.5290    4.5410   -2.4960 c1        1 TQD      0.178000
      3 C4A        -1.6230    3.0520   -2.2570 c1        1 TQD     -0.260000
      4 C5D        -1.1540    2.3970   -1.0210 c3        1 TQD     -0.089000
      5 C6D        -1.0660    0.7600   -1.2040 c3        1 TQD     -0.105000
      6 C7'        -2.0840    0.2120   -1.6610 c3        1 TQD     -0.148000
      7 C8         -2.5810    0.7490   -3.0860 c3        1 TQD     -0.139000
      8 C8A        -2.7070    2.2310   -3.1230 c2        1 TQD      0.081000
      9 C8'        -0.7550    0.0920    0.2850 c3        1 TQD     -0.048000
     10 C1'         0.9830   -1.5330    1.2150 c1        1 TQD      0.109000
     11 C2'         2.0370   -2.3600    0.8400 c1        1 TQD     -0.254000
     12 C3'         2.5600   -3.2950    1.7520 c1        1 TQD      0.109000
     13 C3B         4.4990   -4.1110    0.7680 c3        1 TQD     -0.077000
     14 C4'         2.0240   -3.3930    3.0350 c1        1 TQD      0.029000
     15 C4B         3.9150   -2.9650    4.4140 c3        1 TQD     -0.071000
     16 C5'         0.9720   -2.5690    3.4150 c1        1 TQD      0.029000
     17 C5B         0.1100   -3.8480    5.2430 c3        1 TQD     -0.071000
     18 C6'         0.4460   -1.6350    2.5050 c1        1 TQD     -0.236000
     19 N1'        -3.3730    2.9210   -4.0900 n3        1 TQD     -0.295000
     20 N2'        -4.4130    4.8820   -4.9560 n3        1 TQD     -0.378000
     21 N3'        -2.5590    5.1740   -3.3890 n2        1 TQD     -0.337000
     22 N4'        -0.3670    5.2220   -2.1770 n3        1 TQD     -0.338000
     23 N9'         0.6030   -0.3600    0.3290 n3        1 TQD     -0.250000
     24 O3'         3.2890   -4.4140    1.3380 os        1 TQD     -0.205000
     25 O4'         2.8920   -3.8630    4.0810 os        1 TQD     -0.214500
     26 O5'         0.1450   -2.5850    4.5760 os        1 TQD     -0.214500
     27 C9'         1.5990    0.3670   -0.3300 c3        1 TQD     -0.099000
     28 H2'        -4.4410    4.3640   -3.1530 h3        1 TQD      0.125000
     29 H5'1       -0.3780    2.8410   -0.5940 hc        1 TQD      0.082000
     30 H5'2       -1.8460    2.5550   -0.3200 hc        1 TQD      0.082000
     31 H6'        -0.2910    0.5500   -1.8170 hc        1 TQD      0.091000
     32 H7'1       -1.8960   -0.7530   -1.7470 hc        1 TQD      0.097500
     33 H7'2       -2.8630    0.3350   -0.9720 hc        1 TQD      0.097500
     34 H81        -3.3760    0.2910   -3.3280 hc        1 TQD      0.098500
     35 H82        -1.9660    0.4600   -3.8220 hc        1 TQD      0.098500
     36 H8'1       -1.3500   -0.6580    0.4310 h1        1 TQD      0.082000
     37 H8'2       -0.9070    0.8040    1.0240 h1        1 TQD      0.082000
     38 H2'1        2.3940   -2.2960   -0.0140 ha        1 TQD      0.145000
     39 H3B1        4.3540   -3.7180   -0.1230 h1        1 TQD      0.084667
     40 H3B2        4.9920   -3.4460    1.3540 h1        1 TQD      0.084667
     41 H3B3        5.0150   -4.9020    0.6840 h1        1 TQD      0.084667
     42 H4B1        3.5290   -2.1970    4.9680 h1        1 TQD      0.084167
     43 H4B2        4.6320   -3.4520    4.9590 h1        1 TQD      0.084167
     44 H4B3        4.3130   -2.6090    3.5960 h1        1 TQD      0.084167
     45 H5B1        0.2380   -4.5540    4.6010 h1        1 TQD      0.084167
     46 H5B2        0.7990   -3.8810    5.8890 h1        1 TQD      0.084167
     47 H5B3       -0.7650   -3.9620    5.6890 h1        1 TQD      0.084167
     48 H6'1       -0.3120   -1.0420    2.7810 ha        1 TQD      0.153000
     49 H1D        -3.7600    2.4760   -4.7790 hn        1 TQD      0.214000
     50 H2A1       -5.2500    4.4840   -5.0480 hn        1 TQD      0.153000
     51 H2A2       -4.5160    5.7870   -4.8330 hn        1 TQD      0.153000
     52 H4'1       -0.3020    6.0840   -2.3420 hn        1 TQD      0.201000
     53 H4'2        0.3460    4.7700   -1.8370 hn        1 TQD      0.201000
     54 H9'1        2.4080    0.4110    0.2430 h1        1 TQD      0.076333
     55 H9'2        1.8140   -0.0620   -1.1510 h1        1 TQD      0.076333
     56 H9'3        1.2580    1.3280   -0.5220 h1        1 TQD      0.076333
@<TRIPOS>BOND
     1    1   19 1   
     2    1   20 1   
     3    1   21 1   
     4    1   28 1   
     5    2   21 1   
     6    2   22 1   
     7    3    4 1   
     8    3    8 1   
     9    4    5 1   
    10    4   29 1   
    11    4   30 1   
    12    5    6 1   
    13    5    9 1   
    14    5   31 1   
    15    6    7 1   
    16    6   32 1   
    17    6   33 1   
    18    7    8 1   
    19    7   34 1   
    20    7   35 1   
    21    8   19 1   
    22    9   23 1   
    23    9   36 1   
    24    9   37 1   
    25   10   18 1   
    26   10   23 1   
    27   11   12 1   
    28   11   38 1   
    29   12   24 1   
    30   13   24 1   
    31   13   39 1   
    32   13   40 1   
    33   13   41 1   
    34   14   16 1   
    35   14   25 1   
    36   15   25 1   
    37   15   42 1   
    38   15   43 1   
    39   15   44 1   
    40   16   26 1   
    41   17   26 1   
    42   17   45 1   
    43   17   46 1   
    44   17   47 1   
    45   18   48 1   
    46   19   49 1   
    47   20   50 1   
    48   20   51 1   
    49   22   52 1   
    50   22   53 1   
    51   23   27 1   
    52   27   54 1   
    53   27   55 1   
    54   27   56 1   
@<TRIPOS>SUBSTRUCTURE
     1 TQD         1 TEMP              0 ****  ****    0 ROOT
