@<TRIPOS>MOLECULE
TQD
   58    60     1     0     0
SMALL
bcc


@<TRIPOS>ATOM
      1 C2D        -0.1670    0.4860    0.3320 c3        1 TQD      0.665900
      2 C4D         0.1130    0.8190    2.6720 ce        1 TQD      0.654500
      3 C4A         1.5380    0.5790    2.5920 ce        1 TQD     -0.335800
      4 C5D         2.3670    0.5800    3.8180 c3        1 TQD     -0.048200
      5 C6D         3.8720    0.5150    3.6040 c3        1 TQD     -0.095700
      6 C7'         4.1970   -0.3880    2.4290 c3        1 TQD     -0.079400
      7 C8          3.5500    0.1210    1.1540 c3        1 TQD     -0.073200
      8 C8A         2.0760    0.3500    1.3290 c2        1 TQD      0.258800
      9 C8'         4.5760   -0.0080    4.8820 c3        1 TQD      0.203800
     10 C1'         3.3040    1.3110    6.4620 ca        1 TQD      0.195600
     11 C2'         2.9960    2.6820    6.6030 ca        1 TQD     -0.229000
     12 C3'         1.6660    3.0980    6.7450 ca        1 TQD      0.123600
     13 C3B         2.2960    5.3670    7.1310 c3        1 TQD      0.114700
     14 C4'         0.6190    2.1480    6.7080 ca        1 TQD     -0.055900
     15 C4B        -1.2970    3.2600    7.5800 c3        1 TQD      0.118700
     16 C5'         0.9540    0.7810    6.7470 ca        1 TQD      0.123600
     17 C5B        -0.7980   -0.3950    7.8340 c3        1 TQD      0.114700
     18 C6'         2.2780    0.3560    6.6830 ca        1 TQD     -0.229000
     19 N1'         1.2650    0.3720    0.2110 nh        1 TQD     -0.773000
     20 N2'        -0.8690   -0.8670   -0.1960 n4        1 TQD     -0.927600
     21 N3'        -0.7080    0.8000    1.6330 n2        1 TQD     -0.676900
     22 N4'        -0.4670    1.1470    3.9950 n4        1 TQD     -0.806600
     23 N9'         4.5740    0.8590    6.0450 nh        1 TQD     -0.645000
     24 O3'         1.2790    4.4120    6.8120 os        1 TQD     -0.366900
     25 O4'        -0.7080    2.4910    6.5200 os        1 TQD     -0.397900
     26 O5'        -0.0430   -0.1790    6.6320 os        1 TQD     -0.366900
     27 C9'         5.6810    1.7780    6.1540 c3        1 TQD      0.168100
     28 H2'        -0.5780    1.2480   -0.4200 hx        1 TQD      0.159700
     29 H5'1        2.1530    1.5240    4.3970 hc        1 TQD      0.075200
     30 H5'2        2.0480   -0.3040    4.4430 hc        1 TQD      0.075200
     31 H6'         4.2550    1.5500    3.3780 hc        1 TQD      0.074700
     32 H7'1        3.8570   -1.4350    2.6430 hc        1 TQD      0.081700
     33 H7'2        5.3090   -0.4230    2.2700 hc        1 TQD      0.081700
     34 H81         3.7470   -0.6100    0.3220 hc        1 TQD      0.102700
     35 H82         4.0170    1.1040    0.8570 hc        1 TQD      0.102700
     36 H8'1        5.6510   -0.2240    4.6170 h1        1 TQD      0.075200
     37 H8'2        4.0920   -0.9820    5.1770 h1        1 TQD      0.075200
     38 H2'1        3.7960    3.4380    6.5790 ha        1 TQD      0.172000
     39 H3B1        2.8540    5.0640    8.0490 h1        1 TQD      0.064033
     40 H3B2        1.7110    6.3060    7.3100 h1        1 TQD      0.064033
     41 H3B3        2.9880    5.4910    6.2640 h1        1 TQD      0.064033
     42 H4B1       -2.3730    3.3310    7.2820 h1        1 TQD      0.063700
     43 H4B2       -0.8230    4.2710    7.6230 h1        1 TQD      0.063700
     44 H4B3       -1.1830    2.7280    8.5540 h1        1 TQD      0.063700
     45 H5B1       -0.1170   -0.7160    8.6580 h1        1 TQD      0.064033
     46 H5B2       -1.5060   -1.2150    7.5560 h1        1 TQD      0.064033
     47 H5B3       -1.3430    0.5410    8.1070 h1        1 TQD      0.064033
     48 H6'1        2.5080   -0.7190    6.7580 ha        1 TQD      0.172000
     49 H1D         1.6800    0.3900   -0.6990 hn        1 TQD      0.493800
     50 H2A1       -0.5960   -1.6820    0.3510 hn        1 TQD      0.457467
     51 H2A2       -1.8840   -0.7480   -0.1300 hn        1 TQD      0.457467
     52 H4'1       -1.4680    1.3840    3.9410 hn        1 TQD      0.504133
     53 H4'2       -0.3450    0.3410    4.6400 hn        1 TQD      0.504133
     54 H9'1        5.6700    2.2480    7.1730 h1        1 TQD      0.055367
     55 H9'2        5.6520    2.5870    5.3740 h1        1 TQD      0.055367
     56 H9'3        6.6370    1.2000    6.0420 h1        1 TQD      0.055367
     57 H2'3       -0.6170   -1.0230   -1.1730 hn        1 TQD      0.457467
     58 H4'3        0.0370    1.9540    4.4120 hn        1 TQD      0.504133
@<TRIPOS>BOND
     1    1   19 1   
     2    1   20 1   
     3    1   21 1   
     4    1   28 1   
     5    2    3 1   
     6    2   21 2   
     7    2   22 1   
     8    3    4 1   
     9    3    8 2   
    10    4    5 1   
    11    4   29 1   
    12    4   30 1   
    13    5    6 1   
    14    5    9 1   
    15    5   31 1   
    16    6    7 1   
    17    6   32 1   
    18    6   33 1   
    19    7    8 1   
    20    7   34 1   
    21    7   35 1   
    22    8   19 1   
    23    9   23 1   
    24    9   36 1   
    25    9   37 1   
    26   10   11 ar  
    27   10   18 ar  
    28   10   23 1   
    29   11   12 ar  
    30   11   38 1   
    31   12   14 ar  
    32   12   24 1   
    33   13   24 1   
    34   13   39 1   
    35   13   40 1   
    36   13   41 1   
    37   14   16 ar  
    38   14   25 1   
    39   15   25 1   
    40   15   42 1   
    41   15   43 1   
    42   15   44 1   
    43   16   18 ar  
    44   16   26 1   
    45   17   26 1   
    46   17   45 1   
    47   17   46 1   
    48   17   47 1   
    49   18   48 1   
    50   19   49 1   
    51   20   50 1   
    52   20   51 1   
    53   20   57 1   
    54   22   52 1   
    55   22   53 1   
    56   22   58 1   
    57   23   27 1   
    58   27   54 1   
    59   27   55 1   
    60   27   56 1   
@<TRIPOS>SUBSTRUCTURE
     1 TQD         1 TEMP              0 ****  ****    0 ROOT
