@<TRIPOS>MOLECULE
TQD
   56    58     1     0     0
SMALL
bcc


@<TRIPOS>ATOM
      1 C2D         4.8990    0.8920    2.0370 c3        1 TQD      0.627900
      2 C4D         2.5040    0.9120    1.7610 ce        1 TQD      0.700500
      3 C4A         2.5700   -0.2510    0.8400 ce        1 TQD     -0.341800
      4 C5D         1.3340   -0.7330    0.1800 c3        1 TQD     -0.009200
      5 C6D         1.5120   -2.0570   -0.5480 c3        1 TQD     -0.097700
      6 C7'         2.8230   -2.0650   -1.3120 c3        1 TQD     -0.069400
      7 C8          3.9870   -1.9450   -0.3530 c3        1 TQD     -0.053200
      8 C8A         3.8040   -0.8110    0.6200 c2        1 TQD      0.151800
      9 C8'         0.3540   -2.3240   -1.5230 c3        1 TQD      0.195800
     10 C1'        -1.7240   -1.2630   -0.7930 ca        1 TQD      0.195600
     11 C2'        -2.2960   -0.9050    0.4470 ca        1 TQD     -0.267500
     12 C3'        -3.1160    0.2230    0.5440 ca        1 TQD      0.156600
     13 C3B        -3.5960   -0.2270    2.8360 c3        1 TQD      0.111700
     14 C4'        -3.3830    1.0280   -0.5810 ca        1 TQD      0.012100
     15 C4B        -3.8110    3.2340    0.1110 c3        1 TQD      0.114700
     16 C5'        -2.7750    0.6870   -1.8070 ca        1 TQD      0.156600
     17 C5B        -2.6860    1.0930   -4.1510 c3        1 TQD      0.111700
     18 C6'        -1.9670   -0.4470   -1.9210 ca        1 TQD     -0.267500
     19 N1'         4.9180   -0.4330    1.3620 nh        1 TQD     -0.739000
     20 N2'         5.8350    1.8370    1.3840 n3        1 TQD     -0.941800
     21 N3'         3.5770    1.4650    2.2890 n2        1 TQD     -0.751900
     22 N4'         1.2350    1.3950    2.1170 nh        1 TQD     -0.895800
     23 N9'        -0.9740   -2.4550   -0.9560 nh        1 TQD     -0.646000
     24 O3'        -3.6900    0.6550    1.7230 os        1 TQD     -0.313900
     25 O4'        -4.3020    2.0590   -0.5360 os        1 TQD     -0.306900
     26 O5'        -3.0270    1.5560   -2.8490 os        1 TQD     -0.313900
     27 C9'        -1.0900   -3.4410    0.0900 c3        1 TQD      0.173100
     28 H2'         5.3460    0.6780    3.0690 h3        1 TQD      0.083700
     29 H5'1        0.5170   -0.8710    0.9420 hc        1 TQD      0.048700
     30 H5'2        0.9820    0.0470   -0.5520 hc        1 TQD      0.048700
     31 H6'         1.5420   -2.8850    0.2160 hc        1 TQD      0.057700
     32 H7'1        2.9240   -3.0170   -1.8960 hc        1 TQD      0.047700
     33 H7'2        2.8390   -1.2150   -2.0420 hc        1 TQD      0.047700
     34 H81         4.0950   -2.8980    0.2340 hc        1 TQD      0.060700
     35 H82         4.9340   -1.8040   -0.9410 hc        1 TQD      0.060700
     36 H8'1        0.3420   -1.5040   -2.2950 h1        1 TQD      0.054200
     37 H8'2        0.5690   -3.2960   -2.0540 h1        1 TQD      0.054200
     38 H2'1       -2.1010   -1.5110    1.3430 ha        1 TQD      0.144500
     39 H3B1       -4.2130    0.2820    3.6200 h1        1 TQD      0.046200
     40 H3B2       -4.0230   -1.2290    2.5880 h1        1 TQD      0.046200
     41 H3B3       -2.5350   -0.3230    3.1710 h1        1 TQD      0.046200
     42 H4B1       -2.9370    3.6480   -0.4470 h1        1 TQD      0.039033
     43 H4B2       -4.6780    3.9390    0.0700 h1        1 TQD      0.039033
     44 H4B3       -3.5310    3.0060    1.1680 h1        1 TQD      0.039033
     45 H5B1       -3.1090    1.8830   -4.8230 h1        1 TQD      0.046200
     46 H5B2       -1.5760    1.0340   -4.2650 h1        1 TQD      0.046200
     47 H5B3       -3.1560    0.1020   -4.3620 h1        1 TQD      0.046200
     48 H6'1       -1.5380   -0.7150   -2.8970 ha        1 TQD      0.144500
     49 H1D         5.8000   -0.6730    0.9610 hn        1 TQD      0.417800
     50 H2A1        5.4400    2.2570    0.5660 hn        1 TQD      0.358800
     51 H2A2        6.0880    2.5580    2.0300 hn        1 TQD      0.358800
     52 H4'1        0.5490    1.3120    1.4010 hn        1 TQD      0.404300
     53 H4'2        1.2190    2.2700    2.5940 hn        1 TQD      0.404300
     54 H9'1       -0.5860   -3.1350    1.0480 h1        1 TQD      0.039033
     55 H9'2       -2.1760   -3.6290    0.2960 h1        1 TQD      0.039033
     56 H9'3       -0.6180   -4.3940   -0.2700 h1        1 TQD      0.039033
@<TRIPOS>BOND
     1    1   19 1   
     2    1   20 1   
     3    1   21 1   
     4    1   28 1   
     5    2    3 1   
     6    2   21 2   
     7    2   22 1   
     8    3    4 1   
     9    3    8 2   
    10    4    5 1   
    11    4   29 1   
    12    4   30 1   
    13    5    6 1   
    14    5    9 1   
    15    5   31 1   
    16    6    7 1   
    17    6   32 1   
    18    6   33 1   
    19    7    8 1   
    20    7   34 1   
    21    7   35 1   
    22    8   19 1   
    23    9   23 1   
    24    9   36 1   
    25    9   37 1   
    26   10   11 ar  
    27   10   18 ar  
    28   10   23 1   
    29   11   12 ar  
    30   11   38 1   
    31   12   14 ar  
    32   12   24 1   
    33   13   24 1   
    34   13   39 1   
    35   13   40 1   
    36   13   41 1   
    37   14   16 ar  
    38   14   25 1   
    39   15   25 1   
    40   15   42 1   
    41   15   43 1   
    42   15   44 1   
    43   16   18 ar  
    44   16   26 1   
    45   17   26 1   
    46   17   45 1   
    47   17   46 1   
    48   17   47 1   
    49   18   48 1   
    50   19   49 1   
    51   20   50 1   
    52   20   51 1   
    53   22   52 1   
    54   22   53 1   
    55   23   27 1   
    56   27   54 1   
    57   27   55 1   
    58   27   56 1   
@<TRIPOS>SUBSTRUCTURE
     1 TQD         1 TEMP              0 ****  ****    0 ROOT
