@<TRIPOS>MOLECULE
TQI
   42    44     1     0     0
SMALL
bcc


@<TRIPOS>ATOM
      1 N           0.7320   -0.0880    0.6890 n3        1 TQI     -0.906100
      2 CA          1.4540   -1.3440    0.6470 c3        1 TQI      0.088500
      3 C           0.7820   -2.3920    1.6110 c         1 TQI      0.904600
      4 O           0.8540   -2.1820    2.8470 o         1 TQI     -0.819300
      5 CB          2.9270   -1.2260    1.0540 c3        1 TQI     -0.013200
      6 CG          3.7680   -0.4290    0.1520 cc        1 TQI     -0.124400
      7 CD1         3.5680   -0.1540   -1.1980 cd        1 TQI     -0.113100
      8 CD2         5.0230    0.2000    0.5270 ca        1 TQI     -0.085800
      9 NE1         4.6480    0.5790   -1.7140 na        1 TQI     -0.194400
     10 CE2         5.5300    0.8490   -0.6640 ca        1 TQI     -0.054200
     11 CE3         5.7500    0.2820    1.7130 ca        1 TQI     -0.079000
     12 CZ2         6.7380    1.5610   -0.6370 ca        1 TQI     -0.154000
     13 CZ3         6.9440    0.9910    1.7230 ca        1 TQI     -0.172000
     14 CH2         7.4280    1.6210    0.5650 ca        1 TQI     -0.126000
     15 OXT         0.1890   -3.3560    1.0510 o         1 TQI     -0.819300
     16 S1         -0.0100    0.5680   -0.5410 sy        1 TQI      1.506200
     17 C2         -3.9970    0.3540   -0.7500 ca        1 TQI     -0.209300
     18 C3         -5.1140    1.3590   -1.0000 c3        1 TQI      0.696200
     19 C7         -1.6080   -0.0620   -0.5010 ca        1 TQI     -0.356500
     20 C8         -2.6790    0.8110   -0.7170 ca        1 TQI      0.020000
     21 O14        -0.1410    1.9730   -0.3620 o         1 TQI     -0.676800
     22 O15         0.5610    0.1900   -1.7840 o         1 TQI     -0.676800
     23 C16        -4.2520   -1.0130   -0.5520 ca        1 TQI      0.100400
     24 C19        -1.8780   -1.4180   -0.2990 ca        1 TQI      0.022000
     25 F20        -4.6910    2.6560   -1.1780 f         1 TQI     -0.240967
     26 F21        -5.8690    1.1200   -2.1240 f         1 TQI     -0.240967
     27 F22        -6.0390    1.4660    0.0110 f         1 TQI     -0.240967
     28 C23        -3.1920   -1.8920   -0.3240 ca        1 TQI     -0.155000
     29 CL         -5.8300   -1.6440   -0.5770 cl        1 TQI     -0.084400
     30 H           0.6450    0.2480    1.6230 hn        1 TQI      0.469800
     31 HA          1.3980   -1.7440   -0.4080 h1        1 TQI      0.056700
     32 HB1C        2.9850   -0.8140    2.0990 hc        1 TQI      0.066700
     33 HB2C        3.3270   -2.2780    1.0970 hc        1 TQI      0.066700
     34 HD1         2.7270   -0.4300   -1.8470 h4        1 TQI      0.201000
     35 HE1         4.6210    1.0830   -2.5600 hn        1 TQI      0.286700
     36 HE3         5.3730   -0.2100    2.6210 ha        1 TQI      0.138000
     37 HZ2         7.1230    2.0560   -1.5380 ha        1 TQI      0.120000
     38 HZ3         7.5250    1.0650    2.6530 ha        1 TQI      0.118000
     39 HH2         8.3760    2.1760    0.6150 ha        1 TQI      0.114000
     40 H8         -2.4720    1.8910   -0.8570 ha        1 TQI      0.176000
     41 H19        -1.0580   -2.1480   -0.0910 ha        1 TQI      0.225000
     42 H23        -3.3810   -2.9640   -0.1500 ha        1 TQI      0.166000
@<TRIPOS>BOND
     1    1    2 1   
     2    1   16 1   
     3    1   30 1   
     4    2    3 1   
     5    2    5 1   
     6    2   31 1   
     7    3    4 1   
     8    3   15 1   
     9    5    6 1   
    10    5   32 1   
    11    5   33 1   
    12    6    7 2   
    13    6    8 1   
    14    7    9 1   
    15    7   34 1   
    16    8   10 ar  
    17    8   11 ar  
    18    9   10 1   
    19    9   35 1   
    20   10   12 ar  
    21   11   13 ar  
    22   11   36 1   
    23   12   14 ar  
    24   12   37 1   
    25   13   14 ar  
    26   13   38 1   
    27   14   39 1   
    28   16   19 1   
    29   16   21 2   
    30   16   22 2   
    31   17   18 1   
    32   17   20 ar  
    33   17   23 ar  
    34   18   25 1   
    35   18   26 1   
    36   18   27 1   
    37   19   20 ar  
    38   19   24 ar  
    39   20   40 1   
    40   23   28 ar  
    41   23   29 1   
    42   24   28 ar  
    43   24   41 1   
    44   28   42 1   
@<TRIPOS>SUBSTRUCTURE
     1 TQI         1 TEMP              0 ****  ****    0 ROOT
