@<TRIPOS>MOLECULE
TQJ
   57    59     1     0     0
SMALL
bcc


@<TRIPOS>ATOM
      1 N1         -0.2730    0.0700    0.0900 n3        1 TQJ     -0.830500
      2 S2         -1.1720    1.0440   -0.7720 s6        1 TQJ      1.459900
      3 C3          1.1730    0.0360    0.0020 c3        1 TQJ      0.208800
      4 C4         -0.8290   -0.8360    1.0780 c3        1 TQJ      0.208800
      5 C5         -1.4350    0.1770   -2.2870 c3        1 TQJ     -0.347600
      6 O6         -2.4450    1.2740   -0.2360 o         1 TQJ     -0.662300
      7 O7         -0.4720    2.1970   -1.2410 o         1 TQJ     -0.662300
      8 C8          1.8750    0.1020    1.3780 c3        1 TQJ      0.170800
      9 C9         -0.1120   -0.7680    2.4440 c3        1 TQJ      0.170800
     10 C10        -2.0300    1.0540   -3.3830 c3        1 TQJ      0.179500
     11 N11         1.3330   -0.8880    2.2980 nh        1 TQJ     -0.727300
     12 C12        -2.6120    0.1930   -4.5050 c3        1 TQJ     -0.111400
     13 N13        -0.9920    2.0680   -3.8970 n4        1 TQJ     -0.403700
     14 C14         2.0230   -1.0290    3.5490 ca        1 TQJ      0.598200
     15 C15        -3.5680    0.9670   -5.3960 c3        1 TQJ     -0.102400
     16 C16        -0.7820    2.0240   -5.4260 c         1 TQJ      0.595900
     17 O17        -1.3920    3.3290   -3.6140 oh        1 TQJ     -0.384300
     18 C18         1.8080   -2.2180    4.3000 ca        1 TQJ     -0.244300
     19 N19         2.9040   -0.0680    3.9690 nb        1 TQJ     -0.704000
     20 C20        -3.3540    0.6360   -6.8610 c3        1 TQJ     -0.122700
     21 O21         0.1000    1.2860   -5.8090 o         1 TQJ     -0.405100
     22 C22         2.5160   -2.4080    5.4840 ca        1 TQJ     -0.050000
     23 C23         3.5740   -0.2810    5.1070 ca        1 TQJ      0.450200
     24 C24        -3.9240    1.7290   -7.7450 ca        1 TQJ      0.629300
     25 C25         3.4200   -1.4310    5.9110 ca        1 TQJ     -0.163200
     26 N26        -3.2380    2.9170   -7.7860 nb        1 TQJ     -0.715500
     27 N27        -5.0660    1.4500   -8.4440 nb        1 TQJ     -0.715500
     28 BR28        4.3950   -1.6270    7.4820 br        1 TQJ     -0.039100
     29 C29        -3.7370    3.8720   -8.5950 ca        1 TQJ      0.441700
     30 C30        -5.5370    2.4290   -9.2420 ca        1 TQJ      0.441700
     31 C31        -4.9020    3.6800   -9.3620 ca        1 TQJ     -0.343600
     32 H3          1.4780   -0.9160   -0.5210 h1        1 TQJ      0.069950
     33 H3A         1.5300    0.9190   -0.6030 h1        1 TQJ      0.069950
     34 H4         -1.9160   -0.5830    1.2480 h1        1 TQJ      0.069950
     35 H4A        -0.7550   -1.8890    0.6780 h1        1 TQJ      0.069950
     36 H5         -0.5110   -0.3390   -2.6560 h1        1 TQJ      0.136200
     37 H5A        -2.1720   -0.6550   -2.1030 h1        1 TQJ      0.136200
     38 H8          1.7900    1.1530    1.7790 h1        1 TQJ      0.068950
     39 H8A         2.9660   -0.1260    1.2120 h1        1 TQJ      0.068950
     40 H9         -0.4850   -1.6300    3.0640 h1        1 TQJ      0.068950
     41 H9A        -0.4020    0.1920    2.9620 h1        1 TQJ      0.068950
     42 H10        -2.8700    1.6800   -2.9410 hx        1 TQJ      0.130700
     43 H12        -3.1760   -0.6500   -4.0170 hc        1 TQJ      0.085200
     44 H12A       -1.7890   -0.2880   -5.0980 hc        1 TQJ      0.085200
     45 H15        -4.6260    0.7130   -5.1160 hc        1 TQJ      0.069200
     46 H15A       -3.4600    2.0710   -5.2210 hc        1 TQJ      0.069200
     47 H16        -1.4720    2.7120   -5.9700 hx        1 TQJ      0.184200
     48 HO17       -1.1460    3.5410   -2.6770 ho        1 TQJ      0.501000
     49 H18         1.1070   -2.9880    3.9490 ha        1 TQJ      0.154000
     50 H20        -3.8380   -0.3490   -7.1010 hc        1 TQJ      0.074200
     51 H20A       -2.2580    0.5320   -7.0900 hc        1 TQJ      0.074200
     52 H22         2.3600   -3.3280    6.0710 ha        1 TQJ      0.162000
     53 H23         4.2760    0.5260    5.3950 h4        1 TQJ      0.045100
     54 H29        -3.1780    4.8250   -8.6300 h4        1 TQJ      0.041600
     55 H30        -6.4600    2.1930   -9.8050 h4        1 TQJ      0.041600
     56 H31        -5.2930    4.4650  -10.0200 ha        1 TQJ      0.173000
     57 H131       -0.0840    1.8660   -3.4260 hn        1 TQJ      0.462800
@<TRIPOS>BOND
     1    1    2 1   
     2    1    3 1   
     3    1    4 1   
     4    2    5 1   
     5    2    6 2   
     6    2    7 2   
     7    3    8 1   
     8    3   32 1   
     9    3   33 1   
    10    4    9 1   
    11    4   34 1   
    12    4   35 1   
    13    5   10 1   
    14    5   36 1   
    15    5   37 1   
    16    8   11 1   
    17    8   38 1   
    18    8   39 1   
    19    9   11 1   
    20    9   40 1   
    21    9   41 1   
    22   10   12 1   
    23   10   13 1   
    24   10   42 1   
    25   11   14 1   
    26   12   15 1   
    27   12   43 1   
    28   12   44 1   
    29   13   16 1   
    30   13   17 1   
    31   13   57 1   
    32   14   18 ar  
    33   14   19 ar  
    34   15   20 1   
    35   15   45 1   
    36   15   46 1   
    37   16   21 2   
    38   16   47 1   
    39   17   48 1   
    40   18   22 ar  
    41   18   49 1   
    42   19   23 ar  
    43   20   24 1   
    44   20   50 1   
    45   20   51 1   
    46   22   25 ar  
    47   22   52 1   
    48   23   25 ar  
    49   23   53 1   
    50   24   26 ar  
    51   24   27 ar  
    52   25   28 1   
    53   26   29 ar  
    54   27   30 ar  
    55   29   31 ar  
    56   29   54 1   
    57   30   31 ar  
    58   30   55 1   
    59   31   56 1   
@<TRIPOS>SUBSTRUCTURE
     1 TQJ         1 TEMP              0 ****  ****    0 ROOT
