@<TRIPOS>MOLECULE
TQJ
   56    53     1     0     0
SMALL
bcc


@<TRIPOS>ATOM
      1 N1         -1.5840   -1.2890    0.5820 n3        1 TQJ     -0.841000
      2 S2         -0.5350   -1.8260   -0.5870 s4        1 TQJ      2.018800
      3 C3         -2.8250   -0.6920    0.2080 c3        1 TQJ     -0.050500
      4 C4         -1.0800   -0.7810    1.8160 c3        1 TQJ     -0.050500
      5 C5         -0.3630   -0.5970   -1.8790 c2        1 TQJ     -0.900000
      6 O6          0.7460   -2.1730   -0.0210 o         1 TQJ     -0.538900
      7 O7         -0.9560   -3.0950   -1.1250 o         1 TQJ     -0.538900
      8 C8         -3.8580   -0.7520    1.3270 c3        1 TQJ     -0.067000
      9 C9         -2.1120   -0.8420    2.9340 c3        1 TQJ     -0.067000
     10 C10         1.0430   -0.6580   -2.4530 c3        1 TQJ      0.057000
     11 N11        -3.3540   -0.2440    2.5600 n3        1 TQJ     -0.204000
     12 C12         1.4090    0.6950   -3.0530 c3        1 TQJ     -0.152000
     13 N13         1.1000   -1.6550   -3.4620 n         1 TQJ     -0.193000
     14 C14        -4.3210   -0.4590    3.6000 c2        1 TQJ      0.090000
     15 C15         2.4770    1.3710   -2.1800 c3        1 TQJ     -0.150000
     16 C16         1.3710   -3.0200   -3.1080 c2        1 TQJ      0.207000
     17 O17         0.9740   -1.3010   -4.7820 oh        1 TQJ     -0.245000
     18 C18        -5.2040   -1.1220    4.4440 c2        1 TQJ     -0.190000
     19 N19        -4.2310    0.9010    3.6380 n1        1 TQJ     -0.186000
     20 C20         3.7950    1.4800   -2.9720 c3        1 TQJ     -0.096000
     21 O21         1.1400   -3.9170   -3.9090 o         1 TQJ     -0.313000
     22 C22        -5.9820   -0.4100    5.3120 c1        1 TQJ     -0.051000
     23 C23        -5.0090    1.6150    4.5070 c1        1 TQJ     -0.015000
     24 C24         4.9160    1.9100   -2.0360 c2        1 TQJ      0.025000
     25 C25        -5.8910    0.9560    5.3500 c1        1 TQJ     -0.252000
     26 N26         5.6720    2.9900   -2.3990 n2        1 TQJ     -0.174000
     27 N27         5.3040    1.1240   -0.9890 n1        1 TQJ     -0.168000
     28 BR28       -6.9500    2.1230    6.4400 br        1 TQJ      0.077000
     29 C29         6.7990    3.2800   -1.7250 c1        1 TQJ     -0.035000
     30 C30         6.4310    1.4120   -0.3130 c1        1 TQJ     -0.136500
     31 C31         7.1880    2.4930   -0.6750 c1        1 TQJ     -0.136500
     32 H3         -2.6670    0.2500   -0.0280 h1        1 TQJ      0.104000
     33 H3A        -3.1810   -1.1630   -0.5800 h1        1 TQJ      0.104000
     34 H4         -0.8050    0.1530    1.6880 h1        1 TQJ      0.104000
     35 H4A        -0.2940   -1.3110    2.0810 h1        1 TQJ      0.104000
     36 H5         -0.5240    0.2950   -1.5060 ha        1 TQJ      0.170500
     37 H5A        -1.0150   -0.7770   -2.5910 ha        1 TQJ      0.170500
     38 H8         -4.6450   -0.2220    1.0620 h1        1 TQJ      0.112000
     39 H8A        -4.1340   -1.6870    1.4560 h1        1 TQJ      0.112000
     40 H9         -2.2690   -1.7800    3.1700 h1        1 TQJ      0.112000
     41 H9A        -1.7560   -0.3700    3.7230 h1        1 TQJ      0.112000
     42 H10         1.6780   -0.8810   -1.7380 h1        1 TQJ      0.103000
     43 H12         1.7620    0.5660   -3.9620 hc        1 TQJ      0.095000
     44 H12A        0.6070    1.2650   -3.0900 hc        1 TQJ      0.095000
     45 H15         2.6250    0.8360   -1.3730 hc        1 TQJ      0.094500
     46 H15A        2.1710    2.2710   -1.9250 hc        1 TQJ      0.094500
     47 H16         1.7850   -3.2300   -2.2430 h5        1 TQJ      0.173000
     48 HO17        1.6050   -1.7120   -5.2620 ho        1 TQJ      0.233000
     49 H18        -5.2680   -2.0980    4.4160 ha        1 TQJ      0.155000
     50 H20         4.0150    0.6070   -3.3670 hc        1 TQJ      0.108500
     51 H20A        3.6930    2.1490   -3.6910 hc        1 TQJ      0.108500
     52 H22        -6.6050   -0.8770    5.9080 ha        1 TQJ      0.154000
     53 H23        -4.9430    2.5960    4.5340 ha        1 TQJ      0.174000
     54 H29         7.3390    4.0520   -1.9840 ha        1 TQJ      0.164000
     55 H30         6.7090    0.8490    0.4380 ha        1 TQJ      0.160500
     56 H31         8.0070    2.7030   -0.1850 ha        1 TQJ      0.160500
@<TRIPOS>BOND
     1    1    2 1   
     2    1    3 1   
     3    1    4 1   
     4    2    6 1   
     5    2    7 1   
     6    3    8 1   
     7    3   32 1   
     8    3   33 1   
     9    4    9 1   
    10    4   34 1   
    11    4   35 1   
    12    5   10 1   
    13    5   36 1   
    14    5   37 1   
    15    8   11 1   
    16    8   38 1   
    17    8   39 1   
    18    9   11 1   
    19    9   40 1   
    20    9   41 1   
    21   10   12 1   
    22   10   13 1   
    23   10   42 1   
    24   11   14 1   
    25   12   15 1   
    26   12   43 1   
    27   12   44 1   
    28   13   16 1   
    29   13   17 1   
    30   14   18 1   
    31   14   19 1   
    32   15   20 1   
    33   15   45 1   
    34   15   46 1   
    35   16   21 1   
    36   16   47 1   
    37   17   48 1   
    38   18   22 1   
    39   18   49 1   
    40   20   24 1   
    41   20   50 1   
    42   20   51 1   
    43   22   52 1   
    44   23   25 1   
    45   23   53 1   
    46   24   26 1   
    47   24   27 1   
    48   25   28 1   
    49   26   29 1   
    50   29   54 1   
    51   30   31 1   
    52   30   55 1   
    53   31   56 1   
@<TRIPOS>SUBSTRUCTURE
     1 TQJ         1 TEMP              0 ****  ****    0 ROOT
