@<TRIPOS>MOLECULE
TQJ
   57    59     1     0     0
SMALL
bcc


@<TRIPOS>ATOM
      1 N1         -0.2660    0.0680    0.0870 n3        1 TQJ     -0.830500
      2 S2         -1.1700    1.0410   -0.7720 s6        1 TQJ      1.459900
      3 C3          1.1800    0.0390   -0.0030 c3        1 TQJ      0.208800
      4 C4         -0.8180   -0.8410    1.0740 c3        1 TQJ      0.208800
      5 C5         -1.4330    0.1740   -2.2880 c3        1 TQJ     -0.347600
      6 O6         -2.4430    1.2660   -0.2330 o         1 TQJ     -0.662300
      7 O7         -0.4730    2.1960   -1.2410 o         1 TQJ     -0.662300
      8 C8          1.8830    0.1060    1.3720 c3        1 TQJ      0.170800
      9 C9         -0.0990   -0.7710    2.4390 c3        1 TQJ      0.170800
     10 C10        -2.0330    1.0510   -3.3810 c3        1 TQJ      0.179500
     11 N11         1.3470   -0.8870    2.2920 nh        1 TQJ     -0.727300
     12 C12        -2.6150    0.1900   -4.5030 c3        1 TQJ     -0.111400
     13 N13        -0.9990    2.0690   -3.8960 nx        1 TQJ     -0.403700
     14 C14         2.0380   -1.0260    3.5420 ca        1 TQJ      0.598200
     15 C15        -3.5750    0.9630   -5.3900 c3        1 TQJ     -0.102400
     16 C16        -0.7920    2.0280   -5.4260 c         1 TQJ      0.594900
     17 O17        -1.4020    3.3290   -3.6110 oh        1 TQJ     -0.384300
     18 C18         1.8280   -2.2160    4.2920 ca        1 TQJ     -0.244300
     19 N19         2.9150   -0.0610    3.9620 nb        1 TQJ     -0.704000
     20 C20        -3.3650    0.6350   -6.8570 c3        1 TQJ     -0.122700
     21 O21         0.0910    1.2940   -5.8110 o         1 TQJ     -0.405100
     22 C22         2.5380   -2.4050    5.4750 ca        1 TQJ     -0.050000
     23 C23         3.5880   -0.2730    5.0990 ca        1 TQJ      0.450200
     24 C24        -3.9400    1.7280   -7.7380 ca        1 TQJ      0.629300
     25 C25         3.4390   -1.4250    5.9030 ca        1 TQJ     -0.163200
     26 N26        -3.2570    2.9180   -7.7790 nb        1 TQJ     -0.715500
     27 N27        -5.0830    1.4470   -8.4330 nb        1 TQJ     -0.715500
     28 Br28        4.4160   -1.6190    7.4720 br        1 TQJ     -0.039100
     29 C29        -3.7610    3.8720   -8.5850 ca        1 TQJ      0.441700
     30 C30        -5.5590    2.4260   -9.2290 ca        1 TQJ      0.441700
     31 C31        -4.9280    3.6780   -9.3480 ca        1 TQJ     -0.343600
     32 H3          1.5330    0.9240   -0.6070 h1        1 TQJ      0.069950
     33 H3A         1.4880   -0.9110   -0.5270 h1        1 TQJ      0.069950
     34 H4         -1.9050   -0.5920    1.2460 h1        1 TQJ      0.069950
     35 H4A        -0.7400   -1.8930    0.6740 h1        1 TQJ      0.069950
     36 H5         -0.5080   -0.3380   -2.6600 h1        1 TQJ      0.136200
     37 H5A        -2.1670   -0.6600   -2.1040 h1        1 TQJ      0.136200
     38 H8          1.7940    1.1560    1.7740 h1        1 TQJ      0.068950
     39 H8A         2.9740   -0.1170    1.2050 h1        1 TQJ      0.068950
     40 H9         -0.3930    0.1860    2.9600 h1        1 TQJ      0.068950
     41 H9A        -0.4690   -1.6360    3.0590 h1        1 TQJ      0.068950
     42 H10        -2.8730    1.6740   -2.9360 hx        1 TQJ      0.130700
     43 H12        -3.1760   -0.6550   -4.0150 hc        1 TQJ      0.085200
     44 H12A       -1.7920   -0.2870   -5.0990 hc        1 TQJ      0.085200
     45 H15        -4.6330    0.7060   -5.1080 hc        1 TQJ      0.069200
     46 H15A       -3.4710    2.0670   -5.2150 hc        1 TQJ      0.069200
     47 H16        -1.4860    2.7140   -5.9670 hx        1 TQJ      0.184200
     48 HO17       -1.1550    3.5410   -2.6740 ho        1 TQJ      0.501000
     49 H18         1.1300   -2.9890    3.9410 ha        1 TQJ      0.154000
     50 H20        -2.2690    0.5350   -7.0890 hc        1 TQJ      0.074200
     51 H20A       -3.8460   -0.3510   -7.0970 hc        1 TQJ      0.074200
     52 H22         2.3860   -3.3260    6.0610 ha        1 TQJ      0.162000
     53 H23         4.2870    0.5370    5.3880 h4        1 TQJ      0.045100
     54 H29        -3.2050    4.8270   -8.6190 h4        1 TQJ      0.041600
     55 H30        -6.4830    2.1870   -9.7890 h4        1 TQJ      0.041600
     56 H31        -5.3240    4.4630  -10.0040 ha        1 TQJ      0.173000
     57 H131       -0.0890    1.8700   -3.4280 hn        1 TQJ      0.462800
@<TRIPOS>BOND
     1    1    2 1   
     2    1    3 1   
     3    1    4 1   
     4    2    5 1   
     5    2    6 2   
     6    2    7 2   
     7    3    8 1   
     8    3   32 1   
     9    3   33 1   
    10    4    9 1   
    11    4   34 1   
    12    4   35 1   
    13    5   10 1   
    14    5   36 1   
    15    5   37 1   
    16    8   11 1   
    17    8   38 1   
    18    8   39 1   
    19    9   11 1   
    20    9   40 1   
    21    9   41 1   
    22   10   12 1   
    23   10   13 1   
    24   10   42 1   
    25   11   14 1   
    26   12   15 1   
    27   12   43 1   
    28   12   44 1   
    29   13   16 1   
    30   13   17 1   
    31   13   57 1   
    32   14   18 ar  
    33   14   19 ar  
    34   15   20 1   
    35   15   45 1   
    36   15   46 1   
    37   16   21 2   
    38   16   47 1   
    39   17   48 1   
    40   18   22 ar  
    41   18   49 1   
    42   19   23 ar  
    43   20   24 1   
    44   20   50 1   
    45   20   51 1   
    46   22   25 ar  
    47   22   52 1   
    48   23   25 ar  
    49   23   53 1   
    50   24   26 ar  
    51   24   27 ar  
    52   25   28 1   
    53   26   29 ar  
    54   27   30 ar  
    55   29   31 ar  
    56   29   54 1   
    57   30   31 ar  
    58   30   55 1   
    59   31   56 1   
@<TRIPOS>SUBSTRUCTURE
     1 TQJ         1 TEMP              0 ****  ****    0 ROOT
