@<TRIPOS>MOLECULE
TQJ
   57    59     1     0     0
SMALL
bcc


@<TRIPOS>ATOM
      1 N1         -0.2700    0.0770    0.0910 n3        1 TQJ     -0.830500
      2 S2         -1.1600    1.0550   -0.7760 s6        1 TQJ      1.459900
      3 C3          1.1760    0.0250   -0.0020 c3        1 TQJ      0.208800
      4 C4         -0.8330   -0.8150    1.0870 c3        1 TQJ      0.208800
      5 C5         -1.4390    0.1790   -2.2830 c3        1 TQJ     -0.347600
      6 O6         -2.4290    1.3040   -0.2370 o         1 TQJ     -0.662800
      7 O7         -0.4480    2.1960   -1.2560 o         1 TQJ     -0.662800
      8 C8          1.8820    0.0940    1.3710 c3        1 TQJ      0.170800
      9 C9         -0.1110   -0.7440    2.4500 c3        1 TQJ      0.170800
     10 C10        -2.0280    1.0540   -3.3830 c3        1 TQJ      0.179500
     11 N11         1.3320   -0.8830    2.3010 nh        1 TQJ     -0.727300
     12 C12        -2.6260    0.1920   -4.4960 c3        1 TQJ     -0.111400
     13 N13        -0.9810    2.0530   -3.9090 n4        1 TQJ     -0.403700
     14 C14         2.0240   -1.0210    3.5510 ca        1 TQJ      0.598200
     15 C15        -3.5770    0.9710   -5.3880 c3        1 TQJ     -0.102400
     16 C16        -0.7780    1.9940   -5.4390 c         1 TQJ      0.594900
     17 O17        -1.3650    3.3210   -3.6350 oh        1 TQJ     -0.384300
     18 C18         1.7970   -2.2020    4.3120 ca        1 TQJ     -0.244300
     19 N19         2.9170   -0.0670    3.9610 nb        1 TQJ     -0.704000
     20 C20        -3.3740    0.6270   -6.8520 c3        1 TQJ     -0.122700
     21 O21         0.0930    1.2440   -5.8200 o         1 TQJ     -0.405100
     22 C22         2.5060   -2.3910    5.4960 ca        1 TQJ     -0.050000
     23 C23         3.5880   -0.2790    5.0990 ca        1 TQJ      0.450200
     24 C24        -3.9350    1.7200   -7.7420 ca        1 TQJ      0.629300
     25 C25         3.4230   -1.4210    5.9130 ca        1 TQJ     -0.163200
     26 N26        -3.2350    2.8990   -7.7950 nb        1 TQJ     -0.715500
     27 N27        -5.0840    1.4500   -8.4320 nb        1 TQJ     -0.715500
     28 BR28        4.4010   -1.6160    7.4820 br        1 TQJ     -0.039100
     29 C29        -3.7270    3.8540   -8.6090 ca        1 TQJ      0.441700
     30 C30        -5.5470    2.4280   -9.2360 ca        1 TQJ      0.441700
     31 C31        -4.8970    3.6700   -9.3680 ca        1 TQJ     -0.343600
     32 H3          1.5410    0.8990   -0.6140 h1        1 TQJ      0.069950
     33 H3A         1.4680   -0.9340   -0.5180 h1        1 TQJ      0.069950
     34 H4         -1.9170   -0.5480    1.2590 h1        1 TQJ      0.069950
     35 H4A        -0.7730   -1.8710    0.6950 h1        1 TQJ      0.069950
     36 H5         -0.5220   -0.3500   -2.6520 h1        1 TQJ      0.136200
     37 H5A        -2.1850   -0.6420   -2.0900 h1        1 TQJ      0.136200
     38 H8          2.9700   -0.1470    1.2040 h1        1 TQJ      0.068950
     39 H8A         1.8100    1.1490    1.7650 h1        1 TQJ      0.068950
     40 H9         -0.3890    0.2220    2.9620 h1        1 TQJ      0.068950
     41 H9A        -0.4930   -1.5980    3.0780 h1        1 TQJ      0.068950
     42 H10        -2.8590    1.6940   -2.9420 hx        1 TQJ      0.130700
     43 H12        -1.8110   -0.3030   -5.0900 hc        1 TQJ      0.085200
     44 H12A       -3.1980   -0.6400   -3.9990 hc        1 TQJ      0.085200
     45 H15        -3.4550    2.0750   -5.2230 hc        1 TQJ      0.069200
     46 H15A       -4.6370    0.7320   -5.1020 hc        1 TQJ      0.069200
     47 H16        -1.4620    2.6860   -5.9850 hx        1 TQJ      0.184200
     48 HO17       -1.1120    3.5370   -2.7010 ho        1 TQJ      0.501000
     49 H18         1.0860   -2.9670    3.9690 ha        1 TQJ      0.154000
     50 H20        -3.8700   -0.3540   -7.0830 hc        1 TQJ      0.074200
     51 H20A       -2.2810    0.5080   -7.0850 hc        1 TQJ      0.074200
     52 H22         2.3420   -3.3050    6.0900 ha        1 TQJ      0.162000
     53 H23         4.3000    0.5220    5.3780 h4        1 TQJ      0.045100
     54 H29        -3.1560    4.8000   -8.6530 h4        1 TQJ      0.041600
     55 H30        -6.4760    2.1990   -9.7920 h4        1 TQJ      0.041600
     56 H31        -5.2830    4.4550  -10.0300 ha        1 TQJ      0.173000
     57 H131       -0.0730    1.8440   -3.4410 hn        1 TQJ      0.462800
@<TRIPOS>BOND
     1    1    2 1   
     2    1    3 1   
     3    1    4 1   
     4    2    5 1   
     5    2    6 2   
     6    2    7 2   
     7    3    8 1   
     8    3   32 1   
     9    3   33 1   
    10    4    9 1   
    11    4   34 1   
    12    4   35 1   
    13    5   10 1   
    14    5   36 1   
    15    5   37 1   
    16    8   11 1   
    17    8   38 1   
    18    8   39 1   
    19    9   11 1   
    20    9   40 1   
    21    9   41 1   
    22   10   12 1   
    23   10   13 1   
    24   10   42 1   
    25   11   14 1   
    26   12   15 1   
    27   12   43 1   
    28   12   44 1   
    29   13   16 1   
    30   13   17 1   
    31   13   57 1   
    32   14   18 ar  
    33   14   19 ar  
    34   15   20 1   
    35   15   45 1   
    36   15   46 1   
    37   16   21 2   
    38   16   47 1   
    39   17   48 1   
    40   18   22 ar  
    41   18   49 1   
    42   19   23 ar  
    43   20   24 1   
    44   20   50 1   
    45   20   51 1   
    46   22   25 ar  
    47   22   52 1   
    48   23   25 ar  
    49   23   53 1   
    50   24   26 ar  
    51   24   27 ar  
    52   25   28 1   
    53   26   29 ar  
    54   27   30 ar  
    55   29   31 ar  
    56   29   54 1   
    57   30   31 ar  
    58   30   55 1   
    59   31   56 1   
@<TRIPOS>SUBSTRUCTURE
     1 TQJ         1 TEMP              0 ****  ****    0 ROOT
