@<TRIPOS>MOLECULE
TQJ
   56    58     1     0     0
SMALL
bcc


@<TRIPOS>ATOM
      1 N1          0.4270    0.5390   -0.2670 n3        1 TQJ     -0.824500
      2 S2         -0.8320    1.3570    0.3590 s6        1 TQJ      1.450900
      3 C3          1.3410    1.1210   -1.2160 c3        1 TQJ      0.217800
      4 C4          0.7490   -0.8110    0.1150 c3        1 TQJ      0.217800
      5 C5         -2.1160    0.9770   -0.7390 c3        1 TQJ     -0.322600
      6 O6         -1.1570    0.8280    1.6340 o         1 TQJ     -0.651300
      7 O7         -0.5860    2.7420    0.2920 o         1 TQJ     -0.651300
      8 C8          2.8290    0.9250   -0.8470 c3        1 TQJ      0.174300
      9 C9          2.2350   -1.0110    0.4890 c3        1 TQJ      0.174300
     10 C10        -3.4440    0.7380   -0.0090 c3        1 TQJ      0.114700
     11 N11         3.1320   -0.4620   -0.5200 nh        1 TQJ     -0.732300
     12 C12        -4.5360    0.3830   -1.0210 c3        1 TQJ     -0.101400
     13 N13        -3.7190    1.8930    0.8680 n         1 TQJ     -0.341300
     14 C14         4.5050   -0.7940   -0.3330 ca        1 TQJ      0.631200
     15 C15        -5.7650   -0.1760   -0.3350 c3        1 TQJ     -0.079400
     16 C16        -4.3900    3.0460    0.3910 c         1 TQJ      0.660900
     17 O17        -4.1060    1.5300    2.0930 oh        1 TQJ     -0.430100
     18 C18         4.8720   -2.1720   -0.2620 ca        1 TQJ     -0.267300
     19 N19         5.4600    0.1910   -0.3040 nb        1 TQJ     -0.710000
     20 C20        -6.8520   -0.4650   -1.3510 c3        1 TQJ     -0.114700
     21 O21        -4.3700    3.3700   -0.8010 o         1 TQJ     -0.567100
     22 C22         6.2150   -2.5160   -0.1650 ca        1 TQJ     -0.047000
     23 C23         6.7450   -0.1730   -0.2170 ca        1 TQJ      0.456200
     24 C24        -8.0570   -1.0740   -0.6600 ca        1 TQJ      0.645300
     25 C25         7.1860   -1.5100   -0.1390 ca        1 TQJ     -0.184200
     26 N26        -9.0270   -0.2170   -0.2070 nb        1 TQJ     -0.696000
     27 N27        -8.0860   -2.4390   -0.5260 nb        1 TQJ     -0.696000
     28 BR28        8.9990   -1.9090   -0.0100 br        1 TQJ     -0.066100
     29 C29       -10.0830   -0.7760    0.4130 ca        1 TQJ      0.429700
     30 C30        -9.1590   -2.9600    0.1000 ca        1 TQJ      0.429700
     31 C31       -10.2070   -2.1660    0.6000 ca        1 TQJ     -0.369600
     32 H3          1.1580    0.6630   -2.2320 h1        1 TQJ      0.062700
     33 H3A         1.1550    2.2320   -1.2820 h1        1 TQJ      0.062700
     34 H4          0.1330   -1.1030    1.0140 h1        1 TQJ      0.062700
     35 H4A         0.4960   -1.5070   -0.7370 h1        1 TQJ      0.062700
     36 H5         -2.2640    1.8270   -1.4620 h1        1 TQJ      0.126700
     37 H5A        -1.9240    0.0730   -1.3710 h1        1 TQJ      0.126700
     38 H8          3.4410    1.2210   -1.7450 h1        1 TQJ      0.058200
     39 H8A         3.0900    1.6190    0.0030 h1        1 TQJ      0.058200
     40 H9          2.4220   -0.5420    1.4980 h1        1 TQJ      0.058200
     41 H9A         2.4120   -2.1180    0.5790 h1        1 TQJ      0.058200
     42 H10        -3.3090   -0.1550    0.6790 h1        1 TQJ      0.081700
     43 H12        -4.8070    1.2840   -1.6320 hc        1 TQJ      0.064700
     44 H12A       -4.1210   -0.3860   -1.7250 hc        1 TQJ      0.064700
     45 H15        -5.4970   -1.1190    0.2110 hc        1 TQJ      0.055700
     46 H15A       -6.1440    0.5550    0.4270 hc        1 TQJ      0.055700
     47 H16        -4.8380    3.6650    1.2020 h5        1 TQJ      0.056200
     48 HO17       -3.2710    1.4360    2.6040 ho        1 TQJ      0.444000
     49 H18         4.1090   -2.9620   -0.3040 ha        1 TQJ      0.151000
     50 H20        -7.1520    0.4830   -1.8700 hc        1 TQJ      0.069200
     51 H20A       -6.4680   -1.1740   -2.1320 hc        1 TQJ      0.069200
     52 H22         6.5040   -3.5780   -0.1140 ha        1 TQJ      0.152000
     53 H23         7.4660    0.6670   -0.2020 h4        1 TQJ      0.037100
     54 H29       -10.8590   -0.0760    0.7730 h4        1 TQJ      0.028100
     55 H30        -9.1720   -4.0600    0.2020 h4        1 TQJ      0.028100
     56 H31       -11.0730   -2.6050    1.1060 ha        1 TQJ      0.155000
@<TRIPOS>BOND
     1    1    2 1   
     2    1    3 1   
     3    1    4 1   
     4    2    5 1   
     5    2    6 2   
     6    2    7 2   
     7    3    8 1   
     8    3   32 1   
     9    3   33 1   
    10    4    9 1   
    11    4   34 1   
    12    4   35 1   
    13    5   10 1   
    14    5   36 1   
    15    5   37 1   
    16    8   11 1   
    17    8   38 1   
    18    8   39 1   
    19    9   11 1   
    20    9   40 1   
    21    9   41 1   
    22   10   12 1   
    23   10   13 1   
    24   10   42 1   
    25   11   14 1   
    26   12   15 1   
    27   12   43 1   
    28   12   44 1   
    29   13   16 1   
    30   13   17 1   
    31   14   18 ar  
    32   14   19 ar  
    33   15   20 1   
    34   15   45 1   
    35   15   46 1   
    36   16   21 2   
    37   16   47 1   
    38   17   48 1   
    39   18   22 ar  
    40   18   49 1   
    41   19   23 ar  
    42   20   24 1   
    43   20   50 1   
    44   20   51 1   
    45   22   25 ar  
    46   22   52 1   
    47   23   25 ar  
    48   23   53 1   
    49   24   26 ar  
    50   24   27 ar  
    51   25   28 1   
    52   26   29 ar  
    53   27   30 ar  
    54   29   31 ar  
    55   29   54 1   
    56   30   31 ar  
    57   30   55 1   
    58   31   56 1   
@<TRIPOS>SUBSTRUCTURE
     1 TQJ         1 TEMP              0 ****  ****    0 ROOT
