@<TRIPOS>MOLECULE
TQQ
   27    28     1     0     0
SMALL
bcc


@<TRIPOS>ATOM
      1 N          -0.1760    3.1780   -1.1290 n3        1 TQQ     -0.890800
      2 CA          0.0850    2.4770    0.1250 c3        1 TQQ      0.024500
      3 C           0.3700    3.4570    1.3100 c         1 TQQ      0.884600
      4 O           1.0650    4.4820    1.0710 o         1 TQQ     -0.841800
      5 CB          1.2660    1.5000   -0.0170 c3        1 TQQ      0.001900
      6 CG          1.1480    0.3330    0.8690 cc        1 TQQ     -0.115300
      7 CD1         0.6170    0.3400    2.1870 cd        1 TQQ     -0.093300
      8 CD2         1.5550   -1.0060    0.6050 cc        1 TQQ     -0.084800
      9 NE1         0.6920   -0.9310    2.7170 na        1 TQQ     -0.124100
     10 CE2         1.2640   -1.7800    1.7690 cd        1 TQQ     -0.256900
     11 CE3         2.1450   -1.6450   -0.5320 cc        1 TQQ     -0.021200
     12 CZ2         1.5390   -3.1870    1.8800 c         1 TQQ      0.471400
     13 CZ3         2.4350   -2.9610   -0.5100 cd        1 TQQ     -0.267600
     14 CH2         2.1760   -3.8270    0.6540 cd        1 TQQ      0.436600
     15 O2          1.2920   -3.8770    2.8860 o         1 TQQ     -0.587100
     16 N2          2.4850   -5.0810    0.6170 n2        1 TQQ     -0.738100
     17 OXT        -0.1320    3.1830    2.4390 o         1 TQQ     -0.841800
     18 H          -0.9430    3.8070   -0.9710 hn        1 TQQ      0.333800
     19 H2          0.6250    3.7490   -1.3370 hn        1 TQQ      0.333800
     20 HA         -0.8430    1.8880    0.3770 h1        1 TQQ      0.047700
     21 HB2         1.3530    1.1360   -1.0770 hc        1 TQQ      0.047700
     22 HB3         2.2130    2.0570    0.2250 hc        1 TQQ      0.047700
     23 HD1         0.1990    1.2110    2.7280 h4        1 TQQ      0.255000
     24 HE1         0.3990   -1.2160    3.6150 hn        1 TQQ      0.302700
     25 HE3         2.3480   -1.0250   -1.4200 ha        1 TQQ      0.140000
     26 HZ3         2.8880   -3.4500   -1.3870 ha        1 TQQ      0.138000
     27 HN2         2.2700   -5.5860    1.4550 hn        1 TQQ      0.395400
@<TRIPOS>BOND
     1    1    2 1   
     2    1   18 1   
     3    1   19 1   
     4    2    3 1   
     5    2    5 1   
     6    2   20 1   
     7    3    4 1   
     8    3   17 1   
     9    5    6 1   
    10    5   21 1   
    11    5   22 1   
    12    6    7 2   
    13    6    8 1   
    14    7    9 1   
    15    7   23 1   
    16    8   10 2   
    17    8   11 1   
    18    9   10 1   
    19    9   24 1   
    20   10   12 1   
    21   11   13 2   
    22   11   25 1   
    23   12   14 1   
    24   12   15 2   
    25   13   14 1   
    26   13   26 1   
    27   14   16 2   
    28   16   27 1   
@<TRIPOS>SUBSTRUCTURE
     1 TQQ         1 TEMP              0 ****  ****    0 ROOT
