@<TRIPOS>MOLECULE
TQT
   57    60     1     0     0
SMALL
bcc


@<TRIPOS>ATOM
      1 C2'         0.2800    0.0290   -0.5910 c3        1 TQT      0.704900
      2 C4'        -0.4950   -0.9250    1.6020 c3        1 TQT      0.396700
      3 C4B         1.0180   -0.9140    1.9560 c3        1 TQT     -0.087700
      4 C6'         0.7850    0.0350    4.3000 c3        1 TQT     -0.071700
      5 C7'         1.3770    1.3490    3.8210 c3        1 TQT     -0.081400
      6 C8B         1.6030    0.4360    1.4890 c3        1 TQT      0.191500
      7 C9'         1.1740   -0.2330    5.7700 c3        1 TQT      0.182800
      8 C'0        -0.8220    0.4700    7.0210 c3        1 TQT      0.158800
      9 C'1         1.3100    0.8620    7.9530 c3        1 TQT      0.163500
     10 C'2         2.5390    1.7600    7.9960 c3        1 TQT     -0.065400
     11 C'3         3.1050    1.6970    9.4080 c3        1 TQT     -0.080400
     12 C'4         2.0870    2.0220   10.4870 c3        1 TQT     -0.081400
     13 C'5         0.7900    1.2380   10.3540 c3        1 TQT     -0.069400
     14 C'6         0.2620    1.4230    8.9530 c3        1 TQT     -0.067700
     15 C'7        -1.0180    0.7120    8.5350 c3        1 TQT     -0.086400
     16 N1'         1.3960    0.6450    0.0630 n3        1 TQT     -0.894200
     17 N2'         0.8730   -1.0600   -1.6020 n4        1 TQT     -0.900600
     18 N3'        -0.7540   -0.6020    0.2150 n3        1 TQT     -0.926200
     19 N4'        -1.1050   -2.2890    1.9680 n4        1 TQT     -0.866600
     20 C5'         1.2920   -1.1100    3.4380 c3        1 TQT     -0.100400
     21 C8'         1.0870    1.5960    2.3570 c3        1 TQT     -0.112400
     22 N'0         0.5860    0.7290    6.6740 n3        1 TQT     -0.732600
     23 H2'        -0.2270    0.7490   -1.3260 hx        1 TQT      0.134700
     24 H4'        -1.0430   -0.1950    2.2910 hx        1 TQT      0.137700
     25 H4B         1.5300   -1.7480    1.3930 hc        1 TQT      0.065700
     26 H6'        -0.3380    0.0880    4.2320 hc        1 TQT      0.030700
     27 H7'1        0.9500    2.1940    4.4280 hc        1 TQT      0.094200
     28 H7'2        2.4860    1.3480    3.9960 hc        1 TQT      0.094200
     29 H8'         2.7300    0.3780    1.6260 h1        1 TQT      0.124700
     30 H9'1        0.8810   -1.2980    6.0130 h1        1 TQT      0.041200
     31 H9'2        2.2970   -0.1630    5.8540 h1        1 TQT      0.041200
     32 H'1         1.6300   -0.1660    8.3100 h1        1 TQT      0.034700
     33 H'21        3.3110    1.4130    7.2640 hc        1 TQT      0.043700
     34 H'22        2.2660    2.8140    7.7330 hc        1 TQT      0.043700
     35 H'31        3.9610    2.4170    9.4860 hc        1 TQT      0.049200
     36 H'32        3.5160    0.6680    9.5900 hc        1 TQT      0.049200
     37 H'41        1.8530    3.1200   10.4500 hc        1 TQT      0.054200
     38 H'42        2.5420    1.8110   11.4900 hc        1 TQT      0.054200
     39 H'51        0.9690    0.1530   10.5690 hc        1 TQT      0.053200
     40 H'52        0.0440    1.6120   11.1010 hc        1 TQT      0.053200
     41 H'6         0.1290    2.5260    8.7700 hc        1 TQT      0.069700
     42 H'71       -1.9230    1.3360    8.7240 hc        1 TQT      0.061200
     43 H'72       -1.1390   -0.2580    9.0770 hc        1 TQT      0.061200
     44 H1'         1.5740    1.5850   -0.2370 hn        1 TQT      0.464800
     45 H2'1        1.4990   -0.5810   -2.2560 hn        1 TQT      0.459133
     46 H2'2        1.4090   -1.7760   -1.1120 hn        1 TQT      0.459133
     47 H3'        -1.6590   -0.2000    0.0520 hn        1 TQT      0.461800
     48 H4'1       -2.0970   -2.3320    1.7140 hn        1 TQT      0.468800
     49 H4'2       -1.0140   -2.4030    2.9870 hn        1 TQT      0.468800
     50 H5'1        0.8700   -2.0850    3.7970 hc        1 TQT      0.072200
     51 H5'2        2.4090   -1.1870    3.5680 hc        1 TQT      0.072200
     52 H8'1       -0.0140    1.7410    2.2040 hc        1 TQT      0.062200
     53 H8'2        1.5970    2.5470    2.0450 hc        1 TQT      0.062200
     54 H'01       -1.1440   -0.5730    6.7530 h1        1 TQT      0.026200
     55 H2'3        0.1120   -1.4990   -2.1220 hn        1 TQT      0.459133
     56 H4'3       -0.6110   -3.0550    1.5050 hn        1 TQT      0.468800
     57 H'02       -1.4460    1.1910    6.4280 h1        1 TQT      0.026200
@<TRIPOS>BOND
     1    1   16 1   
     2    1   17 1   
     3    1   18 1   
     4    1   23 1   
     5    2    3 1   
     6    2   18 1   
     7    2   19 1   
     8    2   24 1   
     9    3    6 1   
    10    3   20 1   
    11    3   25 1   
    12    4    5 1   
    13    4    7 1   
    14    4   20 1   
    15    4   26 1   
    16    5   21 1   
    17    5   27 1   
    18    5   28 1   
    19    6   16 1   
    20    6   21 1   
    21    6   29 1   
    22    7   22 1   
    23    7   30 1   
    24    7   31 1   
    25    8   15 1   
    26    8   22 1   
    27    8   54 1   
    28    8   57 1   
    29    9   10 1   
    30    9   14 1   
    31    9   22 1   
    32    9   32 1   
    33   10   11 1   
    34   10   33 1   
    35   10   34 1   
    36   11   12 1   
    37   11   35 1   
    38   11   36 1   
    39   12   13 1   
    40   12   37 1   
    41   12   38 1   
    42   13   14 1   
    43   13   39 1   
    44   13   40 1   
    45   14   15 1   
    46   14   41 1   
    47   15   42 1   
    48   15   43 1   
    49   16   44 1   
    50   17   45 1   
    51   17   46 1   
    52   17   55 1   
    53   18   47 1   
    54   19   48 1   
    55   19   49 1   
    56   19   56 1   
    57   20   50 1   
    58   20   51 1   
    59   21   52 1   
    60   21   53 1   
@<TRIPOS>SUBSTRUCTURE
     1 TQT         1 TEMP              0 ****  ****    0 ROOT
