@<TRIPOS>MOLECULE
TQT
   57    60     1     0     0
SMALL
bcc


@<TRIPOS>ATOM
      1 C2'         0.2490    0.0120   -0.3030 c3        1 TQT      0.603900
      2 C4'        -0.2080   -1.3400    1.6320 c3        1 TQT      0.357700
      3 C4B         1.2880   -1.2710    2.0560 c3        1 TQT     -0.137700
      4 C6'         0.9600   -0.1640    4.3090 c3        1 TQT     -0.070700
      5 C7'         1.5800    1.1140    3.7740 c3        1 TQT     -0.085400
      6 C8B         1.8610    0.0670    1.5030 c3        1 TQT      0.170500
      7 C9'         1.2630   -0.3300    5.8130 c3        1 TQT      0.181800
      8 C'0        -0.8130    0.3980    6.9110 c3        1 TQT      0.159800
      9 C'1         1.2550    0.9210    7.9170 c3        1 TQT      0.163500
     10 C'2         2.4560    1.8560    7.9550 c3        1 TQT     -0.065400
     11 C'3         2.9500    1.9110    9.3950 c3        1 TQT     -0.080400
     12 C'4         1.8700    2.2810   10.3950 c3        1 TQT     -0.081400
     13 C'5         0.6030    1.4500   10.2550 c3        1 TQT     -0.069400
     14 C'6         0.1430    1.5180    8.8200 c3        1 TQT     -0.067700
     15 C'7        -1.0950    0.7410    8.3920 c3        1 TQT     -0.086400
     16 N1'         1.6580    0.2090    0.0590 n7        1 TQT     -0.833200
     17 N2'         0.0150    0.2170   -1.8080 nz        1 TQT     -0.852600
     18 N3'        -0.3760   -1.2600    0.1670 n7        1 TQT     -0.869200
     19 N4'        -0.9000   -2.5560    2.2180 nz        1 TQT     -0.846600
     20 C5'         1.5170   -1.3590    3.5530 c3        1 TQT     -0.100400
     21 C8'         1.3330    1.2760    2.2900 c3        1 TQT     -0.082400
     22 N'0         0.6030    0.6750    6.6160 n3        1 TQT     -0.732600
     23 H2'        -0.3440    0.8650    0.1870 hx        1 TQT      0.157700
     24 H4'        -0.7600   -0.4470    2.0820 hx        1 TQT      0.146700
     25 H4B         1.8390   -2.1290    1.5720 hc        1 TQT      0.074700
     26 H6'        -0.1570   -0.1220    4.1680 hc        1 TQT      0.024700
     27 H7'1        2.6840    1.1130    3.9810 hc        1 TQT      0.094200
     28 H7'2        1.1450    1.9980    4.3160 hc        1 TQT      0.094200
     29 H8'         2.9860    0.0340    1.6600 h1        1 TQT      0.130700
     30 H9'1        0.9750   -1.3830    6.1080 h1        1 TQT      0.042200
     31 H9'2        2.3770   -0.2300    5.9590 h1        1 TQT      0.042200
     32 H'1         1.5840   -0.0690    8.3630 h1        1 TQT      0.035700
     33 H'21        2.1700    2.8800    7.6040 hc        1 TQT      0.043700
     34 H'22        3.2750    1.4810    7.2900 hc        1 TQT      0.043700
     35 H'31        3.3790    0.9100    9.6710 hc        1 TQT      0.049700
     36 H'32        3.7810    2.6600    9.4630 hc        1 TQT      0.049700
     37 H'41        2.2780    2.1560   11.4320 hc        1 TQT      0.054200
     38 H'42        1.6080    3.3650   10.2670 hc        1 TQT      0.054200
     39 H'51        0.7990    0.3890   10.5570 hc        1 TQT      0.053700
     40 H'52       -0.1910    1.8530   10.9350 hc        1 TQT      0.053700
     41 H'6        -0.0100    2.6020    8.5520 hc        1 TQT      0.068700
     42 H'71       -1.2170   -0.1900    8.9960 hc        1 TQT      0.061700
     43 H'72       -2.0240    1.3500    8.4890 hc        1 TQT      0.061700
     44 H1'         2.2900   -0.3800   -0.4540 hn        1 TQT      0.400800
     45 H2'1        0.3720    1.1510   -2.0620 hn        1 TQT      0.482800
     46 H2'2        0.4980   -0.4850   -2.3760 hn        1 TQT      0.482800
     47 H3'         0.0240   -2.0640   -0.2890 hn        1 TQT      0.386800
     48 H4'1       -1.8710   -2.6210    1.8860 hn        1 TQT      0.478133
     49 H4'2       -0.8980   -2.4470    3.2430 hn        1 TQT      0.478133
     50 H5'1        2.6310   -1.4010    3.7250 hc        1 TQT      0.072700
     51 H5'2        1.1060   -2.3160    3.9660 hc        1 TQT      0.072700
     52 H8'1        0.2360    1.4260    2.1100 hc        1 TQT      0.061700
     53 H8'2        1.8600    2.2010    1.9290 hc        1 TQT      0.061700
     54 H'01       -1.0930   -0.6720    6.7040 h1        1 TQT      0.024700
     55 H2'3       -0.9930    0.1740   -2.0030 hn        1 TQT      0.482800
     56 H4'3       -0.4030   -3.4190    1.9780 hn        1 TQT      0.478133
     57 H'02       -1.4250    1.0550    6.2360 h1        1 TQT      0.024700
@<TRIPOS>BOND
     1    1   16 1   
     2    1   17 1   
     3    1   18 1   
     4    1   23 1   
     5    2    3 1   
     6    2   18 1   
     7    2   19 1   
     8    2   24 1   
     9    3    6 1   
    10    3   20 1   
    11    3   25 1   
    12    4    5 1   
    13    4    7 1   
    14    4   20 1   
    15    4   26 1   
    16    5   21 1   
    17    5   27 1   
    18    5   28 1   
    19    6   16 1   
    20    6   21 1   
    21    6   29 1   
    22    7   22 1   
    23    7   30 1   
    24    7   31 1   
    25    8   15 1   
    26    8   22 1   
    27    8   54 1   
    28    8   57 1   
    29    9   10 1   
    30    9   14 1   
    31    9   22 1   
    32    9   32 1   
    33   10   11 1   
    34   10   33 1   
    35   10   34 1   
    36   11   12 1   
    37   11   35 1   
    38   11   36 1   
    39   12   13 1   
    40   12   37 1   
    41   12   38 1   
    42   13   14 1   
    43   13   39 1   
    44   13   40 1   
    45   14   15 1   
    46   14   41 1   
    47   15   42 1   
    48   15   43 1   
    49   16   44 1   
    50   17   45 1   
    51   17   46 1   
    52   17   55 1   
    53   18   47 1   
    54   19   48 1   
    55   19   49 1   
    56   19   56 1   
    57   20   50 1   
    58   20   51 1   
    59   21   52 1   
    60   21   53 1   
@<TRIPOS>SUBSTRUCTURE
     1 TQT         1 TEMP              0 ****  ****    0 ROOT
