@<TRIPOS>MOLECULE
TQT
   55    58     1     0     0
SMALL
bcc


@<TRIPOS>ATOM
      1 C2'        -0.0930    0.8560    4.9740 c3        1 TQT      0.640900
      2 C4'         1.1530   -0.4490    3.2620 c3        1 TQT      0.408700
      3 C4B        -0.2010   -1.0230    2.7490 c3        1 TQT     -0.044700
      4 C6'        -0.0940   -0.2320    0.3360 c3        1 TQT     -0.062700
      5 C7'        -1.2470    0.7210    0.5980 c3        1 TQT     -0.067400
      6 C8B        -1.3290   -0.0060    3.0110 c3        1 TQT      0.175500
      7 C9'        -0.1220   -0.7520   -1.1090 c3        1 TQT      0.169800
      8 C'0         1.4850    0.8400   -2.0700 c3        1 TQT      0.153800
      9 C'1        -0.0760   -0.2070   -3.4840 c3        1 TQT      0.166500
     10 C'2        -1.4930   -0.2170   -4.0420 c3        1 TQT     -0.065400
     11 C'3        -1.4330   -0.7760   -5.4560 c3        1 TQT     -0.078400
     12 C'4        -0.4440   -0.0550   -6.3540 c3        1 TQT     -0.077400
     13 C'5         0.9380    0.0920   -5.7350 c3        1 TQT     -0.066400
     14 C'6         0.7880    0.7260   -4.3750 c3        1 TQT     -0.074700
     15 C'7         2.0220    0.9620   -3.5150 c3        1 TQT     -0.086400
     16 N1'        -1.3920    0.3720    4.4130 n3        1 TQT     -0.840200
     17 N2'        -0.1590    1.1490    6.4230 n3        1 TQT     -0.905800
     18 N3'         1.0250   -0.0750    4.6870 n3        1 TQT     -0.867200
     19 N4'         2.2480   -1.3800    2.9970 n3        1 TQT     -0.902800
     20 C5'        -0.1720   -1.4180    1.2840 c3        1 TQT     -0.069400
     21 C8'        -1.2470    1.1830    2.0380 c3        1 TQT     -0.114400
     22 N'0         0.1240    0.2740   -2.1060 n3        1 TQT     -0.714600
     23 H2'         0.1450    1.8750    4.4950 h3        1 TQT      0.003700
     24 H4'         1.3890    0.4760    2.6400 h2        1 TQT      0.034700
     25 H4B        -0.4310   -1.9540    3.3450 hc        1 TQT      0.069700
     26 H6'         0.8760    0.3110    0.5130 hc        1 TQT      0.057700
     27 H7'1       -2.2170    0.2090    0.3640 hc        1 TQT      0.050200
     28 H7'2       -1.1650    1.6110   -0.0790 hc        1 TQT      0.050200
     29 H8'        -2.3070   -0.5400    2.7980 h1        1 TQT      0.061700
     30 H9'1       -1.1450   -1.1790   -1.3160 h1        1 TQT      0.032200
     31 H9'2        0.6210   -1.6010   -1.1880 h1        1 TQT      0.032200
     32 H'02        1.4040    1.8550   -1.5970 h1        1 TQT      0.042200
     33 H'1         0.3270   -1.2640   -3.5820 h1        1 TQT      0.025700
     34 H'21       -1.9190    0.8180   -4.0480 hc        1 TQT      0.047200
     35 H'22       -2.1620   -0.8570   -3.4100 hc        1 TQT      0.047200
     36 H'31       -2.4540   -0.7130   -5.9150 hc        1 TQT      0.038700
     37 H'32       -1.1560   -1.8630   -5.4050 hc        1 TQT      0.038700
     38 H'41       -0.8440    0.9660   -6.5920 hc        1 TQT      0.039700
     39 H'42       -0.3560   -0.6140   -7.3220 hc        1 TQT      0.039700
     40 H'51        1.5810    0.7320   -6.3940 hc        1 TQT      0.042200
     41 H'52        1.4330   -0.9090   -5.6500 hc        1 TQT      0.042200
     42 H'6         0.2550    1.7100   -4.5030 hc        1 TQT      0.060700
     43 H'71        2.4680    1.9690   -3.6910 hc        1 TQT      0.046700
     44 H'72        2.8060    0.1910   -3.7110 hc        1 TQT      0.046700
     45 H1'        -2.0770    1.0960    4.5320 hn        1 TQT      0.358800
     46 H2'1       -0.9930    1.6660    6.6270 hn        1 TQT      0.358300
     47 H2'2       -0.1620    0.3080    6.9670 hn        1 TQT      0.358300
     48 H3'         1.8750    0.3380    5.0220 hn        1 TQT      0.372800
     49 H4'1        3.1100   -1.0410    3.3770 hn        1 TQT      0.352300
     50 H4'2        2.0550   -2.2830    3.3850 hn        1 TQT      0.352300
     51 H5'1        0.6920   -2.1070    1.0910 hc        1 TQT      0.049200
     52 H5'2       -1.1110   -1.9950    1.0640 hc        1 TQT      0.049200
     53 H8'1       -0.3200    1.7820    2.2390 hc        1 TQT      0.038700
     54 H8'2       -2.1260    1.8600    2.2060 hc        1 TQT      0.038700
     55 H'01        2.1900    0.2210   -1.4510 h1        1 TQT      0.042200
@<TRIPOS>BOND
     1    1   16 1   
     2    1   17 1   
     3    1   18 1   
     4    1   23 1   
     5    2    3 1   
     6    2   18 1   
     7    2   19 1   
     8    2   24 1   
     9    3    6 1   
    10    3   20 1   
    11    3   25 1   
    12    4    5 1   
    13    4    7 1   
    14    4   20 1   
    15    4   26 1   
    16    5   21 1   
    17    5   27 1   
    18    5   28 1   
    19    6   16 1   
    20    6   21 1   
    21    6   29 1   
    22    7   22 1   
    23    7   30 1   
    24    7   31 1   
    25    8   15 1   
    26    8   22 1   
    27    8   32 1   
    28    8   55 1   
    29    9   10 1   
    30    9   14 1   
    31    9   22 1   
    32    9   33 1   
    33   10   11 1   
    34   10   34 1   
    35   10   35 1   
    36   11   12 1   
    37   11   36 1   
    38   11   37 1   
    39   12   13 1   
    40   12   38 1   
    41   12   39 1   
    42   13   14 1   
    43   13   40 1   
    44   13   41 1   
    45   14   15 1   
    46   14   42 1   
    47   15   43 1   
    48   15   44 1   
    49   16   45 1   
    50   17   46 1   
    51   17   47 1   
    52   18   48 1   
    53   19   49 1   
    54   19   50 1   
    55   20   51 1   
    56   20   52 1   
    57   21   53 1   
    58   21   54 1   
@<TRIPOS>SUBSTRUCTURE
     1 TQT         1 TEMP              0 ****  ****    0 ROOT
