@<TRIPOS>MOLECULE
TQT
   57    60     1     0     0
SMALL
bcc


@<TRIPOS>ATOM
      1 C2'         0.2540    0.1550   -0.3020 c3        1 TQT      0.660900
      2 C4'        -0.2910   -1.3480    1.6660 c3        1 TQT      0.411700
      3 C4B         1.2030   -1.2410    2.0880 c3        1 TQT     -0.118700
      4 C6'         0.8560   -0.1170    4.3500 c3        1 TQT     -0.071700
      5 C7'         1.4840    1.1490    3.7980 c3        1 TQT     -0.084400
      6 C8B         1.8010    0.0830    1.5610 c3        1 TQT      0.165500
      7 C9'         1.1930   -0.2830    5.8480 c3        1 TQT      0.181800
      8 C'0        -0.8350    0.5460    6.9630 c3        1 TQT      0.157800
      9 C'1         1.2650    0.9510    7.9580 c3        1 TQT      0.162500
     10 C'2         2.5130    1.8220    7.9960 c3        1 TQT     -0.065400
     11 C'3         3.0200    1.8380    9.4320 c3        1 TQT     -0.080400
     12 C'4         1.9680    2.2540   10.4440 c3        1 TQT     -0.081400
     13 C'5         0.6580    1.4910   10.3060 c3        1 TQT     -0.069400
     14 C'6         0.1920    1.5970    8.8750 c3        1 TQT     -0.067700
     15 C'7        -1.0870    0.8880    8.4490 c3        1 TQT     -0.086400
     16 N1'         1.6560    0.1780    0.1110 n3        1 TQT     -0.803200
     17 N2'         0.1370   -0.0570   -1.8470 n4        1 TQT     -0.880600
     18 N3'        -0.6500   -0.7750    0.3860 n3        1 TQT     -0.944200
     19 N4'        -0.7050   -2.8350    1.7190 n4        1 TQT     -0.871600
     20 C5'         1.3650   -1.3380    3.5970 c3        1 TQT     -0.093400
     21 C8'         1.2300    1.2930    2.3130 c3        1 TQT     -0.081400
     22 N'0         0.5920    0.7510    6.6600 n3        1 TQT     -0.731600
     23 H2'        -0.1360    1.2290   -0.1670 hx        1 TQT      0.145700
     24 H4'        -0.9280   -0.8670    2.4870 hx        1 TQT      0.133700
     25 H4B         1.7810   -2.0910    1.6210 hc        1 TQT      0.070700
     26 H6'        -0.2630   -0.0490    4.2420 hc        1 TQT      0.036700
     27 H7'1        2.5880    1.1470    4.0000 hc        1 TQT      0.093700
     28 H7'2        1.0550    2.0420    4.3310 hc        1 TQT      0.093700
     29 H8'         2.9190    0.0600    1.7610 h1        1 TQT      0.134700
     30 H9'1        2.3130   -0.2230    5.9650 h1        1 TQT      0.041700
     31 H9'2        0.8730   -1.3230    6.1570 h1        1 TQT      0.041700
     32 H'1         1.5460   -0.0590    8.3930 h1        1 TQT      0.034700
     33 H'21        3.3070    1.4120    7.3200 hc        1 TQT      0.043200
     34 H'22        2.2770    2.8620    7.6550 hc        1 TQT      0.043200
     35 H'31        3.8890    2.5430    9.5000 hc        1 TQT      0.048700
     36 H'32        3.3980    0.8140    9.6960 hc        1 TQT      0.048700
     37 H'41        1.7620    3.3510   10.3280 hc        1 TQT      0.054200
     38 H'42        2.3760    2.0980   11.4770 hc        1 TQT      0.054200
     39 H'51       -0.1090    1.9290   10.9960 hc        1 TQT      0.052700
     40 H'52        0.8010    0.4180   10.5970 hc        1 TQT      0.052700
     41 H'6         0.0940    2.6890    8.6170 hc        1 TQT      0.068700
     42 H'71       -1.2530   -0.0410    9.0460 hc        1 TQT      0.060700
     43 H'72       -1.9830    1.5430    8.5600 hc        1 TQT      0.060700
     44 H1'         2.2190   -0.5230   -0.3410 hn        1 TQT      0.397800
     45 H2'1       -0.8350    0.0780   -2.1420 hn        1 TQT      0.473133
     46 H2'2        0.7270    0.6480   -2.3110 hn        1 TQT      0.473133
     47 H3'        -1.5950   -0.4390    0.3810 hn        1 TQT      0.438800
     48 H4'1       -1.7110   -2.9420    1.5610 hn        1 TQT      0.467133
     49 H4'2       -0.4730   -3.1890    2.6550 hn        1 TQT      0.467133
     50 H5'1        0.8580   -2.2600    3.9860 hc        1 TQT      0.070200
     51 H5'2        2.4640   -1.4590    3.8130 hc        1 TQT      0.070200
     52 H8'1        1.7260    2.2290    1.9390 hc        1 TQT      0.060700
     53 H8'2        0.1290    1.3890    2.1250 hc        1 TQT      0.060700
     54 H'01       -1.4160    1.2420    6.3000 h1        1 TQT      0.028200
     55 H2'3        0.4440   -0.9890   -2.1320 hn        1 TQT      0.473133
     56 H4'3       -0.2010   -3.3890    1.0220 hn        1 TQT      0.467133
     57 H'02       -1.1720   -0.5040    6.7470 h1        1 TQT      0.028200
@<TRIPOS>BOND
     1    1   16 1   
     2    1   17 1   
     3    1   18 1   
     4    1   23 1   
     5    2    3 1   
     6    2   18 1   
     7    2   19 1   
     8    2   24 1   
     9    3    6 1   
    10    3   20 1   
    11    3   25 1   
    12    4    5 1   
    13    4    7 1   
    14    4   20 1   
    15    4   26 1   
    16    5   21 1   
    17    5   27 1   
    18    5   28 1   
    19    6   16 1   
    20    6   21 1   
    21    6   29 1   
    22    7   22 1   
    23    7   30 1   
    24    7   31 1   
    25    8   15 1   
    26    8   22 1   
    27    8   54 1   
    28    8   57 1   
    29    9   10 1   
    30    9   14 1   
    31    9   22 1   
    32    9   32 1   
    33   10   11 1   
    34   10   33 1   
    35   10   34 1   
    36   11   12 1   
    37   11   35 1   
    38   11   36 1   
    39   12   13 1   
    40   12   37 1   
    41   12   38 1   
    42   13   14 1   
    43   13   39 1   
    44   13   40 1   
    45   14   15 1   
    46   14   41 1   
    47   15   42 1   
    48   15   43 1   
    49   16   44 1   
    50   17   45 1   
    51   17   46 1   
    52   17   55 1   
    53   18   47 1   
    54   19   48 1   
    55   19   49 1   
    56   19   56 1   
    57   20   50 1   
    58   20   51 1   
    59   21   52 1   
    60   21   53 1   
@<TRIPOS>SUBSTRUCTURE
     1 TQT         1 TEMP              0 ****  ****    0 ROOT
