@<TRIPOS>MOLECULE
TQU
   25    27     1     0     0
SMALL
bcc


@<TRIPOS>ATOM
      1 CAO         0.0710   -0.0050    0.0030 ca        1 TQU     -0.082300
      2 CAH         1.4800    0.0210    0.0650 ca        1 TQU     -0.192000
      3 CAL         2.1510    0.0250    1.2900 ca        1 TQU      0.158600
      4 NAA         3.5410   -0.0490    1.3560 nh        1 TQU     -0.826200
      5 CAD         1.3820    0.0300    2.5000 ca        1 TQU     -0.163000
      6 CAF         0.0160    0.0220    2.4610 ca        1 TQU     -0.132300
      7 CAN        -0.6920    0.0110    1.2160 ca        1 TQU      0.357600
      8 NAJ        -2.0710    0.0210    1.2370 nb        1 TQU     -0.636000
      9 CAB        -2.7060    0.0130    0.0810 ca        1 TQU      0.397200
     10 CAC        -2.0600   -0.0170   -1.1900 ca        1 TQU     -0.246300
     11 CAM        -0.6740   -0.0270   -1.2330 ca        1 TQU      0.049800
     12 NAP        -0.0240   -0.0390   -2.4990 na        1 TQU     -0.001500
     13 CAG        -0.3510    0.8240   -3.5770 cc        1 TQU      0.414400
     14 NAI         0.3680    0.4720   -4.6590 nd        1 TQU     -0.680000
     15 CAE         1.1210   -0.6320   -4.2110 cd        1 TQU      0.500900
     16 NAK         0.8830   -0.9500   -2.9090 nc        1 TQU     -0.498800
     17 H1          2.0690    0.0270   -0.8640 ha        1 TQU      0.152000
     18 H2          3.9480    0.3090    2.1890 hn        1 TQU      0.400800
     19 H3          4.0220    0.2020    0.5230 hn        1 TQU      0.400800
     20 H4          1.9020    0.0310    3.4710 ha        1 TQU      0.139000
     21 H5         -0.5650    0.0260    3.3980 ha        1 TQU      0.154000
     22 H6         -3.8120    0.0230    0.1240 h4        1 TQU      0.029100
     23 H7         -2.6760   -0.0400   -2.1000 ha        1 TQU      0.153000
     24 H8         -1.0670    1.6470   -3.4890 h5        1 TQU      0.076100
     25 H9          1.8220   -1.1720   -4.8560 h5        1 TQU      0.074100
@<TRIPOS>BOND
     1    1    2 ar  
     2    1    7 ar  
     3    1   11 ar  
     4    2    3 ar  
     5    2   17 1   
     6    3    4 1   
     7    3    5 ar  
     8    4   18 1   
     9    4   19 1   
    10    5    6 ar  
    11    5   20 1   
    12    6    7 ar  
    13    6   21 1   
    14    7    8 ar  
    15    8    9 ar  
    16    9   10 ar  
    17    9   22 1   
    18   10   11 ar  
    19   10   23 1   
    20   11   12 1   
    21   12   13 1   
    22   12   16 1   
    23   13   14 2   
    24   13   24 1   
    25   14   15 1   
    26   15   16 2   
    27   15   25 1   
@<TRIPOS>SUBSTRUCTURE
     1 TQU         1 TEMP              0 ****  ****    0 ROOT
