@<TRIPOS>MOLECULE
TQU
   25    27     1     0     0
SMALL
bcc


@<TRIPOS>ATOM
      1 CAO         0.0710   -0.0130    0.0030 ca        1 TQU     -0.082300
      2 CAH         1.4810    0.0150    0.0640 ca        1 TQU     -0.192000
      3 CAL         2.1530    0.0060    1.2880 ca        1 TQU      0.158600
      4 NAA         3.5430   -0.0660    1.3520 nv        1 TQU     -0.826200
      5 CAD         1.3850   -0.0040    2.4990 ca        1 TQU     -0.163000
      6 CAF         0.0190   -0.0140    2.4620 ca        1 TQU     -0.132300
      7 CAN        -0.6900   -0.0120    1.2170 ca        1 TQU      0.357600
      8 NAJ        -2.0700   -0.0040    1.2400 nb        1 TQU     -0.636000
      9 CAB        -2.7060    0.0000    0.0840 ca        1 TQU      0.397200
     10 CAC        -2.0610   -0.0150   -1.1880 ca        1 TQU     -0.246300
     11 CAM        -0.6750   -0.0210   -1.2320 ca        1 TQU      0.049800
     12 NAP        -0.0260   -0.0180   -2.4990 na        1 TQU     -0.001500
     13 CAG        -0.3540    0.8580   -3.5660 cc        1 TQU      0.414400
     14 NAI         0.3640    0.5200   -4.6520 nd        1 TQU     -0.680000
     15 CAE         1.1180   -0.5890   -4.2190 cd        1 TQU      0.500900
     16 NAK         0.8810   -0.9230   -2.9210 nc        1 TQU     -0.498800
     17 H1          2.0680    0.0330   -0.8660 ha        1 TQU      0.152000
     18 H2          4.0230    0.1950    0.5210 hn        1 TQU      0.400800
     19 H3          3.9500    0.2830    2.1890 hn        1 TQU      0.400800
     20 H4          1.9060   -0.0130    3.4690 ha        1 TQU      0.139000
     21 H5         -0.5620   -0.0220    3.4000 ha        1 TQU      0.154000
     22 H6         -3.8110    0.0080    0.1290 h4        1 TQU      0.029100
     23 H7         -2.6780   -0.0270   -2.0980 ha        1 TQU      0.153000
     24 H8         -1.0710    1.6800   -3.4670 h5        1 TQU      0.076100
     25 H9          1.8190   -1.1200   -4.8710 h5        1 TQU      0.074100
@<TRIPOS>BOND
     1    1    2 ar  
     2    1    7 ar  
     3    1   11 ar  
     4    2    3 ar  
     5    2   17 1   
     6    3    4 1   
     7    3    5 ar  
     8    4   18 1   
     9    4   19 1   
    10    5    6 ar  
    11    5   20 1   
    12    6    7 ar  
    13    6   21 1   
    14    7    8 ar  
    15    8    9 ar  
    16    9   10 ar  
    17    9   22 1   
    18   10   11 ar  
    19   10   23 1   
    20   11   12 1   
    21   12   13 1   
    22   12   16 1   
    23   13   14 2   
    24   13   24 1   
    25   14   15 1   
    26   15   16 2   
    27   15   25 1   
@<TRIPOS>SUBSTRUCTURE
     1 TQU         1 TEMP              0 ****  ****    0 ROOT
