@<TRIPOS>MOLECULE
TQU
   25    19     1     0     0
SMALL
bcc


@<TRIPOS>ATOM
      1 CAO        -0.1310   -0.6570    0.0830 c1        1 TQU     -0.017000
      2 CAH         1.2710   -0.7920    0.0750 c2        1 TQU     -0.192000
      3 CAL         1.9650   -0.9010    1.2730 c1        1 TQU      0.077000
      4 NAA         3.3580   -1.1620    1.3380 n3        1 TQU     -0.335000
      5 CAD         1.2760   -0.8780    2.4820 c1        1 TQU     -0.115000
      6 CAF        -0.1070   -0.7460    2.4910 c1        1 TQU     -0.115000
      7 CAN        -0.8120   -0.6350    1.2770 c1        1 TQU     -0.036000
      8 NAJ        -2.1910   -0.5140    1.2850 n1        1 TQU     -0.110000
      9 CAB        -2.8760   -0.4180    0.1080 c1        1 TQU     -0.068000
     10 CAC        -2.1890   -0.4410   -1.1030 c1        1 TQU     -0.181000
     11 CAM        -0.8270   -0.5590   -1.1130 c1        1 TQU      0.095000
     12 NAP        -0.6120    0.7560   -1.5980 n2        1 TQU     -0.097000
     13 CAG        -0.2850    1.0890   -2.8560 c1        1 TQU     -0.118000
     14 NAI        -0.1680    2.4260   -2.9140 n2        1 TQU     -0.154000
     15 CAE        -0.4220    2.9180   -1.6910 c1        1 TQU     -0.118000
     16 NAK        -0.6960    1.8880   -0.8780 n2        1 TQU     -0.097000
     17 H1          1.7540   -0.8190   -0.7730 ha        1 TQU      0.152000
     18 H2          3.7820   -1.1790    2.1470 hn        1 TQU      0.196000
     19 H3          3.8300   -1.3160    0.5710 hn        1 TQU      0.196000
     20 H4          1.7640   -0.9550    3.3230 ha        1 TQU      0.146500
     21 H5         -0.5900   -0.7300    3.3390 ha        1 TQU      0.146500
     22 H6         -3.8490   -0.3330    0.1150 ha        1 TQU      0.166000
     23 H7         -2.6800   -0.3720   -1.9440 ha        1 TQU      0.153000
     24 H8         -0.1560    0.4690   -3.5980 DU        1 TQU      0.212000
     25 H9         -0.4090    3.8610   -1.4380 DU        1 TQU      0.212000
@<TRIPOS>BOND
     1    1    2 1   
     2    1    7 1   
     3    2    3 1   
     4    2   17 1   
     5    3    4 1   
     6    4   18 1   
     7    4   19 1   
     8    5    6 1   
     9    5   20 1   
    10    6   21 1   
    11    8    9 1   
    12    9   22 1   
    13   10   11 1   
    14   10   23 1   
    15   12   13 1   
    16   12   16 1   
    17   13   14 1   
    18   14   15 1   
    19   15   16 1   
@<TRIPOS>SUBSTRUCTURE
     1 TQU         1 TEMP              0 ****  ****    0 ROOT
