@<TRIPOS>MOLECULE
TQU
   26    28     1     0     0
SMALL
bcc


@<TRIPOS>ATOM
      1 CAO         0.0730    0.0530    0.0000 ca        1 TQU     -0.152300
      2 CAH         1.4860    0.0700    0.0710 ca        1 TQU     -0.021000
      3 CAL         2.1190    0.0130    1.3020 ca        1 TQU     -0.093400
      4 NAA         3.5810    0.0040    1.3780 n4        1 TQU     -0.697000
      5 CAD         1.3810   -0.0390    2.5190 ca        1 TQU     -0.126000
      6 CAF         0.0140   -0.0220    2.4710 ca        1 TQU     -0.120300
      7 CAN        -0.6850    0.0330    1.2170 ca        1 TQU      0.442600
      8 NAJ        -2.0610    0.0660    1.2420 nb        1 TQU     -0.649000
      9 CAB        -2.6990    0.1030    0.0850 ca        1 TQU      0.473200
     10 CAC        -2.0560    0.0920   -1.1870 ca        1 TQU     -0.261300
     11 CAM        -0.6660    0.0640   -1.2430 ca        1 TQU      0.102800
     12 NAP        -0.0220    0.0590   -2.5010 na        1 TQU     -0.034500
     13 CAG        -0.5750    0.6010   -3.7030 cc        1 TQU      0.449400
     14 NAI         0.1930    0.2470   -4.7400 nd        1 TQU     -0.648000
     15 CAE         1.2120   -0.5440   -4.1550 cd        1 TQU      0.549900
     16 NAK         1.0840   -0.6680   -2.8120 nc        1 TQU     -0.545800
     17 H1          2.0850    0.1380   -0.8550 ha        1 TQU      0.176000
     18 H2          3.9020    0.8260    1.9020 hn        1 TQU      0.463467
     19 H3          3.9880    0.0220    0.4360 hn        1 TQU      0.463467
     20 H4          1.8990   -0.0890    3.4910 ha        1 TQU      0.159000
     21 H5         -0.5770   -0.0520    3.4060 ha        1 TQU      0.191000
     22 H6         -3.8080    0.1320    0.1370 h4        1 TQU      0.059100
     23 H7         -2.6820    0.0870   -2.0930 ha        1 TQU      0.176000
     24 H8         -1.4700    1.2350   -3.7220 h5        1 TQU      0.090100
     25 H9          2.0110   -1.0040   -4.7510 h5        1 TQU      0.091100
     26 HAA3        3.8890   -0.8460    1.8630 hn        1 TQU      0.463467
@<TRIPOS>BOND
     1    1    2 ar  
     2    1    7 ar  
     3    1   11 ar  
     4    2    3 ar  
     5    2   17 1   
     6    3    4 1   
     7    3    5 ar  
     8    4   18 1   
     9    4   19 1   
    10    4   26 1   
    11    5    6 ar  
    12    5   20 1   
    13    6    7 ar  
    14    6   21 1   
    15    7    8 ar  
    16    8    9 ar  
    17    9   10 ar  
    18    9   22 1   
    19   10   11 ar  
    20   10   23 1   
    21   11   12 1   
    22   12   13 1   
    23   12   16 1   
    24   13   14 2   
    25   13   24 1   
    26   14   15 1   
    27   15   16 2   
    28   15   25 1   
@<TRIPOS>SUBSTRUCTURE
     1 TQU         1 TEMP              0 ****  ****    0 ROOT
