@<TRIPOS>MOLECULE
TQU
   25    27     1     0     0
SMALL
bcc


@<TRIPOS>ATOM
      1 CAO        -0.6260   -0.1750   -0.0090 ca        1 TQU     -0.083300
      2 CAH        -0.8090    1.2200   -0.1160 ca        1 TQU     -0.188000
      3 CAL        -2.0870    1.7810   -0.1650 ca        1 TQU      0.154600
      4 NAA        -2.2710    3.1490   -0.3600 nh        1 TQU     -0.822200
      5 CAD        -3.2260    0.9120   -0.0950 ca        1 TQU     -0.162000
      6 CAF        -3.0700   -0.4420   -0.0060 ca        1 TQU     -0.133300
      7 CAN        -1.7680   -1.0390    0.0330 ca        1 TQU      0.358600
      8 NAJ        -1.6690   -2.4130    0.1060 nb        1 TQU     -0.637000
      9 CAB        -0.4630   -2.9440    0.1390 ca        1 TQU      0.398200
     10 CAC         0.7480   -2.1900    0.1230 ca        1 TQU     -0.246300
     11 CAM         0.6700   -0.8070    0.0520 ca        1 TQU      0.049800
     12 NAP         1.8750   -0.0490    0.0250 na        1 TQU     -0.001500
     13 CAG         2.9780   -0.3230   -0.8240 cc        1 TQU      0.416400
     14 NAI         3.9910    0.5080   -0.5140 nd        1 TQU     -0.680000
     15 CAE         3.4750    1.2760    0.5500 cd        1 TQU      0.501900
     16 NAK         2.2000    0.9390    0.8840 nc        1 TQU     -0.503800
     17 H1          0.0660    1.8840   -0.1730 ha        1 TQU      0.152000
     18 H2         -1.4900    3.7180   -0.1220 hn        1 TQU      0.399300
     19 H3         -3.1430    3.5060   -0.0420 hn        1 TQU      0.399300
     20 H4         -4.2380    1.3460   -0.1250 ha        1 TQU      0.139000
     21 H5         -3.9540   -1.1010    0.0390 ha        1 TQU      0.154000
     22 H6         -0.4100   -4.0480    0.1930 h4        1 TQU      0.029100
     23 H7          1.7080   -2.7230    0.1740 ha        1 TQU      0.153000
     24 H8          2.9550   -1.0850   -1.6090 h5        1 TQU      0.076100
     25 H9          4.0540    2.0600    1.0490 h5        1 TQU      0.074100
@<TRIPOS>BOND
     1    1    2 ar  
     2    1    7 ar  
     3    1   11 ar  
     4    2    3 ar  
     5    2   17 1   
     6    3    4 1   
     7    3    5 ar  
     8    4   18 1   
     9    4   19 1   
    10    5    6 ar  
    11    5   20 1   
    12    6    7 ar  
    13    6   21 1   
    14    7    8 ar  
    15    8    9 ar  
    16    9   10 ar  
    17    9   22 1   
    18   10   11 ar  
    19   10   23 1   
    20   11   12 1   
    21   12   13 1   
    22   12   16 1   
    23   13   14 2   
    24   13   24 1   
    25   14   15 1   
    26   15   16 2   
    27   15   25 1   
@<TRIPOS>SUBSTRUCTURE
     1 TQU         1 TEMP              0 ****  ****    0 ROOT
