@<TRIPOS>MOLECULE
TQV
   34    35     1     0     0
SMALL
bcc


@<TRIPOS>ATOM
      1 P          -0.3850    1.0040   -1.3110 p5        1 TQV      1.437800
      2 C1         -1.2970    0.0290    0.9990 ca        1 TQV      0.223100
      3 C2         -1.7060   -1.3200    0.9410 ca        1 TQV     -0.181000
      4 O1P         1.2110    1.3870   -1.4270 os        1 TQV     -0.561200
      5 C3         -2.7240   -1.7800    1.7680 ca        1 TQV     -0.125000
      6 O2P        -0.2390    0.4440    0.2740 os        1 TQV     -0.497500
      7 C4         -3.3420   -0.9190    2.6730 ca        1 TQV     -0.185000
      8 C5         -2.9350    0.4120    2.7470 ca        1 TQV     -0.124000
      9 C6         -1.9170    0.9040    1.9290 ca        1 TQV     -0.118300
     10 C7         -1.5000    2.3210    2.0190 c3        1 TQV     -0.051800
     11 C8          2.0840    0.4160   -1.9170 c3        1 TQV      0.226700
     12 C9          3.1880    0.0980   -0.9530 ca        1 TQV     -0.091300
     13 O3P        -0.6440   -0.1750   -2.1540 o         1 TQV     -0.811500
     14 O4P        -1.1570    2.2520   -1.2590 o         1 TQV     -0.811500
     15 C10         3.1110    0.3940    0.4090 ca        1 TQV     -0.071000
     16 C11         4.1580    0.0700    1.2740 ca        1 TQV     -0.171000
     17 C12         5.3030   -0.5570    0.7900 ca        1 TQV     -0.118000
     18 C13         5.4090   -0.8650   -0.5650 ca        1 TQV     -0.228000
     19 C14         4.3560   -0.5370   -1.4270 ca        1 TQV      0.105100
     20 O15         4.4160   -0.8140   -2.7790 oh        1 TQV     -0.498100
     21 H2         -1.2200   -1.9960    0.2220 ha        1 TQV      0.149000
     22 H3         -3.0420   -2.8310    1.7070 ha        1 TQV      0.109000
     23 H4         -4.1460   -1.2850    3.3250 ha        1 TQV      0.106000
     24 H5         -3.4230    1.0900    3.4630 ha        1 TQV      0.109000
     25 H7         -0.3840    2.3910    2.0490 hc        1 TQV      0.047367
     26 H7A        -1.9170    2.8090    2.9330 hc        1 TQV      0.047367
     27 H7B        -1.8520    2.8830    1.1140 hc        1 TQV      0.047367
     28 H8          2.5580    0.8170   -2.8620 h1        1 TQV      0.056700
     29 H8A         1.5230   -0.5320   -2.1650 h1        1 TQV      0.056700
     30 H10         2.2010    0.8840    0.7980 ha        1 TQV      0.177000
     31 H11         4.0720    0.3100    2.3430 ha        1 TQV      0.122000
     32 H12         6.1250   -0.8130    1.4720 ha        1 TQV      0.113000
     33 H13         6.3080   -1.3610   -0.9550 ha        1 TQV      0.114000
     34 HO15        5.2600   -1.2540   -2.9490 ho        1 TQV      0.402000
@<TRIPOS>BOND
     1    1    4 1   
     2    1    6 1   
     3    1   13 1   
     4    1   14 1   
     5    2    3 ar  
     6    2    6 1   
     7    2    9 ar  
     8    3    5 ar  
     9    3   21 1   
    10    4   11 1   
    11    5    7 ar  
    12    5   22 1   
    13    7    8 ar  
    14    7   23 1   
    15    8    9 ar  
    16    8   24 1   
    17    9   10 1   
    18   10   25 1   
    19   10   26 1   
    20   10   27 1   
    21   11   12 1   
    22   11   28 1   
    23   11   29 1   
    24   12   15 ar  
    25   12   19 ar  
    26   15   16 ar  
    27   15   30 1   
    28   16   17 ar  
    29   16   31 1   
    30   17   18 ar  
    31   17   32 1   
    32   18   19 ar  
    33   18   33 1   
    34   19   20 1   
    35   20   34 1   
@<TRIPOS>SUBSTRUCTURE
     1 TQV         1 TEMP              0 ****  ****    0 ROOT
