@<TRIPOS>MOLECULE
TQV
   34    35     1     0     0
SMALL
bcc


@<TRIPOS>ATOM
      1 P           0.6020   -0.8810    1.8580 p5        1 TQV      1.439800
      2 C1          2.2130   -0.0090   -0.0750 ca        1 TQV      0.222100
      3 C2          2.5700   -0.9900   -1.0260 ca        1 TQV     -0.180000
      4 O1P        -0.9570   -0.3460    1.9450 os        1 TQV     -0.554200
      5 C3          3.8000   -0.9270   -1.6700 ca        1 TQV     -0.125000
      6 O2P         0.9780   -0.0150    0.4670 os        1 TQV     -0.496500
      7 C4          4.6880    0.1120   -1.3960 ca        1 TQV     -0.183000
      8 C5          4.3380    1.0930   -0.4710 ca        1 TQV     -0.124000
      9 C6          3.1100    1.0570    0.1930 ca        1 TQV     -0.115300
     10 C7          2.7560    2.1080    1.1730 c3        1 TQV     -0.052800
     11 C8         -1.9010   -1.0260    1.1820 c3        1 TQV      0.226700
     12 C9         -2.7240   -0.1010    0.3350 ca        1 TQV     -0.150300
     13 O3P         0.5460   -2.2980    1.4600 o         1 TQV     -0.812000
     14 O4P         1.3530   -0.2800    2.9670 o         1 TQV     -0.812000
     15 C10        -2.5540    1.2840    0.3920 ca        1 TQV     -0.062000
     16 C11        -3.3430    2.1320   -0.3840 ca        1 TQV     -0.176000
     17 C12        -4.3160    1.6050   -1.2320 ca        1 TQV     -0.120000
     18 C13        -4.5040    0.2280   -1.3130 ca        1 TQV     -0.174000
     19 C14        -3.7060   -0.6210   -0.5300 ca        1 TQV      0.114100
     20 O15        -3.9700   -1.9690   -0.6570 oh        1 TQV     -0.520100
     21 H2          1.8680   -1.8100   -1.2360 ha        1 TQV      0.148000
     22 H3          4.0710   -1.7030   -2.4000 ha        1 TQV      0.109000
     23 H4          5.6580    0.1590   -1.9070 ha        1 TQV      0.107000
     24 H5          5.0380    1.9140   -0.2590 ha        1 TQV      0.110000
     25 H7          2.7970    1.6930    2.2140 hc        1 TQV      0.047700
     26 H7A         3.4540    2.9780    1.1040 hc        1 TQV      0.047700
     27 H7B         1.7130    2.4670    0.9900 hc        1 TQV      0.047700
     28 H8         -1.3900   -1.7940    0.5280 h1        1 TQV      0.040200
     29 H8A        -2.6090   -1.5600    1.8860 h1        1 TQV      0.040200
     30 H10        -1.7780    1.6920    1.0620 ha        1 TQV      0.166000
     31 H11        -3.1930    3.2190   -0.3280 ha        1 TQV      0.120000
     32 H12        -4.9380    2.2740   -1.8430 ha        1 TQV      0.114000
     33 H13        -5.2630   -0.2060   -1.9780 ha        1 TQV      0.131000
     34 HO15       -3.2680   -2.4590   -0.2050 ho        1 TQV      0.428000
@<TRIPOS>BOND
     1    1    4 1   
     2    1    6 1   
     3    1   13 1   
     4    1   14 1   
     5    2    3 ar  
     6    2    6 1   
     7    2    9 ar  
     8    3    5 ar  
     9    3   21 1   
    10    4   11 1   
    11    5    7 ar  
    12    5   22 1   
    13    7    8 ar  
    14    7   23 1   
    15    8    9 ar  
    16    8   24 1   
    17    9   10 1   
    18   10   25 1   
    19   10   26 1   
    20   10   27 1   
    21   11   12 1   
    22   11   28 1   
    23   11   29 1   
    24   12   15 ar  
    25   12   19 ar  
    26   15   16 ar  
    27   15   30 1   
    28   16   17 ar  
    29   16   31 1   
    30   17   18 ar  
    31   17   32 1   
    32   18   19 ar  
    33   18   33 1   
    34   19   20 1   
    35   20   34 1   
@<TRIPOS>SUBSTRUCTURE
     1 TQV         1 TEMP              0 ****  ****    0 ROOT
