@<TRIPOS>MOLECULE
TQV
   34    35     1     0     0
SMALL
bcc


@<TRIPOS>ATOM
      1 P          -0.4080    0.9140   -1.3390 p5        1 TQV      1.437800
      2 C1         -1.2920    0.0170    1.0130 ca        1 TQV      0.223100
      3 C2         -1.6760   -1.3410    1.0120 ca        1 TQV     -0.181000
      4 O1P         1.1800    1.3210   -1.4790 os        1 TQV     -0.561200
      5 C3         -2.6820   -1.7860    1.8620 ca        1 TQV     -0.125000
      6 O2P        -0.2450    0.4220    0.2660 os        1 TQV     -0.497500
      7 C4         -3.3120   -0.9000    2.7350 ca        1 TQV     -0.185000
      8 C5         -2.9300    0.4390    2.7520 ca        1 TQV     -0.124000
      9 C6         -1.9250    0.9170    1.9090 ca        1 TQV     -0.118300
     10 C7         -1.5340    2.3440    1.9400 c3        1 TQV     -0.051800
     11 C8          2.0680    0.3470   -1.9340 c3        1 TQV      0.226700
     12 C9          3.1820    0.0880   -0.9640 ca        1 TQV     -0.091300
     13 O3P        -0.6490   -0.3020   -2.1320 o         1 TQV     -0.811500
     14 O4P        -1.2030    2.1490   -1.3330 o         1 TQV     -0.811500
     15 C10         3.1060    0.4370    0.3850 ca        1 TQV     -0.071000
     16 C11         4.1630    0.1680    1.2580 ca        1 TQV     -0.171000
     17 C12         5.3160   -0.4590    0.7940 ca        1 TQV     -0.118000
     18 C13         5.4220   -0.8200   -0.5480 ca        1 TQV     -0.228000
     19 C14         4.3590   -0.5450   -1.4180 ca        1 TQV      0.105100
     20 O15         4.4170   -0.8760   -2.7570 oh        1 TQV     -0.498100
     21 H2         -1.1800   -2.0360    0.3190 ha        1 TQV      0.149000
     22 H3         -2.9790   -2.8440    1.8450 ha        1 TQV      0.109000
     23 H4         -4.1060   -1.2550    3.4040 ha        1 TQV      0.106000
     24 H5         -3.4280    1.1370    3.4420 ha        1 TQV      0.109000
     25 H7         -0.4190    2.4360    1.9620 hc        1 TQV      0.047367
     26 H7A        -1.9560    2.8610    2.8360 hc        1 TQV      0.047367
     27 H7B        -1.9010    2.8620    1.0150 hc        1 TQV      0.047367
     28 H8          2.5310    0.7190   -2.8970 h1        1 TQV      0.056700
     29 H8A         1.5230   -0.6200   -2.1410 h1        1 TQV      0.056700
     30 H10         2.1900    0.9270    0.7590 ha        1 TQV      0.177000
     31 H11         4.0770    0.4500    2.3170 ha        1 TQV      0.122000
     32 H12         6.1460   -0.6720    1.4820 ha        1 TQV      0.113000
     33 H13         6.3270   -1.3150   -0.9220 ha        1 TQV      0.114000
     34 HO15        5.2680   -1.3080   -2.9130 ho        1 TQV      0.402000
@<TRIPOS>BOND
     1    1    4 1   
     2    1    6 1   
     3    1   13 1   
     4    1   14 1   
     5    2    3 ar  
     6    2    6 1   
     7    2    9 ar  
     8    3    5 ar  
     9    3   21 1   
    10    4   11 1   
    11    5    7 ar  
    12    5   22 1   
    13    7    8 ar  
    14    7   23 1   
    15    8    9 ar  
    16    8   24 1   
    17    9   10 1   
    18   10   25 1   
    19   10   26 1   
    20   10   27 1   
    21   11   12 1   
    22   11   28 1   
    23   11   29 1   
    24   12   15 ar  
    25   12   19 ar  
    26   15   16 ar  
    27   15   30 1   
    28   16   17 ar  
    29   16   31 1   
    30   17   18 ar  
    31   17   32 1   
    32   18   19 ar  
    33   18   33 1   
    34   19   20 1   
    35   20   34 1   
@<TRIPOS>SUBSTRUCTURE
     1 TQV         1 TEMP              0 ****  ****    0 ROOT
