@<TRIPOS>MOLECULE
TQX
   59    62     1     0     0
SMALL
bcc


@<TRIPOS>ATOM
      1 C01         0.0360    0.1330    0.1670 ca        1 TQX     -0.172300
      2 C02         1.4660    0.1430    0.0830 ca        1 TQX      0.396600
      3 C03         2.2210    0.1160    1.2920 ca        1 TQX     -0.138300
      4 C04         1.5360    0.0700    2.5330 ca        1 TQX     -0.103000
      5 C05         0.1630    0.0580    2.5810 ca        1 TQX     -0.156000
      6 C06        -0.5910    0.0920    1.3870 ca        1 TQX     -0.144000
      7 N07         2.0690    0.1820   -1.1560 nb        1 TQX     -0.703000
      8 C08         3.3960    0.1460   -1.2250 ca        1 TQX      0.481600
      9 C09         4.2520    0.0830   -0.0530 ca        1 TQX     -0.112600
     10 C10         3.6540    0.1190    1.1950 cp        1 TQX     -0.019000
     11 C11         4.0380    0.1910   -2.5760 c3        1 TQX     -0.176400
     12 C12         4.4280    0.1480    2.4470 cp        1 TQX     -0.038000
     13 C13         5.7390   -0.0730   -0.1880 c3        1 TQX      0.041400
     14 O14         6.1990    0.8940   -1.1390 os        1 TQX     -0.413600
     15 C15         5.1150   -1.0070    2.8400 ca        1 TQX     -0.106000
     16 C16         5.8050   -1.0330    4.0610 ca        1 TQX      0.097900
     17 C17         5.8130    0.1230    4.8780 ca        1 TQX      0.075100
     18 C18         5.1540    1.2890    4.4710 ca        1 TQX     -0.143300
     19 C19         4.4680    1.3060    3.2440 ca        1 TQX     -0.052300
     20 O20         6.4780    0.0000    6.0880 os        1 TQX     -0.318900
     21 C21         6.8390    1.2430    6.6940 c3        1 TQX      0.130400
     22 C22         5.6740    2.2110    6.7280 c3        1 TQX     -0.112400
     23 C23         5.1960    2.5100    5.3220 c3        1 TQX     -0.023100
     24 C24         3.8030    2.5600    2.8110 c3        1 TQX     -0.053800
     25 C25         7.5550    1.3270   -0.9750 c3        1 TQX      0.165800
     26 C26         7.8560    2.0860   -2.2690 c3        1 TQX     -0.110767
     27 C27         7.6680    2.2790    0.2120 c3        1 TQX     -0.110767
     28 C28         8.5230    0.1650   -0.8220 c3        1 TQX     -0.110767
     29 F29         6.4570   -2.1490    4.4620 f         1 TQX     -0.129900
     30 C30         6.0990   -1.5440   -0.5990 c         1 TQX      0.909600
     31 O31         6.1160   -2.3870    0.3400 o         1 TQX     -0.817800
     32 O32         6.3720   -1.8030   -1.8000 o         1 TQX     -0.817800
     33 H01        -0.5500    0.1530   -0.7650 ha        1 TQX      0.136000
     34 H04         2.1290    0.0410    3.4600 ha        1 TQX      0.136000
     35 H05        -0.3620    0.0170    3.5460 ha        1 TQX      0.117000
     36 H06        -1.6880    0.0800    1.4480 ha        1 TQX      0.116000
     37 H11         4.5150    1.1940   -2.7130 hc        1 TQX      0.073700
     38 H11A        3.3040    0.0220   -3.4010 hc        1 TQX      0.073700
     39 H11B        4.8470   -0.5890   -2.6280 hc        1 TQX      0.073700
     40 H13         6.2280    0.1200    0.8080 h1        1 TQX      0.047700
     41 H15         5.1640   -1.8850    2.1570 ha        1 TQX      0.230000
     42 H21         7.7050    1.6820    6.1320 h1        1 TQX      0.049700
     43 H21A        7.1620    0.9440    7.7260 h1        1 TQX      0.049700
     44 H22         5.9890    3.1580    7.2370 hc        1 TQX      0.047700
     45 H22A        4.8380    1.7610    7.3240 hc        1 TQX      0.047700
     46 H23         5.8800    3.2620    4.8410 hc        1 TQX      0.048700
     47 H23A        4.1750    2.9750    5.3700 hc        1 TQX      0.048700
     48 H24         2.8960    2.7490    3.4390 hc        1 TQX      0.045033
     49 H24A        3.4830    2.5030    1.7410 hc        1 TQX      0.045033
     50 H24B        4.4980    3.4290    2.9240 hc        1 TQX      0.045033
     51 H26         7.1370    2.9290   -2.3950 hc        1 TQX      0.039256
     52 H26A        7.7540    1.3950   -3.1390 hc        1 TQX      0.039256
     53 H26B        8.8950    2.4880   -2.2330 hc        1 TQX      0.039256
     54 H27         8.6710    2.7680    0.2090 hc        1 TQX      0.039256
     55 H27A        6.8790    3.0650    0.1480 hc        1 TQX      0.039256
     56 H27B        7.5440    1.7280    1.1740 hc        1 TQX      0.039256
     57 H28         9.5730    0.5340   -0.8750 hc        1 TQX      0.039256
     58 H28A        8.3370   -0.5820   -1.6360 hc        1 TQX      0.039256
     59 H28B        8.3650   -0.3530    0.1540 hc        1 TQX      0.039256
@<TRIPOS>BOND
     1    1    2 ar  
     2    1    6 ar  
     3    1   33 1   
     4    2    3 ar  
     5    2    7 ar  
     6    3    4 ar  
     7    3   10 ar  
     8    4    5 ar  
     9    4   34 1   
    10    5    6 ar  
    11    5   35 1   
    12    6   36 1   
    13    7    8 ar  
    14    8    9 ar  
    15    8   11 1   
    16    9   10 ar  
    17    9   13 1   
    18   10   12 1   
    19   11   37 1   
    20   11   38 1   
    21   11   39 1   
    22   12   15 ar  
    23   12   19 ar  
    24   13   14 1   
    25   13   30 1   
    26   13   40 1   
    27   14   25 1   
    28   15   16 ar  
    29   15   41 1   
    30   16   17 ar  
    31   16   29 1   
    32   17   18 ar  
    33   17   20 1   
    34   18   19 ar  
    35   18   23 1   
    36   19   24 1   
    37   20   21 1   
    38   21   22 1   
    39   21   42 1   
    40   21   43 1   
    41   22   23 1   
    42   22   44 1   
    43   22   45 1   
    44   23   46 1   
    45   23   47 1   
    46   24   48 1   
    47   24   49 1   
    48   24   50 1   
    49   25   26 1   
    50   25   27 1   
    51   25   28 1   
    52   26   51 1   
    53   26   52 1   
    54   26   53 1   
    55   27   54 1   
    56   27   55 1   
    57   27   56 1   
    58   28   57 1   
    59   28   58 1   
    60   28   59 1   
    61   30   31 1   
    62   30   32 1   
@<TRIPOS>SUBSTRUCTURE
     1 TQX         1 TEMP              0 ****  ****    0 ROOT
