@<TRIPOS>MOLECULE
TQX
   59    62     1     0     0
SMALL
bcc


@<TRIPOS>ATOM
      1 C01         2.9570    3.8980    0.6090 ca        1 TQX     -0.172300
      2 C02         2.5510    2.5360    0.4250 ca        1 TQX      0.396600
      3 C03         1.1660    2.2550    0.2370 ca        1 TQX     -0.138300
      4 C04         0.2390    3.3290    0.2300 ca        1 TQX     -0.103000
      5 C05         0.6580    4.6250    0.4060 ca        1 TQX     -0.156000
      6 C06         2.0290    4.9090    0.5990 ca        1 TQX     -0.144000
      7 N07         3.5050    1.5410    0.4370 nb        1 TQX     -0.703000
      8 C08         3.1250    0.2860    0.2210 ca        1 TQX      0.481600
      9 C09         1.7430   -0.0980   -0.0130 ca        1 TQX     -0.112600
     10 C10         0.7730    0.8880    0.0470 cp        1 TQX     -0.019000
     11 C11         4.1700   -0.7850    0.2390 c3        1 TQX     -0.176400
     12 C12        -0.6640    0.5980   -0.0890 cp        1 TQX     -0.038000
     13 C13         1.3820   -1.5110   -0.3670 c3        1 TQX      0.041400
     14 O14         2.0300   -2.3790    0.5690 os        1 TQX     -0.413600
     15 C15        -1.1600    0.2250   -1.3450 ca        1 TQX     -0.106000
     16 C16        -2.5340    0.0090   -1.5220 ca        1 TQX      0.097900
     17 C17        -3.4070    0.1530   -0.4170 ca        1 TQX      0.075100
     18 C18        -2.9090    0.4930    0.8470 ca        1 TQX     -0.143300
     19 C19        -1.5290    0.7050    1.0140 ca        1 TQX     -0.052300
     20 O20        -4.7540   -0.0320   -0.6860 os        1 TQX     -0.318900
     21 C21        -5.5560   -0.3000    0.4660 c3        1 TQX      0.130400
     22 C22        -5.2830    0.6860    1.5830 c3        1 TQX     -0.112400
     23 C23        -3.8320    0.6090    2.0090 c3        1 TQX     -0.023100
     24 C24        -1.0130    1.0300    2.3670 c3        1 TQX     -0.053800
     25 C25         1.3790   -3.6350    0.8030 c3        1 TQX      0.165800
     26 C26         2.4210   -4.4500    1.5710 c3        1 TQX     -0.110767
     27 C27         0.1420   -3.4370    1.6740 c3        1 TQX     -0.110767
     28 C28         1.0150   -4.3500   -0.4880 c3        1 TQX     -0.110767
     29 F29        -3.0280   -0.3320   -2.7350 f         1 TQX     -0.129900
     30 C30         1.7790   -1.8220   -1.8530 c         1 TQX      0.909600
     31 O31         0.9710   -1.4160   -2.7330 o         1 TQX     -0.817800
     32 O32         2.8350   -2.4630   -2.0920 o         1 TQX     -0.817800
     33 H01         4.0260    4.1180    0.7530 ha        1 TQX      0.136000
     34 H04        -0.8280    3.1010    0.0760 ha        1 TQX      0.136000
     35 H05        -0.0650    5.4530    0.3930 ha        1 TQX      0.117000
     36 H06         2.3440    5.9530    0.7360 ha        1 TQX      0.116000
     37 H11         4.0460   -1.3920    1.1710 hc        1 TQX      0.073700
     38 H11A        4.0160   -1.4680   -0.6420 hc        1 TQX      0.073700
     39 H11B        5.2050   -0.3690    0.2110 hc        1 TQX      0.073700
     40 H13         0.2660   -1.6440   -0.2900 h1        1 TQX      0.047700
     41 H15        -0.4570    0.0430   -2.1880 ha        1 TQX      0.230000
     42 H21        -6.6050   -0.2090    0.0780 h1        1 TQX      0.049700
     43 H21A       -5.3630   -1.3510    0.8060 h1        1 TQX      0.049700
     44 H22        -5.5180    1.7220    1.2260 hc        1 TQX      0.047700
     45 H22A       -5.9520    0.4620    2.4520 hc        1 TQX      0.047700
     46 H23        -3.6800   -0.2800    2.6810 hc        1 TQX      0.048700
     47 H23A       -3.5730    1.5240    2.6080 hc        1 TQX      0.048700
     48 H24        -1.3120    2.0710    2.6510 hc        1 TQX      0.045033
     49 H24A       -1.4330    0.3230    3.1250 hc        1 TQX      0.045033
     50 H24B        0.1030    0.9640    2.4040 hc        1 TQX      0.045033
     51 H26         2.7050   -3.9210    2.5100 hc        1 TQX      0.039256
     52 H26A        2.0000   -5.4510    1.8240 hc        1 TQX      0.039256
     53 H26B        3.3330   -4.5780    0.9420 hc        1 TQX      0.039256
     54 H27        -0.6670   -2.9250    1.1010 hc        1 TQX      0.039256
     55 H27A       -0.2380   -4.4270    2.0190 hc        1 TQX      0.039256
     56 H27B        0.3980   -2.8140    2.5640 hc        1 TQX      0.039256
     57 H28         1.9070   -4.3750   -1.1640 hc        1 TQX      0.039256
     58 H28A        0.6760   -5.3890   -0.2650 hc        1 TQX      0.039256
     59 H28B        0.2000   -3.8050   -1.0240 hc        1 TQX      0.039256
@<TRIPOS>BOND
     1    1    2 ar  
     2    1    6 ar  
     3    1   33 1   
     4    2    3 ar  
     5    2    7 ar  
     6    3    4 ar  
     7    3   10 ar  
     8    4    5 ar  
     9    4   34 1   
    10    5    6 ar  
    11    5   35 1   
    12    6   36 1   
    13    7    8 ar  
    14    8    9 ar  
    15    8   11 1   
    16    9   10 ar  
    17    9   13 1   
    18   10   12 1   
    19   11   37 1   
    20   11   38 1   
    21   11   39 1   
    22   12   15 ar  
    23   12   19 ar  
    24   13   14 1   
    25   13   30 1   
    26   13   40 1   
    27   14   25 1   
    28   15   16 ar  
    29   15   41 1   
    30   16   17 ar  
    31   16   29 1   
    32   17   18 ar  
    33   17   20 1   
    34   18   19 ar  
    35   18   23 1   
    36   19   24 1   
    37   20   21 1   
    38   21   22 1   
    39   21   42 1   
    40   21   43 1   
    41   22   23 1   
    42   22   44 1   
    43   22   45 1   
    44   23   46 1   
    45   23   47 1   
    46   24   48 1   
    47   24   49 1   
    48   24   50 1   
    49   25   26 1   
    50   25   27 1   
    51   25   28 1   
    52   26   51 1   
    53   26   52 1   
    54   26   53 1   
    55   27   54 1   
    56   27   55 1   
    57   27   56 1   
    58   28   57 1   
    59   28   58 1   
    60   28   59 1   
    61   30   31 1   
    62   30   32 1   
@<TRIPOS>SUBSTRUCTURE
     1 TQX         1 TEMP              0 ****  ****    0 ROOT
