@<TRIPOS>MOLECULE
TQX
   59    62     1     0     0
SMALL
bcc


@<TRIPOS>ATOM
      1 C01         0.0360    0.1390    0.1640 ca        1 TQX     -0.172300
      2 C02         1.4660    0.1470    0.0810 ca        1 TQX      0.396600
      3 C03         2.2200    0.1180    1.2900 ca        1 TQX     -0.138300
      4 C04         1.5350    0.0730    2.5310 ca        1 TQX     -0.103000
      5 C05         0.1620    0.0630    2.5790 ca        1 TQX     -0.156000
      6 C06        -0.5910    0.0980    1.3840 ca        1 TQX     -0.144000
      7 N07         2.0700    0.1850   -1.1580 nb        1 TQX     -0.703000
      8 C08         3.3960    0.1480   -1.2260 ca        1 TQX      0.481600
      9 C09         4.2520    0.0840   -0.0540 ca        1 TQX     -0.112600
     10 C10         3.6530    0.1200    1.1940 cp        1 TQX     -0.019000
     11 C11         4.0390    0.1930   -2.5770 c3        1 TQX     -0.176400
     12 C12         4.4260    0.1480    2.4460 cp        1 TQX     -0.038000
     13 C13         5.7380   -0.0740   -0.1880 c3        1 TQX      0.041400
     14 O14         6.2000    0.8930   -1.1380 os        1 TQX     -0.413600
     15 C15         5.1130   -1.0080    2.8400 ca        1 TQX     -0.106000
     16 C16         5.8020   -1.0350    4.0600 ca        1 TQX      0.097900
     17 C17         5.8110    0.1200    4.8780 ca        1 TQX      0.075100
     18 C18         5.1530    1.2880    4.4710 ca        1 TQX     -0.143300
     19 C19         4.4670    1.3050    3.2440 ca        1 TQX     -0.052300
     20 O20         6.4750   -0.0030    6.0880 os        1 TQX     -0.318900
     21 C21         6.8370    1.2390    6.6940 c3        1 TQX      0.130400
     22 C22         5.6740    2.2080    6.7290 c3        1 TQX     -0.112400
     23 C23         5.1970    2.5080    5.3230 c3        1 TQX     -0.023100
     24 C24         3.8040    2.5600    2.8110 c3        1 TQX     -0.053800
     25 C25         7.5570    1.3260   -0.9730 c3        1 TQX      0.165800
     26 C26         7.8590    2.0840   -2.2670 c3        1 TQX     -0.110767
     27 C27         7.6690    2.2770    0.2140 c3        1 TQX     -0.110767
     28 C28         8.5230    0.1630   -0.8200 c3        1 TQX     -0.110767
     29 F29         6.4520   -2.1520    4.4610 f         1 TQX     -0.129900
     30 C30         6.0980   -1.5440   -0.6000 c         1 TQX      0.909600
     31 O31         6.1120   -2.3890    0.3390 o         1 TQX     -0.817800
     32 O32         6.3720   -1.8030   -1.8000 o         1 TQX     -0.817800
     33 H01        -0.5490    0.1600   -0.7680 ha        1 TQX      0.136000
     34 H04         2.1280    0.0430    3.4590 ha        1 TQX      0.136000
     35 H05        -0.3640    0.0220    3.5430 ha        1 TQX      0.117000
     36 H06        -1.6890    0.0870    1.4440 ha        1 TQX      0.116000
     37 H11         3.3060    0.0240   -3.4020 hc        1 TQX      0.073700
     38 H11A        4.5180    1.1950   -2.7140 hc        1 TQX      0.073700
     39 H11B        4.8480   -0.5880   -2.6290 hc        1 TQX      0.073700
     40 H13         6.2280    0.1180    0.8090 h1        1 TQX      0.047700
     41 H15         5.1610   -1.8850    2.1560 ha        1 TQX      0.230000
     42 H21         7.1600    0.9390    7.7270 h1        1 TQX      0.049700
     43 H21A        7.7040    1.6770    6.1330 h1        1 TQX      0.049700
     44 H22         4.8370    1.7580    7.3240 hc        1 TQX      0.047700
     45 H22A        5.9890    3.1540    7.2380 hc        1 TQX      0.047700
     46 H23         4.1750    2.9740    5.3700 hc        1 TQX      0.048700
     47 H23A        5.8810    3.2600    4.8420 hc        1 TQX      0.048700
     48 H24         3.4850    2.5040    1.7410 hc        1 TQX      0.045033
     49 H24A        4.5000    3.4290    2.9250 hc        1 TQX      0.045033
     50 H24B        2.8970    2.7510    3.4380 hc        1 TQX      0.045033
     51 H26         7.1410    2.9270   -2.3940 hc        1 TQX      0.039256
     52 H26A        7.7580    1.3930   -3.1370 hc        1 TQX      0.039256
     53 H26B        8.8980    2.4860   -2.2310 hc        1 TQX      0.039256
     54 H27         6.8810    3.0640    0.1480 hc        1 TQX      0.039256
     55 H27A        8.6720    2.7650    0.2120 hc        1 TQX      0.039256
     56 H27B        7.5430    1.7260    1.1760 hc        1 TQX      0.039256
     57 H28         8.3640   -0.3550    0.1570 hc        1 TQX      0.039256
     58 H28A        9.5740    0.5320   -0.8720 hc        1 TQX      0.039256
     59 H28B        8.3380   -0.5840   -1.6330 hc        1 TQX      0.039256
@<TRIPOS>BOND
     1    1    2 ar  
     2    1    6 ar  
     3    1   33 1   
     4    2    3 ar  
     5    2    7 ar  
     6    3    4 ar  
     7    3   10 ar  
     8    4    5 ar  
     9    4   34 1   
    10    5    6 ar  
    11    5   35 1   
    12    6   36 1   
    13    7    8 ar  
    14    8    9 ar  
    15    8   11 1   
    16    9   10 ar  
    17    9   13 1   
    18   10   12 1   
    19   11   37 1   
    20   11   38 1   
    21   11   39 1   
    22   12   15 ar  
    23   12   19 ar  
    24   13   14 1   
    25   13   30 1   
    26   13   40 1   
    27   14   25 1   
    28   15   16 ar  
    29   15   41 1   
    30   16   17 ar  
    31   16   29 1   
    32   17   18 ar  
    33   17   20 1   
    34   18   19 ar  
    35   18   23 1   
    36   19   24 1   
    37   20   21 1   
    38   21   22 1   
    39   21   42 1   
    40   21   43 1   
    41   22   23 1   
    42   22   44 1   
    43   22   45 1   
    44   23   46 1   
    45   23   47 1   
    46   24   48 1   
    47   24   49 1   
    48   24   50 1   
    49   25   26 1   
    50   25   27 1   
    51   25   28 1   
    52   26   51 1   
    53   26   52 1   
    54   26   53 1   
    55   27   54 1   
    56   27   55 1   
    57   27   56 1   
    58   28   57 1   
    59   28   58 1   
    60   28   59 1   
    61   30   31 1   
    62   30   32 1   
@<TRIPOS>SUBSTRUCTURE
     1 TQX         1 TEMP              0 ****  ****    0 ROOT
