@<TRIPOS>MOLECULE
TQZ
   17    16     1     0     0
SMALL
bcc


@<TRIPOS>ATOM
      1 S4         -5.5080   -1.4440   -4.1100 sh        1 TQZ     -0.384800
      2 S3         -3.6430   -0.6100   -3.9420 ss        1 TQZ      0.002000
      3 S2         -2.9810   -0.7990   -2.0110 ss        1 TQZ      0.131000
      4 S1         -1.1440    0.0900   -1.8270 ss        1 TQZ     -0.185000
      5 SG         -0.4290   -0.2020    0.0720 ss        1 TQZ     -0.130100
      6 CB          1.1640    0.5610    0.2280 c3        1 TQZ      0.024700
      7 CA          1.5560    0.6150    1.6870 c3        1 TQZ      0.011500
      8 N           2.9380    0.9330    1.7950 n3        1 TQZ     -0.885800
      9 C           1.2970   -0.7290    2.3280 c         1 TQZ      0.902600
     10 O           0.3770   -0.8540    3.1780 o         1 TQZ     -0.813800
     11 OXT         2.0010   -1.7240    2.0110 o         1 TQZ     -0.813800
     12 H4         -5.8750   -1.3640   -5.2270 hs        1 TQZ      0.222800
     13 HB2         1.1270    1.4690   -0.1330 h1        1 TQZ      0.086700
     14 HB3         1.8250    0.0390   -0.2680 h1        1 TQZ      0.086700
     15 HA          1.0270    1.3000    2.1410 h1        1 TQZ      0.067700
     16 H           3.1740    0.9740    2.6790 hn        1 TQZ      0.339300
     17 H2          3.0960    1.7440    1.3990 hn        1 TQZ      0.339300
@<TRIPOS>BOND
     1    1    2 1   
     2    1   12 1   
     3    2    3 1   
     4    3    4 1   
     5    4    5 1   
     6    5    6 1   
     7    6    7 1   
     8    6   13 1   
     9    6   14 1   
    10    7    8 1   
    11    7    9 1   
    12    7   15 1   
    13    8   16 1   
    14    8   17 1   
    15    9   10 1   
    16    9   11 1   
@<TRIPOS>SUBSTRUCTURE
     1 TQZ         1 TEMP              0 ****  ****    0 ROOT
