@<TRIPOS>MOLECULE
TQZ
   17    17     1     0     0
SMALL
bcc


@<TRIPOS>ATOM
      1 S4          3.9870    1.6600   -0.8400 sh        1 TQZ     -0.321800
      2 S3          3.4970    0.0180    0.3600 ss        1 TQZ     -0.143000
      3 S2          1.6100    0.1240    1.0970 ss        1 TQZ     -0.049400
      4 S1          0.0770   -0.5140    0.2610 s4        1 TQZ     -0.564300
      5 SG         -1.1580   -2.2710    0.5950 ss        1 TQZ     -0.228500
      6 CB         -2.6740   -1.3510    0.3850 c3        1 TQZ      0.066700
      7 CA         -2.4700   -0.1150   -0.4670 c3        1 TQZ     -0.038500
      8 N          -1.2300    0.6150   -0.0790 n4        1 TQZ     -0.390700
      9 C          -3.7460    0.8250   -0.3440 c         1 TQZ      0.924600
     10 O          -3.5880    1.8950    0.2990 o         1 TQZ     -0.789800
     11 OXT        -4.7750    0.4080   -0.9150 o         1 TQZ     -0.789800
     12 H4          3.8110    1.1110   -2.0310 hs        1 TQZ      0.193800
     13 HB2        -3.4130   -2.0170   -0.1230 h1        1 TQZ      0.088700
     14 HB3        -3.0750   -1.0780    1.3910 h1        1 TQZ      0.088700
     15 HA         -2.3680   -0.4130   -1.5480 hx        1 TQZ      0.084700
     16 H          -0.9880    1.2520   -0.8320 hn        1 TQZ      0.434300
     17 H2         -1.4650    1.1960    0.7330 hn        1 TQZ      0.434300
@<TRIPOS>BOND
     1    1    2 1   
     2    1   12 1   
     3    2    3 1   
     4    3    4 1   
     5    4    5 1   
     6    4    8 1   
     7    5    6 1   
     8    6    7 1   
     9    6   13 1   
    10    6   14 1   
    11    7    8 1   
    12    7    9 1   
    13    7   15 1   
    14    8   16 1   
    15    8   17 1   
    16    9   10 1   
    17    9   11 1   
@<TRIPOS>SUBSTRUCTURE
     1 TQZ         1 TEMP              0 ****  ****    0 ROOT
