@<TRIPOS>MOLECULE
TR0
   56    59     1     0     0
SMALL
bcc


@<TRIPOS>ATOM
      1 CAA         3.9700    4.8840   -0.8770 c3        1 TR0     -0.133400
      2 CAW         4.4360    3.5240   -0.5570 cc        1 TR0      0.316600
      3 CAK         3.6650    2.3020   -0.8110 cc        1 TR0     -0.317600
      4 NAQ         5.6140    3.1830    0.0080 nd        1 TR0     -0.356300
      5 OAT         5.6710    1.8750    0.1410 os        1 TR0     -0.130100
      6 CAZ         4.4760    1.2850   -0.3580 cd        1 TR0      0.245000
      7 CAM         4.4310   -0.1790   -0.2870 c3        1 TR0     -0.178700
      8 CAU         3.0170   -0.7330   -0.3330 c         1 TR0      0.675100
      9 OAB         2.0470   -0.0650   -0.7490 o         1 TR0     -0.619100
     10 N           2.8200   -2.0220    0.1370 n         1 TR0     -0.454800
     11 CD2         3.9070   -2.9490    0.3770 c3        1 TR0      0.048000
     12 CG          3.3540   -4.3850    0.1720 c3        1 TR0      0.132100
     13 OD1         3.9890   -5.0150   -0.9250 oh        1 TR0     -0.590800
     14 CB          1.8700   -4.2230   -0.1810 c3        1 TR0     -0.089400
     15 CA          1.5520   -2.7190   -0.0580 c3        1 TR0      0.031700
     16 C           0.5540   -2.4590    1.0990 c         1 TR0      0.651100
     17 O           0.1150   -3.3970    1.7930 o         1 TR0     -0.616100
     18 NAR         0.1950   -1.1490    1.3210 n         1 TR0     -0.549900
     19 CAL        -0.8370   -0.7860    2.2560 c3        1 TR0      0.127300
     20 CA0        -7.7690    0.8850   -1.3080 ca        1 TR0     -0.131000
     21 CAX        -2.0940   -0.2680    1.6160 ca        1 TR0     -0.114300
     22 CAF        -3.3000   -0.9560    1.7720 ca        1 TR0     -0.117000
     23 CA1        -7.1250    3.1230   -0.6770 ca        1 TR0     -0.131000
     24 CAH        -4.4700   -0.4590    1.2030 ca        1 TR0     -0.120500
     25 CAE        -2.0700    0.9210    0.8790 ca        1 TR0     -0.117000
     26 CA2        -5.9530    2.6290   -0.1080 ca        1 TR0     -0.118000
     27 CAG        -3.2380    1.4180    0.3090 ca        1 TR0     -0.120500
     28 CAY        -4.4520    0.7330    0.4650 cp        1 TR0     -0.032000
     29 CBA        -5.6800    1.2540   -0.1320 cp        1 TR0     -0.039000
     30 CAJ        -6.5990    0.3850   -0.7380 ca        1 TR0     -0.118000
     31 CAI        -8.0340    2.2530   -1.2780 ca        1 TR0     -0.127000
     32 HAA1        3.0340    5.1020   -0.3040 hc        1 TR0      0.058700
     33 HAA2        4.7340    5.6600   -0.6230 hc        1 TR0      0.058700
     34 HAA3        3.7420    4.9520   -1.9710 hc        1 TR0      0.058700
     35 HAK         2.6730    2.2330   -1.2490 ha        1 TR0      0.195000
     36 HAM1        4.9950   -0.6060   -1.1650 hc        1 TR0      0.094700
     37 HAM2        4.9560   -0.5140    0.6520 hc        1 TR0      0.094700
     38 HD21        4.7630   -2.7660   -0.3300 h1        1 TR0      0.055700
     39 HD22        4.2740   -2.8180    1.4320 h1        1 TR0      0.055700
     40 HA          1.0580   -2.3460   -1.0040 h1        1 TR0      0.089700
     41 HG          3.4910   -4.9910    1.1060 h1        1 TR0      0.059700
     42 HD1         4.8710   -5.2710   -0.6320 ho        1 TR0      0.404000
     43 HB1C        1.6860   -4.5670   -1.2300 hc        1 TR0      0.091700
     44 HB2C        1.2330   -4.8280    0.5120 hc        1 TR0      0.091700
     45 HAR         0.4570   -0.4590    0.6510 hn        1 TR0      0.333500
     46 HAL1       -1.0770   -1.6820    2.9010 h1        1 TR0      0.069700
     47 HAL2       -0.4210    0.0250    2.9240 h1        1 TR0      0.069700
     48 HAJ        -6.3910   -0.6950   -0.7680 ha        1 TR0      0.135000
     49 HAI        -8.9580    2.6460   -1.7280 ha        1 TR0      0.132000
     50 HAF        -3.3260   -1.8950    2.3450 ha        1 TR0      0.137000
     51 HAE        -1.1230    1.4660    0.7490 ha        1 TR0      0.137000
     52 HA1        -7.3330    4.2030   -0.6500 ha        1 TR0      0.132000
     53 HA2        -5.2410    3.3180    0.3700 ha        1 TR0      0.135000
     54 HAH        -5.4180   -1.0040    1.3370 ha        1 TR0      0.136500
     55 HAG        -3.2100    2.3500   -0.2750 ha        1 TR0      0.136500
     56 HA0        -8.4820    0.1960   -1.7830 ha        1 TR0      0.132000
@<TRIPOS>BOND
     1    1    2 1   
     2    1   32 1   
     3    1   33 1   
     4    1   34 1   
     5    2    3 1   
     6    2    4 2   
     7    3    6 2   
     8    3   35 1   
     9    4    5 1   
    10    5    6 1   
    11    6    7 1   
    12    7    8 1   
    13    7   36 1   
    14    7   37 1   
    15    8    9 2   
    16    8   10 1   
    17   10   11 1   
    18   10   15 1   
    19   11   12 1   
    20   11   38 1   
    21   11   39 1   
    22   12   13 1   
    23   12   14 1   
    24   12   41 1   
    25   13   42 1   
    26   14   15 1   
    27   14   43 1   
    28   14   44 1   
    29   15   16 1   
    30   15   40 1   
    31   16   17 2   
    32   16   18 1   
    33   18   19 1   
    34   18   45 1   
    35   19   21 1   
    36   19   46 1   
    37   19   47 1   
    38   20   30 ar  
    39   20   31 ar  
    40   20   56 1   
    41   21   22 ar  
    42   21   25 ar  
    43   22   24 ar  
    44   22   50 1   
    45   23   26 ar  
    46   23   31 ar  
    47   23   52 1   
    48   24   28 ar  
    49   24   54 1   
    50   25   27 ar  
    51   25   51 1   
    52   26   29 ar  
    53   26   53 1   
    54   27   28 ar  
    55   27   55 1   
    56   28   29 1   
    57   29   30 ar  
    58   30   48 1   
    59   31   49 1   
@<TRIPOS>SUBSTRUCTURE
     1 TR0         1 TEMP              0 ****  ****    0 ROOT
