@<TRIPOS>MOLECULE
TR0
   57    60     1     0     0
SMALL
bcc


@<TRIPOS>ATOM
      1 CAA         0.2230   -0.6920   -0.4230 c3        1 TR0     -0.139400
      2 CAW         1.6230   -1.1200   -0.2520 cc        1 TR0      0.325600
      3 CAK         2.5770   -0.5000    0.6740 cc        1 TR0     -0.322600
      4 NAQ         2.2510   -2.1180   -0.9110 nd        1 TR0     -0.332300
      5 OAT         3.4990   -2.1930   -0.5060 os        1 TR0     -0.105100
      6 CAZ         3.7450   -1.2050    0.4830 cd        1 TR0      0.220000
      7 CAM         5.1090   -1.1280    1.0150 c3        1 TR0     -0.165700
      8 CAU         5.4360   -2.2900    1.9300 c         1 TR0      0.678100
      9 OAB         4.7170   -3.3050    2.0300 o         1 TR0     -0.629100
     10 N           6.5650   -2.2050    2.7520 n         1 TR0     -0.472800
     11 CD2         7.5590   -1.1520    2.6020 c3        1 TR0      0.037000
     12 CG          8.9430   -1.7390    2.9860 c3        1 TR0      0.138100
     13 OD1         9.7520   -1.8670    1.8350 oh        1 TR0     -0.584800
     14 CB          8.6700   -3.1570    3.5090 c3        1 TR0     -0.096400
     15 CA          7.1600   -3.4110    3.3080 c3        1 TR0      0.042700
     16 C           6.5090   -3.7990    4.6480 c         1 TR0      0.535100
     17 O           7.0230   -3.7600    5.7540 o         1 TR0     -0.417100
     18 NAR         5.0900   -4.2900    4.5530 n4        1 TR0     -0.676800
     19 CAL         4.7330   -5.3550    5.5490 c3        1 TR0      0.176100
     20 CA0         7.0610  -12.8640    4.4160 ca        1 TR0     -0.126000
     21 CAX         5.1680   -6.7030    5.0930 ca        1 TR0     -0.197300
     22 CAF         6.2290   -7.3560    5.7300 ca        1 TR0     -0.097500
     23 CA1         6.6850  -12.2550    2.1100 ca        1 TR0     -0.126000
     24 CAH         6.6000   -8.6360    5.3300 ca        1 TR0     -0.122000
     25 CAE         4.4830   -7.3430    4.0510 ca        1 TR0     -0.097500
     26 CA2         6.3100  -10.9730    2.5060 ca        1 TR0     -0.106500
     27 CAG         4.8590   -8.6190    3.6480 ca        1 TR0     -0.122000
     28 CAY         5.9230   -9.2820    4.2840 cp        1 TR0      0.034000
     29 CBA         6.3130  -10.6250    3.8650 cp        1 TR0     -0.081000
     30 CAJ         6.6930  -11.5820    4.8180 ca        1 TR0     -0.106500
     31 CAI         7.0600  -13.2030    3.0630 ca        1 TR0     -0.102000
     32 HAA1       -0.2450   -0.5280    0.5800 hc        1 TR0      0.067033
     33 HAA2        0.1950    0.2710   -0.9930 hc        1 TR0      0.067033
     34 HAA3       -0.3800   -1.4510   -0.9820 hc        1 TR0      0.067033
     35 HAK         2.3690    0.3340    1.3350 ha        1 TR0      0.179000
     36 HAM1        5.2340   -0.1540    1.5640 hc        1 TR0      0.106700
     37 HAM2        5.8440   -1.1520    0.1590 hc        1 TR0      0.106700
     38 HD21        7.5940   -0.7730    1.5430 h1        1 TR0      0.076200
     39 HD22        7.2850   -0.3050    3.2880 h1        1 TR0      0.076200
     40 HA          7.0050   -4.2880    2.6060 h1        1 TR0      0.110700
     41 HG          9.4390   -1.1010    3.7650 h1        1 TR0      0.076700
     42 HD1        10.2380   -1.0400    1.7240 ho        1 TR0      0.425000
     43 HB1C        8.9660   -3.2400    4.5830 hc        1 TR0      0.103200
     44 HB2C        9.2590   -3.9050    2.9160 hc        1 TR0      0.103200
     45 HAR         4.9300   -4.6530    3.5950 hn        1 TR0      0.474800
     46 HAL1        3.6090   -5.3290    5.6640 hx        1 TR0      0.111200
     47 HAL2        5.2080   -5.0850    6.5370 hx        1 TR0      0.111200
     48 HAJ         6.6880  -11.3250    5.8880 ha        1 TR0      0.134500
     49 HAI         7.3530  -14.2160    2.7480 ha        1 TR0      0.146000
     50 HAF         6.7660   -6.8640    6.5570 ha        1 TR0      0.140500
     51 HAE         3.6320   -6.8460    3.5580 ha        1 TR0      0.140500
     52 HA2         6.0200  -10.2300    1.7490 ha        1 TR0      0.134500
     53 HAH         7.4360   -9.1460    5.8370 ha        1 TR0      0.159500
     54 HAG         4.3100   -9.1220    2.8360 ha        1 TR0      0.159500
     55 HA0         7.3520  -13.6110    5.1700 ha        1 TR0      0.145000
     56 HAR2        4.4720   -3.4800    4.6780 hn        1 TR0      0.474800
     57 HA1         6.6840  -12.5200    1.0410 ha        1 TR0      0.145000
@<TRIPOS>BOND
     1    1    2 1   
     2    1   32 1   
     3    1   33 1   
     4    1   34 1   
     5    2    3 1   
     6    2    4 2   
     7    3    6 2   
     8    3   35 1   
     9    4    5 1   
    10    5    6 1   
    11    6    7 1   
    12    7    8 1   
    13    7   36 1   
    14    7   37 1   
    15    8    9 2   
    16    8   10 1   
    17   10   11 1   
    18   10   15 1   
    19   11   12 1   
    20   11   38 1   
    21   11   39 1   
    22   12   13 1   
    23   12   14 1   
    24   12   41 1   
    25   13   42 1   
    26   14   15 1   
    27   14   43 1   
    28   14   44 1   
    29   15   16 1   
    30   15   40 1   
    31   16   17 2   
    32   16   18 1   
    33   18   19 1   
    34   18   45 1   
    35   18   56 1   
    36   19   21 1   
    37   19   46 1   
    38   19   47 1   
    39   20   30 ar  
    40   20   31 ar  
    41   20   55 1   
    42   21   22 ar  
    43   21   25 ar  
    44   22   24 ar  
    45   22   50 1   
    46   23   26 ar  
    47   23   31 ar  
    48   23   57 1   
    49   24   28 ar  
    50   24   53 1   
    51   25   27 ar  
    52   25   51 1   
    53   26   29 ar  
    54   26   52 1   
    55   27   28 ar  
    56   27   54 1   
    57   28   29 1   
    58   29   30 ar  
    59   30   48 1   
    60   31   49 1   
@<TRIPOS>SUBSTRUCTURE
     1 TR0         1 TEMP              0 ****  ****    0 ROOT
