@<TRIPOS>MOLECULE
TR0
   57    60     1     0     0
SMALL
bcc


@<TRIPOS>ATOM
      1 CAA         0.2000   -0.6840   -0.3820 c3        1 TR0     -0.139400
      2 CAW         1.6010   -1.1090   -0.2180 cc        1 TR0      0.325600
      3 CAK         2.5570   -0.4930    0.7090 cc        1 TR0     -0.322600
      4 NAQ         2.2300   -2.1010   -0.8860 nd        1 TR0     -0.332300
      5 OAT         3.4800   -2.1750   -0.4850 os        1 TR0     -0.104100
      6 CAZ         3.7270   -1.1930    0.5090 cd        1 TR0      0.220000
      7 CAM         5.0910   -1.1150    1.0390 c3        1 TR0     -0.165700
      8 CAU         5.4250   -2.2830    1.9450 c         1 TR0      0.678100
      9 OAB         4.7090   -3.3010    2.0400 o         1 TR0     -0.630100
     10 N           6.5550   -2.1990    2.7650 n         1 TR0     -0.472800
     11 CD2         7.5460   -1.1420    2.6190 c3        1 TR0      0.037000
     12 CG          8.9320   -1.7260    2.9980 c3        1 TR0      0.138100
     13 OD1         9.7390   -1.8450    1.8440 oh        1 TR0     -0.584800
     14 CB          8.6640   -3.1490    3.5120 c3        1 TR0     -0.096400
     15 CA          7.1550   -3.4060    3.3120 c3        1 TR0      0.042700
     16 C           6.5080   -3.8050    4.6510 c         1 TR0      0.535100
     17 O           7.0230   -3.7710    5.7560 o         1 TR0     -0.417100
     18 NAR         5.0910   -4.3010    4.5550 ny        1 TR0     -0.676800
     19 CAL         4.7380   -5.3730    5.5460 c3        1 TR0      0.176100
     20 CA0         7.0960  -12.8670    4.3710 ca        1 TR0     -0.126000
     21 CAX         5.1780   -6.7170    5.0810 ca        1 TR0     -0.197300
     22 CAF         6.2430   -7.3690    5.7140 ca        1 TR0     -0.097500
     23 CA1         6.7140  -12.2480    2.0680 ca        1 TR0     -0.126000
     24 CAH         6.6190   -8.6450    5.3070 ca        1 TR0     -0.122000
     25 CAE         4.4950   -7.3540    4.0370 ca        1 TR0     -0.097500
     26 CA2         6.3340  -10.9700    2.4720 ca        1 TR0     -0.106500
     27 CAG         4.8750   -8.6270    3.6280 ca        1 TR0     -0.122000
     28 CAY         5.9420   -9.2890    4.2580 cp        1 TR0      0.034000
     29 CBA         6.3380  -10.6280    3.8320 cp        1 TR0     -0.081000
     30 CAJ         6.7230  -11.5880    4.7800 ca        1 TR0     -0.106500
     31 CAI         7.0940  -13.1990    3.0160 ca        1 TR0     -0.102000
     32 HAA1       -0.2650   -0.5250    0.6230 hc        1 TR0      0.067033
     33 HAA2       -0.4030   -1.4420   -0.9420 hc        1 TR0      0.067033
     34 HAA3        0.1670    0.2810   -0.9490 hc        1 TR0      0.067033
     35 HAK         2.3480    0.3370    1.3760 ha        1 TR0      0.179000
     36 HAM1        5.8240   -1.1320    0.1800 hc        1 TR0      0.106700
     37 HAM2        5.2150   -0.1440    1.5930 hc        1 TR0      0.106700
     38 HD21        7.2700   -0.3000    3.3110 h1        1 TR0      0.076200
     39 HD22        7.5770   -0.7560    1.5630 h1        1 TR0      0.076200
     40 HA          7.0020   -4.2800    2.6040 h1        1 TR0      0.110700
     41 HG          9.4270   -1.0920    3.7790 h1        1 TR0      0.076700
     42 HD1        10.2220   -1.0160    1.7360 ho        1 TR0      0.425000
     43 HB1C        9.2550   -3.8910    2.9140 hc        1 TR0      0.103200
     44 HB2C        8.9630   -3.2370    4.5860 hc        1 TR0      0.103200
     45 HAR         4.4690   -3.4940    4.6850 hn        1 TR0      0.474800
     46 HAL1        3.6150   -5.3520    5.6620 hx        1 TR0      0.111200
     47 HAL2        5.2130   -5.1070    6.5350 hx        1 TR0      0.111200
     48 HAJ         6.7180  -11.3360    5.8510 ha        1 TR0      0.134500
     49 HAI         7.3900  -14.2090    2.6950 ha        1 TR0      0.146000
     50 HAF         6.7790   -6.8790    6.5420 ha        1 TR0      0.140500
     51 HAE         3.6410   -6.8580    3.5480 ha        1 TR0      0.140500
     52 HA2         6.0400  -10.2230    1.7180 ha        1 TR0      0.134500
     53 HAH         7.4570   -9.1550    5.8100 ha        1 TR0      0.159500
     54 HAG         4.3280   -9.1280    2.8130 ha        1 TR0      0.159500
     55 HA0         7.3910  -13.6170    5.1210 ha        1 TR0      0.145000
     56 HAR2        4.9310   -4.6600    3.5950 hn        1 TR0      0.474800
     57 HA1         6.7120  -12.5070    0.9990 ha        1 TR0      0.145000
@<TRIPOS>BOND
     1    1    2 1   
     2    1   32 1   
     3    1   33 1   
     4    1   34 1   
     5    2    3 1   
     6    2    4 2   
     7    3    6 2   
     8    3   35 1   
     9    4    5 1   
    10    5    6 1   
    11    6    7 1   
    12    7    8 1   
    13    7   36 1   
    14    7   37 1   
    15    8    9 2   
    16    8   10 1   
    17   10   11 1   
    18   10   15 1   
    19   11   12 1   
    20   11   38 1   
    21   11   39 1   
    22   12   13 1   
    23   12   14 1   
    24   12   41 1   
    25   13   42 1   
    26   14   15 1   
    27   14   43 1   
    28   14   44 1   
    29   15   16 1   
    30   15   40 1   
    31   16   17 2   
    32   16   18 1   
    33   18   19 1   
    34   18   45 1   
    35   18   56 1   
    36   19   21 1   
    37   19   46 1   
    38   19   47 1   
    39   20   30 ar  
    40   20   31 ar  
    41   20   55 1   
    42   21   22 ar  
    43   21   25 ar  
    44   22   24 ar  
    45   22   50 1   
    46   23   26 ar  
    47   23   31 ar  
    48   23   57 1   
    49   24   28 ar  
    50   24   53 1   
    51   25   27 ar  
    52   25   51 1   
    53   26   29 ar  
    54   26   52 1   
    55   27   28 ar  
    56   27   54 1   
    57   28   29 1   
    58   29   30 ar  
    59   30   48 1   
    60   31   49 1   
@<TRIPOS>SUBSTRUCTURE
     1 TR0         1 TEMP              0 ****  ****    0 ROOT
