@<TRIPOS>MOLECULE
TR1
   66    67     1     0     0
SMALL
bcc


@<TRIPOS>ATOM
      1 N           0.4140   -0.1270   -0.1110 n4        1 TR1     -0.804000
      2 CA          1.8940    0.0950   -0.1100 c3        1 TR1      0.075500
      3 C           2.3370    0.9160    1.1060 c         1 TR1      0.526100
      4 O           1.6250    1.5720    1.8450 o         1 TR1     -0.362100
      5 C41        -5.7180   -2.0680    0.2360 cp        1 TR1     -0.121000
      6 C42        -6.5540   -1.9790    1.3620 ca        1 TR1     -0.090000
      7 C43        -6.2830   -2.3810   -1.0130 ca        1 TR1     -0.090000
      8 C44        -7.9230   -2.2010    1.2400 ca        1 TR1     -0.124000
      9 C45        -7.6540   -2.5910   -1.1300 ca        1 TR1     -0.124000
     10 C46        -8.4770   -2.5050   -0.0050 ca        1 TR1     -0.069000
     11 C47        -1.5120   -1.4330    0.6190 ca        1 TR1     -0.262300
     12 C48        -2.0090   -2.3510   -0.3240 ca        1 TR1     -0.074000
     13 C49        -2.4150   -0.7210    1.4300 ca        1 TR1     -0.074000
     14 C50        -3.3740   -2.5540   -0.4490 ca        1 TR1     -0.133500
     15 C51        -3.7790   -0.9270    1.3030 ca        1 TR1     -0.133500
     16 C52        -4.2870   -1.8480    0.3620 cp        1 TR1      0.108000
     17 CM2        -0.0610   -1.2660    0.7950 c3        1 TR1      0.214100
     18 CB          2.3690    0.7990   -1.3920 c3        1 TR1     -0.079300
     19 SG          1.7820   -0.1690   -2.7470 sh        1 TR1     -0.269900
     20 N2          3.8250    0.9130    1.3950 n4        1 TR1     -0.669800
     21 CA2         4.2040    1.8050    2.5360 c3        1 TR1      0.056800
     22 C2          5.7120    2.0620    2.5390 c         1 TR1      0.539100
     23 O2          6.3800    2.1490    1.5180 o         1 TR1     -0.384100
     24 N3          6.3870    2.2440    3.8560 n4        1 TR1     -0.660800
     25 CA3         7.3880    1.1310    4.1640 c3        1 TR1      0.077500
     26 CB3         7.8210    1.2110    5.6480 c3        1 TR1     -0.070700
     27 CG1         6.7700    0.6420    6.5710 c3        1 TR1     -0.119100
     28 CG2         9.1500    0.4980    5.8150 c3        1 TR1     -0.119100
     29 C3          6.8050   -0.2180    3.7520 c         1 TR1      0.670100
     30 O3          5.7550   -0.3360    3.0830 o         1 TR1     -0.695000
     31 OE          7.5300   -1.2760    4.0990 os        1 TR1     -0.339900
     32 CM3         7.0760   -2.5900    3.6920 c3        1 TR1      0.120700
     33 HN          0.1430   -0.3620   -1.1000 hn        1 TR1      0.481800
     34 HA          2.3780   -0.9350   -0.0600 hx        1 TR1      0.156700
     35 H42        -6.1280   -1.7560    2.3520 ha        1 TR1      0.134000
     36 H43        -5.6470   -2.4430   -1.9090 ha        1 TR1      0.134000
     37 H44        -8.5710   -2.1390    2.1290 ha        1 TR1      0.160000
     38 H45        -8.0910   -2.8290   -2.1140 ha        1 TR1      0.160000
     39 H46        -9.5620   -2.6780   -0.1000 ha        1 TR1      0.164000
     40 H48        -1.3140   -2.9330   -0.9510 ha        1 TR1      0.133500
     41 H49        -2.0400   -0.0110    2.1820 ha        1 TR1      0.133500
     42 H50        -3.7540   -3.2950   -1.1740 ha        1 TR1      0.176000
     43 H51        -4.4810   -0.3630    1.9420 ha        1 TR1      0.176000
     44 HM21        0.2070   -0.9720    1.8470 hx        1 TR1      0.093200
     45 HM22        0.5060   -2.1900    0.4870 hx        1 TR1      0.093200
     46 HB1         3.4880    0.8150   -1.4150 h1        1 TR1      0.108200
     47 HB2         2.0070    1.8570   -1.4420 h1        1 TR1      0.108200
     48 HSG         1.5380    0.7890   -3.6520 hs        1 TR1      0.290800
     49 HN2         4.1320   -0.0530    1.6270 hn        1 TR1      0.500800
     50 HA21        3.8600    1.3060    3.4920 hx        1 TR1      0.164700
     51 HA22        3.6720    2.8030    2.4280 hx        1 TR1      0.164700
     52 HN3         5.6980    2.2800    4.6210 hn        1 TR1      0.492800
     53 HA3         8.2980    1.3140    3.5030 hx        1 TR1      0.168700
     54 HB3         7.9930    2.2980    5.9070 hc        1 TR1      0.086700
     55 HG11        6.5870   -0.4390    6.3540 hc        1 TR1      0.075367
     56 HG12        7.1280    0.7180    7.6320 hc        1 TR1      0.075367
     57 HG13        5.8060    1.2020    6.4970 hc        1 TR1      0.075367
     58 HG21        9.9310    0.9400    5.1480 hc        1 TR1      0.075367
     59 HG22        9.0600   -0.5940    5.6000 hc        1 TR1      0.075367
     60 HG23        9.4920    0.6160    6.8760 hc        1 TR1      0.075367
     61 HM31        7.8780   -3.2540    4.1150 h1        1 TR1      0.091700
     62 HM32        7.0370   -2.6390    2.5790 h1        1 TR1      0.091700
     63 HM33        6.0790   -2.7940    4.1490 h1        1 TR1      0.091700
     64 H2         -0.0870    0.7320    0.1530 hn        1 TR1      0.481800
     65 H22         4.3330    1.2080    0.5440 hn        1 TR1      0.500800
     66 H32         6.9190    3.1340    3.8460 hn        1 TR1      0.492800
@<TRIPOS>BOND
     1    1    2 1   
     2    1   17 1   
     3    1   33 1   
     4    1   64 1   
     5    2    3 1   
     6    2   18 1   
     7    2   34 1   
     8    3    4 2   
     9    3   20 1   
    10    5    6 ar  
    11    5    7 ar  
    12    5   16 1   
    13    6    8 ar  
    14    6   35 1   
    15    7    9 ar  
    16    7   36 1   
    17    8   10 ar  
    18    8   37 1   
    19    9   10 ar  
    20    9   38 1   
    21   10   39 1   
    22   11   12 ar  
    23   11   13 ar  
    24   11   17 1   
    25   12   14 ar  
    26   12   40 1   
    27   13   15 ar  
    28   13   41 1   
    29   14   16 ar  
    30   14   42 1   
    31   15   16 ar  
    32   15   43 1   
    33   17   44 1   
    34   17   45 1   
    35   18   19 1   
    36   18   46 1   
    37   18   47 1   
    38   19   48 1   
    39   20   21 1   
    40   20   49 1   
    41   20   65 1   
    42   21   22 1   
    43   21   50 1   
    44   21   51 1   
    45   22   23 2   
    46   22   24 1   
    47   24   25 1   
    48   24   52 1   
    49   24   66 1   
    50   25   26 1   
    51   25   29 1   
    52   25   53 1   
    53   26   27 1   
    54   26   28 1   
    55   26   54 1   
    56   27   55 1   
    57   27   56 1   
    58   27   57 1   
    59   28   58 1   
    60   28   59 1   
    61   28   60 1   
    62   29   30 2   
    63   29   31 1   
    64   31   32 1   
    65   32   61 1   
    66   32   62 1   
    67   32   63 1   
@<TRIPOS>SUBSTRUCTURE
     1 TR1         1 TEMP              0 ****  ****    0 ROOT
