@<TRIPOS>MOLECULE
TR1
   66    67     1     0     0
SMALL
bcc


@<TRIPOS>ATOM
      1 N           0.4160   -0.1540   -0.1140 ny        1 TR1     -0.804000
      2 CA          1.8970    0.0580   -0.1170 c3        1 TR1      0.075500
      3 C           2.3460    0.8970    1.0860 c         1 TR1      0.526100
      4 O           1.6380    1.5690    1.8140 o         1 TR1     -0.362100
      5 C41        -5.7270   -2.0540    0.2600 cp        1 TR1     -0.121000
      6 C42        -6.5650   -1.9420    1.3840 ca        1 TR1     -0.090000
      7 C43        -6.2940   -2.3840   -0.9840 ca        1 TR1     -0.090000
      8 C44        -7.9340   -2.1580    1.2640 ca        1 TR1     -0.124000
      9 C45        -7.6660   -2.5890   -1.1000 ca        1 TR1     -0.124000
     10 C46        -8.4890   -2.4790    0.0230 ca        1 TR1     -0.069000
     11 C47        -1.5180   -1.4360    0.6370 ca        1 TR1     -0.262300
     12 C48        -2.0200   -2.3670   -0.2920 ca        1 TR1     -0.074000
     13 C49        -2.4180   -0.7060    1.4340 ca        1 TR1     -0.074000
     14 C50        -3.3860   -2.5650   -0.4140 ca        1 TR1     -0.133500
     15 C51        -3.7830   -0.9060    1.3100 ca        1 TR1     -0.133500
     16 C52        -4.2960   -1.8400    0.3840 cp        1 TR1      0.108000
     17 CM2        -0.0670   -1.2740    0.8110 c3        1 TR1      0.214100
     18 CB          2.3760    0.7380   -1.4100 c3        1 TR1     -0.079300
     19 SG          1.7840   -0.2490   -2.7490 sh        1 TR1     -0.269900
     20 N2          3.8330    0.8890    1.3750 ny        1 TR1     -0.669800
     21 CA2         4.2190    1.7980    2.5000 c3        1 TR1      0.056800
     22 C2          5.7280    2.0450    2.4990 c         1 TR1      0.539100
     23 O2          6.3960    2.1120    1.4760 o         1 TR1     -0.384100
     24 N3          6.4040    2.2460    3.8120 ny        1 TR1     -0.660800
     25 CA3         7.3990    1.1330    4.1380 c3        1 TR1      0.077500
     26 CB3         7.8330    1.2340    5.6200 c3        1 TR1     -0.070700
     27 CG1         6.7790    0.6870    6.5530 c3        1 TR1     -0.119100
     28 CG2         9.1580    0.5170    5.7980 c3        1 TR1     -0.119100
     29 C3          6.8080   -0.2200    3.7490 c         1 TR1      0.670100
     30 O3          5.7570   -0.3430    3.0820 o         1 TR1     -0.695000
     31 OE          7.5270   -1.2770    4.1120 os        1 TR1     -0.339900
     32 CM3         7.0650   -2.5940    3.7280 c3        1 TR1      0.120700
     33 HN         -0.0800    0.7130    0.1350 hn        1 TR1      0.481800
     34 HA          2.3740   -0.9740   -0.0490 hx        1 TR1      0.156700
     35 H42        -6.1380   -1.7040    2.3700 ha        1 TR1      0.134000
     36 H43        -5.6570   -2.4650   -1.8780 ha        1 TR1      0.134000
     37 H44        -8.5820   -2.0780    2.1510 ha        1 TR1      0.160000
     38 H45        -8.1030   -2.8400   -2.0790 ha        1 TR1      0.160000
     39 H46        -9.5750   -2.6480   -0.0700 ha        1 TR1      0.164000
     40 H48        -1.3270   -2.9620   -0.9080 ha        1 TR1      0.133500
     41 H49        -2.0400    0.0150    2.1750 ha        1 TR1      0.133500
     42 H50        -3.7690   -3.3150   -1.1280 ha        1 TR1      0.176000
     43 H51        -4.4820   -0.3280    1.9380 ha        1 TR1      0.176000
     44 HM21        0.2020   -0.9640    1.8580 hx        1 TR1      0.093200
     45 HM22        0.4950   -2.2070    0.5190 hx        1 TR1      0.093200
     46 HB1         2.0220    1.7970   -1.4780 h1        1 TR1      0.108200
     47 HB2         3.4950    0.7460   -1.4340 h1        1 TR1      0.108200
     48 HSG         1.5450    0.6960   -3.6700 hs        1 TR1      0.290800
     49 HN2         4.1350   -0.0750    1.6230 hn        1 TR1      0.500800
     50 HA21        3.6920    2.7970    2.3760 hx        1 TR1      0.164700
     51 HA22        3.8720    1.3170    3.4640 hx        1 TR1      0.164700
     52 HN3         6.9420    3.1320    3.7870 hn        1 TR1      0.492800
     53 HA3         8.3100    1.2980    3.4740 hx        1 TR1      0.168700
     54 HB3         8.0110    2.3250    5.8620 hc        1 TR1      0.086700
     55 HG11        6.5890   -0.3970    6.3530 hc        1 TR1      0.075367
     56 HG12        5.8190    1.2500    6.4700 hc        1 TR1      0.075367
     57 HG13        7.1370    0.7780    7.6130 hc        1 TR1      0.075367
     58 HG21        9.9410    0.9420    5.1240 hc        1 TR1      0.075367
     59 HG22        9.5000    0.6490    6.8580 hc        1 TR1      0.075367
     60 HG23        9.0610   -0.5790    5.6010 hc        1 TR1      0.075367
     61 HM31        7.8630   -3.2560    4.1610 h1        1 TR1      0.091700
     62 HM32        6.0670   -2.7850    4.1880 h1        1 TR1      0.091700
     63 HM33        7.0250   -2.6620    2.6160 h1        1 TR1      0.091700
     64 H2          0.1430   -0.4040   -1.0990 hn        1 TR1      0.481800
     65 H22         4.3430    1.1660    0.5180 hn        1 TR1      0.500800
     66 H32         5.7160    2.2990    4.5760 hn        1 TR1      0.492800
@<TRIPOS>BOND
     1    1    2 1   
     2    1   17 1   
     3    1   33 1   
     4    1   64 1   
     5    2    3 1   
     6    2   18 1   
     7    2   34 1   
     8    3    4 2   
     9    3   20 1   
    10    5    6 ar  
    11    5    7 ar  
    12    5   16 1   
    13    6    8 ar  
    14    6   35 1   
    15    7    9 ar  
    16    7   36 1   
    17    8   10 ar  
    18    8   37 1   
    19    9   10 ar  
    20    9   38 1   
    21   10   39 1   
    22   11   12 ar  
    23   11   13 ar  
    24   11   17 1   
    25   12   14 ar  
    26   12   40 1   
    27   13   15 ar  
    28   13   41 1   
    29   14   16 ar  
    30   14   42 1   
    31   15   16 ar  
    32   15   43 1   
    33   17   44 1   
    34   17   45 1   
    35   18   19 1   
    36   18   46 1   
    37   18   47 1   
    38   19   48 1   
    39   20   21 1   
    40   20   49 1   
    41   20   65 1   
    42   21   22 1   
    43   21   50 1   
    44   21   51 1   
    45   22   23 2   
    46   22   24 1   
    47   24   25 1   
    48   24   52 1   
    49   24   66 1   
    50   25   26 1   
    51   25   29 1   
    52   25   53 1   
    53   26   27 1   
    54   26   28 1   
    55   26   54 1   
    56   27   55 1   
    57   27   56 1   
    58   27   57 1   
    59   28   58 1   
    60   28   59 1   
    61   28   60 1   
    62   29   30 2   
    63   29   31 1   
    64   31   32 1   
    65   32   61 1   
    66   32   62 1   
    67   32   63 1   
@<TRIPOS>SUBSTRUCTURE
     1 TR1         1 TEMP              0 ****  ****    0 ROOT
