@<TRIPOS>MOLECULE
TR1
   63    57     1     0     0
SMALL
bcc


@<TRIPOS>ATOM
      1 N          -1.7080    1.1620   -0.8900 n3        1 TR1     -0.813200
      2 CA         -0.3080    1.1500   -0.9090 c3        1 TR1      0.113500
      3 C           0.2090    1.1540    0.5110 c         1 TR1      0.622100
      4 O          -0.5510    0.9430    1.4310 o         1 TR1     -0.611100
      5 C41        -7.9700   -0.2290   -1.2710 c1        1 TR1     -0.035500
      6 C42        -8.7270   -0.9900   -0.3880 c1        1 TR1     -0.067333
      7 C43        -8.6070    0.6140   -2.1930 c1        1 TR1     -0.062000
      8 C44       -10.1170   -0.9160   -0.4180 c1        1 TR1     -0.067333
      9 C45        -9.9950    0.6880   -2.2240 c1        1 TR1     -0.067333
     10 C46       -10.7540   -0.0730   -1.3400 c1        1 TR1     -0.067333
     11 C47        -3.7790   -0.1840   -1.0860 c1        1 TR1     -0.072100
     12 C48        -4.5050    0.8590   -0.5550 c1        1 TR1     -0.067333
     13 C49        -4.4350   -1.2620   -1.6650 c1        1 TR1     -0.058500
     14 C50        -5.9060    0.8330   -0.6000 c1        1 TR1     -0.067333
     15 C51        -5.8160   -1.2890   -1.7100 c1        1 TR1     -0.062000
     16 C52        -6.5520   -0.2300   -1.1720 c1        1 TR1     -0.035500
     17 CM2        -2.2110   -0.2060   -0.9350 c3        1 TR1      0.174900
     18 CB          0.2090    2.4010   -1.6540 c3        1 TR1      0.006700
     19 SG          0.0260    2.1660   -3.3840 sh        1 TR1     -0.375900
     20 N2          1.6160    1.3700    0.7710 n         1 TR1     -0.567900
     21 CA2         2.5140    0.2780    0.7470 c3        1 TR1      0.029000
     22 C2          3.8770    0.7220    1.3250 c         1 TR1      0.654100
     23 O2          3.9180    1.4610    2.3350 o         1 TR1     -0.589100
     24 N3          5.0920    0.2170    0.7610 n         1 TR1     -0.562900
     25 CA3         6.0400   -0.4710    1.6010 c3        1 TR1      0.065700
     26 CB3         6.2280   -1.9020    1.0950 c3        1 TR1     -0.072700
     27 CG1         7.6870   -2.3730    1.3930 c3        1 TR1     -0.094100
     28 CG2         5.2440   -2.8180    1.8000 c3        1 TR1     -0.094100
     29 C3          7.3450    0.2450    1.5710 c         1 TR1      0.605100
     30 O3          7.7770    0.6950    0.5060 o         1 TR1     -0.542000
     31 OE          8.1470    0.2890    2.7300 os        1 TR1     -0.426900
     32 CM3         9.3580    1.0220    2.5670 c3        1 TR1      0.122700
     33 HN         -1.9990    1.5710   -0.1150 hn        1 TR1      0.386800
     34 HA         -0.0010    0.3630   -1.3570 h1        1 TR1      0.081700
     35 H42        -8.2850   -1.5750    0.2520 ha        1 TR1      0.080667
     36 H43        -8.0510    1.1730   -2.8420 ha        1 TR1      0.078500
     37 H44       -10.6450   -1.4480    0.1990 ha        1 TR1      0.080667
     38 H45       -10.4290    1.2640   -2.8550 ha        1 TR1      0.080667
     39 H46       -11.6960   -0.0210   -1.3620 ha        1 TR1      0.080667
     40 H48        -4.0440    1.6150   -0.1480 ha        1 TR1      0.080667
     41 H49        -3.9050   -2.0240   -2.0520 ha        1 TR1      0.075500
     42 H50        -6.4190    1.5710   -0.2260 ha        1 TR1      0.080667
     43 H51        -6.2870   -2.0680   -2.1270 ha        1 TR1      0.078500
     44 HM21       -1.8060   -0.6860   -1.7180 h1        1 TR1      0.046700
     45 HM22       -1.9700   -0.6710   -0.1060 h1        1 TR1      0.046700
     46 HB1        -0.3080    3.1850   -1.3750 h1        1 TR1      0.085200
     47 HB2         1.1230    2.5350   -1.4500 h1        1 TR1      0.085200
     48 HSG        -0.4050    3.1450   -3.8670 hs        1 TR1      0.229800
     49 HN2         1.9400    2.2310    0.8800 hn        1 TR1      0.347500
     50 HA21        2.1370   -0.4840    1.3090 h1        1 TR1      0.063200
     51 HA22        2.6390   -0.0370   -0.2110 h1        1 TR1      0.063200
     52 HN3         5.3010    0.4030   -0.1030 hn        1 TR1      0.326500
     53 HA3         5.6910   -0.4940    2.5510 h1        1 TR1      0.124700
     54 HB3         6.0690   -1.9300    0.1390 hc        1 TR1      0.061700
     55 HG11        7.8830   -2.2640    2.3770 hc        1 TR1      0.043533
     56 HG12        7.7870   -3.3440    1.1360 hc        1 TR1      0.043533
     57 HG13        8.3270   -1.8240    0.8640 hc        1 TR1      0.043533
     58 HG21        4.4010   -2.3500    1.9250 hc        1 TR1      0.043533
     59 HG22        5.0890   -3.6480    1.2370 hc        1 TR1      0.043533
     60 HG23        5.6160   -3.0820    2.6950 hc        1 TR1      0.043533
     61 HM31        9.8480    0.6710    1.8090 h1        1 TR1      0.054033
     62 HM32        9.9060    0.9360    3.3780 h1        1 TR1      0.054033
     63 HM33        9.1500    1.9650    2.4130 h1        1 TR1      0.054033
@<TRIPOS>BOND
     1    1    2 1   
     2    1   17 1   
     3    1   33 1   
     4    2    3 1   
     5    2   18 1   
     6    2   34 1   
     7    3    4 2   
     8    3   20 1   
     9    5    7 3   
    10    6    8 3   
    11    6   35 1   
    12    7   36 1   
    13    8   37 1   
    14    9   10 3   
    15    9   38 1   
    16   10   39 1   
    17   11   13 3   
    18   11   17 1   
    19   12   14 3   
    20   12   40 1   
    21   13   41 1   
    22   14   42 1   
    23   15   16 3   
    24   15   43 1   
    25   17   44 1   
    26   17   45 1   
    27   18   19 1   
    28   18   46 1   
    29   18   47 1   
    30   19   48 1   
    31   20   21 1   
    32   20   49 1   
    33   21   22 1   
    34   21   50 1   
    35   21   51 1   
    36   22   23 2   
    37   22   24 1   
    38   24   25 1   
    39   24   52 1   
    40   25   26 1   
    41   25   29 1   
    42   25   53 1   
    43   26   27 1   
    44   26   28 1   
    45   26   54 1   
    46   27   55 1   
    47   27   56 1   
    48   27   57 1   
    49   28   58 1   
    50   28   59 1   
    51   28   60 1   
    52   29   30 2   
    53   29   31 1   
    54   31   32 1   
    55   32   61 1   
    56   32   62 1   
    57   32   63 1   
@<TRIPOS>SUBSTRUCTURE
     1 TR1         1 TEMP              0 ****  ****    0 ROOT
