@<TRIPOS>MOLECULE
TR1
   63    64     1     0     0
SMALL
bcc


@<TRIPOS>ATOM
      1 N          -1.1640    0.9160   -1.5630 n3        1 TR1     -0.797200
      2 CA         -1.2920    1.3690   -0.1930 c3        1 TR1      0.131500
      3 C          -0.1660    0.8590    0.7460 c         1 TR1      0.603100
      4 O           0.4780   -0.1760    0.4920 o         1 TR1     -0.597100
      5 C41         0.8030   -0.6920   -7.5360 cp        1 TR1     -0.038000
      6 C42         2.0190   -0.4790   -8.2010 ca        1 TR1     -0.118500
      7 C43        -0.2020   -1.4350   -8.1710 ca        1 TR1     -0.118500
      8 C44         2.2230   -1.0000   -9.4770 ca        1 TR1     -0.131000
      9 C45         0.0080   -1.9570   -9.4460 ca        1 TR1     -0.131000
     10 C46         1.2190   -1.7400  -10.1020 ca        1 TR1     -0.128000
     11 C47         0.1710    0.9080   -3.6280 ca        1 TR1     -0.093300
     12 C48        -0.8580    0.9370   -4.5760 ca        1 TR1     -0.113000
     13 C49         1.4050    0.3460   -3.9680 ca        1 TR1     -0.113000
     14 C50        -0.6520    0.4130   -5.8490 ca        1 TR1     -0.123500
     15 C51         1.6130   -0.1720   -5.2430 ca        1 TR1     -0.123500
     16 C52         0.5860   -0.1450   -6.1980 cp        1 TR1     -0.033000
     17 CM2        -0.0360    1.5040   -2.2670 c3        1 TR1      0.206100
     18 CB         -2.6170    0.9310    0.4410 c3        1 TR1     -0.002300
     19 SG         -3.8900    2.0000   -0.1710 sh        1 TR1     -0.344900
     20 N2          0.1340    1.6480    1.8530 n         1 TR1     -0.528900
     21 CA2         0.9250    1.1270    2.9290 c3        1 TR1      0.006000
     22 C2          0.0910    0.6530    4.1340 c         1 TR1      0.634100
     23 O2         -1.1170    0.9410    4.2510 o         1 TR1     -0.618100
     24 N3          0.7530   -0.1010    5.0780 n         1 TR1     -0.560900
     25 CA3         0.1300   -0.5470    6.2970 c3        1 TR1      0.065700
     26 CB3         0.1450   -2.0870    6.4610 c3        1 TR1     -0.071700
     27 CG1         1.5460   -2.6560    6.4570 c3        1 TR1     -0.101100
     28 CG2        -0.5940   -2.4680    7.7260 c3        1 TR1     -0.101100
     29 C3          0.8140    0.0940    7.5040 c         1 TR1      0.612100
     30 O3          2.0160    0.2980    7.6890 o         1 TR1     -0.544000
     31 OE         -0.0720    0.4830    8.4660 os        1 TR1     -0.429900
     32 CM3         0.4740    1.0930    9.6370 c3        1 TR1      0.123700
     33 HN         -1.1260   -0.0870   -1.6020 hn        1 TR1      0.382800
     34 HA         -1.2610    2.5020   -0.2130 h1        1 TR1      0.094700
     35 H42         2.8120    0.1090   -7.7150 ha        1 TR1      0.135000
     36 H43        -1.1570   -1.6130   -7.6540 ha        1 TR1      0.135000
     37 H44         3.1790   -0.8250   -9.9930 ha        1 TR1      0.131500
     38 H45        -0.7850   -2.5420   -9.9340 ha        1 TR1      0.131500
     39 H46         1.3820   -2.1510  -11.1090 ha        1 TR1      0.131000
     40 H48        -1.8320    1.3740   -4.3090 ha        1 TR1      0.142000
     41 H49         2.2170    0.3090   -3.2250 ha        1 TR1      0.142000
     42 H50        -1.4650    0.4440   -6.5910 ha        1 TR1      0.135500
     43 H51         2.5860   -0.6160   -5.5020 ha        1 TR1      0.135500
     44 HM21       -0.2520    2.6060   -2.3890 h1        1 TR1      0.045200
     45 HM22        0.9210    1.4090   -1.6700 h1        1 TR1      0.045200
     46 HB1        -2.8500   -0.1330    0.1940 h1        1 TR1      0.077700
     47 HB2        -2.5520    1.0140    1.5540 h1        1 TR1      0.077700
     48 HSG        -4.8030    1.7670    0.7560 hs        1 TR1      0.194800
     49 HN2        -0.5600    2.3120    2.1280 hn        1 TR1      0.315500
     50 HA21        1.6020    1.9510    3.2990 h1        1 TR1      0.092200
     51 HA22        1.5600    0.2770    2.5430 h1        1 TR1      0.092200
     52 HN3         1.7230   -0.2890    4.9760 hn        1 TR1      0.328500
     53 HA3        -0.9540   -0.2080    6.2930 h1        1 TR1      0.121700
     54 HB3        -0.4180   -2.5150    5.5820 hc        1 TR1      0.067700
     55 HG11        1.5220   -3.7330    6.7520 hc        1 TR1      0.044533
     56 HG12        2.0010   -2.5870    5.4390 hc        1 TR1      0.044533
     57 HG13        2.2010   -2.1050    7.1760 hc        1 TR1      0.044533
     58 HG21       -0.0640   -2.0720    8.6270 hc        1 TR1      0.044533
     59 HG22       -1.6290   -2.0500    7.7170 hc        1 TR1      0.044533
     60 HG23       -0.6570   -3.5800    7.8100 hc        1 TR1      0.044533
     61 HM31       -0.4270    1.3350   10.2520 h1        1 TR1      0.052700
     62 HM32        1.1480    0.3720   10.1600 h1        1 TR1      0.052700
     63 HM33        1.0410    2.0140    9.3580 h1        1 TR1      0.052700
@<TRIPOS>BOND
     1    1    2 1   
     2    1   17 1   
     3    1   33 1   
     4    2    3 1   
     5    2   18 1   
     6    2   34 1   
     7    3    4 2   
     8    3   20 1   
     9    5    6 ar  
    10    5    7 ar  
    11    5   16 1   
    12    6    8 ar  
    13    6   35 1   
    14    7    9 ar  
    15    7   36 1   
    16    8   10 ar  
    17    8   37 1   
    18    9   10 ar  
    19    9   38 1   
    20   10   39 1   
    21   11   12 ar  
    22   11   13 ar  
    23   11   17 1   
    24   12   14 ar  
    25   12   40 1   
    26   13   15 ar  
    27   13   41 1   
    28   14   16 ar  
    29   14   42 1   
    30   15   16 ar  
    31   15   43 1   
    32   17   44 1   
    33   17   45 1   
    34   18   19 1   
    35   18   46 1   
    36   18   47 1   
    37   19   48 1   
    38   20   21 1   
    39   20   49 1   
    40   21   22 1   
    41   21   50 1   
    42   21   51 1   
    43   22   23 2   
    44   22   24 1   
    45   24   25 1   
    46   24   52 1   
    47   25   26 1   
    48   25   29 1   
    49   25   53 1   
    50   26   27 1   
    51   26   28 1   
    52   26   54 1   
    53   27   55 1   
    54   27   56 1   
    55   27   57 1   
    56   28   58 1   
    57   28   59 1   
    58   28   60 1   
    59   29   30 2   
    60   29   31 1   
    61   31   32 1   
    62   32   61 1   
    63   32   62 1   
    64   32   63 1   
@<TRIPOS>SUBSTRUCTURE
     1 TR1         1 TEMP              0 ****  ****    0 ROOT
