@<TRIPOS>MOLECULE
TR1
   66    67     1     0     0
SMALL
bcc


@<TRIPOS>ATOM
      1 N           0.4310   -0.1880   -0.1290 n4        1 TR1     -0.804000
      2 CA          1.9130    0.0140   -0.1270 c3        1 TR1      0.075500
      3 C           2.3600    0.8750    1.0610 c         1 TR1      0.526100
      4 O           1.6520    1.5680    1.7690 o         1 TR1     -0.362100
      5 C41        -5.7280   -2.0370    0.2510 cp        1 TR1     -0.121000
      6 C42        -6.5710   -1.8950    1.3670 ca        1 TR1     -0.090000
      7 C43        -6.2900   -2.3880   -0.9900 ca        1 TR1     -0.090000
      8 C44        -7.9410   -2.1040    1.2440 ca        1 TR1     -0.124000
      9 C45        -7.6630   -2.5860   -1.1080 ca        1 TR1     -0.124000
     10 C46        -8.4920   -2.4470    0.0080 ca        1 TR1     -0.069000
     11 C47        -1.5170   -1.4410    0.6380 ca        1 TR1     -0.262300
     12 C48        -2.0200   -2.3870   -0.2750 ca        1 TR1     -0.074000
     13 C49        -2.4160   -0.6880    1.4150 ca        1 TR1     -0.074000
     14 C50        -3.3870   -2.5770   -0.4000 ca        1 TR1     -0.133500
     15 C51        -3.7820   -0.8800    1.2870 ca        1 TR1     -0.133500
     16 C52        -4.2960   -1.8300    0.3780 cp        1 TR1      0.108000
     17 CM2        -0.0660   -1.2860    0.8170 c3        1 TR1      0.214100
     18 CB          2.4050    0.6630   -1.4310 c3        1 TR1     -0.079300
     19 SG          1.8140   -0.3490   -2.7520 sh        1 TR1     -0.269900
     20 N2          3.8450    0.8630    1.3600 n4        1 TR1     -0.669800
     21 CA2         4.2300    1.7940    2.4670 c3        1 TR1      0.056800
     22 C2          5.7410    2.0300    2.4710 c         1 TR1      0.539100
     23 O2          6.4160    2.0690    1.4520 o         1 TR1     -0.384100
     24 N3          6.4100    2.2550    3.7850 n4        1 TR1     -0.660800
     25 CA3         7.3930    1.1410    4.1430 c3        1 TR1      0.077500
     26 CB3         7.8170    1.2730    5.6260 c3        1 TR1     -0.070700
     27 CG1         6.7520    0.7560    6.5630 c3        1 TR1     -0.119100
     28 CG2         9.1350    0.5500    5.8300 c3        1 TR1     -0.119100
     29 C3          6.7940   -0.2150    3.7800 c         1 TR1      0.670100
     30 O3          5.7470   -0.3440    3.1090 o         1 TR1     -0.695000
     31 OE          7.5020   -1.2690    4.1730 os        1 TR1     -0.339900
     32 CM3         7.0320   -2.5910    3.8150 c3        1 TR1      0.120700
     33 HN         -0.0610    0.6870    0.0990 hn        1 TR1      0.481800
     34 HA          2.3820   -1.0190   -0.0340 hx        1 TR1      0.156700
     35 H42        -6.1480   -1.6400    2.3510 ha        1 TR1      0.134000
     36 H43        -5.6500   -2.4920   -1.8780 ha        1 TR1      0.134000
     37 H44        -8.5940   -2.0010    2.1270 ha        1 TR1      0.160000
     38 H45        -8.0970   -2.8540   -2.0850 ha        1 TR1      0.160000
     39 H46        -9.5780   -2.6100   -0.0880 ha        1 TR1      0.164000
     40 H48        -1.3290   -3.0000   -0.8740 ha        1 TR1      0.133500
     41 H49        -2.0370    0.0460    2.1430 ha        1 TR1      0.133500
     42 H50        -3.7720   -3.3400   -1.1000 ha        1 TR1      0.176000
     43 H51        -4.4800   -0.2850    1.9000 ha        1 TR1      0.176000
     44 HM21        0.4910   -2.2280    0.5480 hx        1 TR1      0.093200
     45 HM22        0.2000   -0.9550    1.8590 hx        1 TR1      0.093200
     46 HB1         2.0580    1.7220   -1.5240 h1        1 TR1      0.108200
     47 HB2         3.5240    0.6630   -1.4470 h1        1 TR1      0.108200
     48 HSG         1.5880    0.5770   -3.6950 hs        1 TR1      0.290800
     49 HN2         4.1380   -0.0970    1.6320 hn        1 TR1      0.500800
     50 HA21        3.8720    1.3380    3.4400 hx        1 TR1      0.164700
     51 HA22        3.7120    2.7940    2.3170 hx        1 TR1      0.164700
     52 HN3         5.7160    2.3300    4.5430 hn        1 TR1      0.492800
     53 HA3         8.3100    1.2850    3.4820 hx        1 TR1      0.168700
     54 HB3         8.0020    2.3670    5.8440 hc        1 TR1      0.086700
     55 HG11        6.5550   -0.3310    6.3860 hc        1 TR1      0.075367
     56 HG12        5.7970    1.3240    6.4600 hc        1 TR1      0.075367
     57 HG13        7.1040    0.8670    7.6230 hc        1 TR1      0.075367
     58 HG21        9.4710    0.7030    6.8880 hc        1 TR1      0.075367
     59 HG22        9.0310   -0.5490    5.6570 hc        1 TR1      0.075367
     60 HG23        9.9260    0.9540    5.1520 hc        1 TR1      0.075367
     61 HM31        6.0300   -2.7630    4.2720 h1        1 TR1      0.091700
     62 HM32        7.8220   -3.2480    4.2680 h1        1 TR1      0.091700
     63 HM33        7.0000   -2.6830    2.7040 h1        1 TR1      0.091700
     64 H2          0.1620   -0.4570   -1.1100 hn        1 TR1      0.481800
     65 H22         4.3630    1.1180    0.5010 hn        1 TR1      0.500800
     66 H32         6.9540    3.1360    3.7440 hn        1 TR1      0.492800
@<TRIPOS>BOND
     1    1    2 1   
     2    1   17 1   
     3    1   33 1   
     4    1   64 1   
     5    2    3 1   
     6    2   18 1   
     7    2   34 1   
     8    3    4 2   
     9    3   20 1   
    10    5    6 ar  
    11    5    7 ar  
    12    5   16 1   
    13    6    8 ar  
    14    6   35 1   
    15    7    9 ar  
    16    7   36 1   
    17    8   10 ar  
    18    8   37 1   
    19    9   10 ar  
    20    9   38 1   
    21   10   39 1   
    22   11   12 ar  
    23   11   13 ar  
    24   11   17 1   
    25   12   14 ar  
    26   12   40 1   
    27   13   15 ar  
    28   13   41 1   
    29   14   16 ar  
    30   14   42 1   
    31   15   16 ar  
    32   15   43 1   
    33   17   44 1   
    34   17   45 1   
    35   18   19 1   
    36   18   46 1   
    37   18   47 1   
    38   19   48 1   
    39   20   21 1   
    40   20   49 1   
    41   20   65 1   
    42   21   22 1   
    43   21   50 1   
    44   21   51 1   
    45   22   23 2   
    46   22   24 1   
    47   24   25 1   
    48   24   52 1   
    49   24   66 1   
    50   25   26 1   
    51   25   29 1   
    52   25   53 1   
    53   26   27 1   
    54   26   28 1   
    55   26   54 1   
    56   27   55 1   
    57   27   56 1   
    58   27   57 1   
    59   28   58 1   
    60   28   59 1   
    61   28   60 1   
    62   29   30 2   
    63   29   31 1   
    64   31   32 1   
    65   32   61 1   
    66   32   62 1   
    67   32   63 1   
@<TRIPOS>SUBSTRUCTURE
     1 TR1         1 TEMP              0 ****  ****    0 ROOT
