@<TRIPOS>MOLECULE
TR2
   15    16     1     0     0
SMALL
bcc


@<TRIPOS>ATOM
      1 C10        -0.0870   -0.0890   -0.0490 ca        1 TR2     -0.238400
      2 O01         1.9270   -0.2500   -1.3060 oh        1 TR2     -0.491100
      3 C02         1.3220   -0.1570   -0.0780 ca        1 TR2      0.203100
      4 C03         2.0280   -0.1280    1.1220 ca        1 TR2     -0.341300
      5 C04         1.2990   -0.0290    2.3340 ca        1 TR2      0.434200
      6 N05        -0.0300    0.0380    2.4190 nb        1 TR2     -0.653000
      7 C06        -0.7150    0.0090    1.2410 ca        1 TR2      0.442100
      8 C07        -2.1570    0.0690    1.0950 cc        1 TR2     -0.242800
      9 C08        -2.5260    0.0180   -0.2200 cd        1 TR2     -0.160400
     10 S09        -1.2290   -0.0990   -1.2790 ss        1 TR2      0.105500
     11 HO01        2.8850   -0.2880   -1.1660 ho        1 TR2      0.429000
     12 H03         3.1230   -0.1780    1.1420 ha        1 TR2      0.145000
     13 H04         1.8430   -0.0050    3.2970 h4        1 TR2      0.024100
     14 H07        -2.8280    0.1460    1.9540 ha        1 TR2      0.171000
     15 H08        -3.5540    0.0470   -0.5850 h4        1 TR2      0.174000
@<TRIPOS>BOND
     1    1    3 ar  
     2    1    7 ar  
     3    1   10 1   
     4    2    3 1   
     5    2   11 1   
     6    3    4 ar  
     7    4    5 ar  
     8    4   12 1   
     9    5    6 ar  
    10    5   13 1   
    11    6    7 ar  
    12    7    8 1   
    13    8    9 2   
    14    8   14 1   
    15    9   10 1   
    16    9   15 1   
@<TRIPOS>SUBSTRUCTURE
     1 TR2         1 TEMP              0 ****  ****    0 ROOT
