@<TRIPOS>MOLECULE
TR2
   15    16     1     0     0
SMALL
bcc


@<TRIPOS>ATOM
      1 C10         0.1630   -0.3010    0.0750 ca        1 TR2     -0.238400
      2 O01        -1.1760   -2.2630    0.2160 oh        1 TR2     -0.491100
      3 C02        -1.1160   -0.8950    0.1400 ca        1 TR2      0.203100
      4 C03        -2.2440   -0.0790    0.1230 ca        1 TR2     -0.341300
      5 C04        -2.0630    1.3250    0.0410 ca        1 TR2      0.434200
      6 N05        -0.8810    1.9370   -0.0220 nb        1 TR2     -0.653000
      7 C06         0.2200    1.1330   -0.0050 ca        1 TR2      0.442100
      8 C07         1.5990    1.5790   -0.0640 cc        1 TR2     -0.242800
      9 C08         2.4650    0.5220   -0.0270 cd        1 TR2     -0.160400
     10 S09         1.7030   -0.9700    0.0740 ss        1 TR2      0.105500
     11 HO01       -2.1100   -2.5200    0.2540 ho        1 TR2      0.429000
     12 H03        -3.2550   -0.5020    0.1710 ha        1 TR2      0.145000
     13 H04        -2.9480    1.9880    0.0260 h4        1 TR2      0.024100
     14 H07         1.8680    2.6360   -0.1280 ha        1 TR2      0.171000
     15 H08         3.5530    0.6020   -0.0580 h4        1 TR2      0.174000
@<TRIPOS>BOND
     1    1    3 ar  
     2    1    7 ar  
     3    1   10 1   
     4    2    3 1   
     5    2   11 1   
     6    3    4 ar  
     7    4    5 ar  
     8    4   12 1   
     9    5    6 ar  
    10    5   13 1   
    11    6    7 ar  
    12    7    8 1   
    13    8    9 2   
    14    8   14 1   
    15    9   10 1   
    16    9   15 1   
@<TRIPOS>SUBSTRUCTURE
     1 TR2         1 TEMP              0 ****  ****    0 ROOT
