@<TRIPOS>MOLECULE
TR2
   15    16     1     0     0
SMALL
bcc


@<TRIPOS>ATOM
      1 C10         0.0310   -0.1060    0.0010 ca        1 TR2     -0.275400
      2 O01         2.2190   -0.1660   -1.1040 oh        1 TR2     -0.484100
      3 C02         1.4400   -0.0940    0.0220 ca        1 TR2      0.198100
      4 C03         2.1000   -0.0040    1.2490 ca        1 TR2     -0.279300
      5 C04         1.3200    0.0720    2.4270 ca        1 TR2      0.428200
      6 N05        -0.0160    0.0650    2.4620 nb        1 TR2     -0.655000
      7 C06        -0.6510   -0.0240    1.2630 ca        1 TR2      0.452100
      8 C07        -2.0910   -0.0480    1.0650 cc        1 TR2     -0.236800
      9 C08        -2.4140   -0.1430   -0.2570 cd        1 TR2     -0.131400
     10 S09        -1.0690   -0.2030   -1.2730 ss        1 TR2      0.019500
     11 HO01        1.6350   -0.2240   -1.8750 ho        1 TR2      0.425000
     12 H03         3.1960    0.0080    1.2940 ha        1 TR2      0.162000
     13 H04         1.8220    0.1440    3.4100 h4        1 TR2      0.026100
     14 H07        -2.7930    0.0040    1.9010 ha        1 TR2      0.174000
     15 H08        -3.4250   -0.1790   -0.6640 h4        1 TR2      0.176000
@<TRIPOS>BOND
     1    1    3 ar  
     2    1    7 ar  
     3    1   10 1   
     4    2    3 1   
     5    2   11 1   
     6    3    4 ar  
     7    4    5 ar  
     8    4   12 1   
     9    5    6 ar  
    10    5   13 1   
    11    6    7 ar  
    12    7    8 1   
    13    8    9 2   
    14    8   14 1   
    15    9   10 1   
    16    9   15 1   
@<TRIPOS>SUBSTRUCTURE
     1 TR2         1 TEMP              0 ****  ****    0 ROOT
