@<TRIPOS>MOLECULE
TR3
   49    52     1     0     0
SMALL
bcc


@<TRIPOS>ATOM
      1 C1         -0.6830    0.0620    0.5480 ca        1 TR3     -0.173000
      2 C2          0.6130   -0.4140    0.3990 ca        1 TR3     -0.016000
      3 C3          1.4540   -0.4390    1.5040 ca        1 TR3     -0.166900
      4 C4          0.9860    0.0360    2.7920 ca        1 TR3     -0.027200
      5 C5         -0.3220    0.5150    2.9520 ca        1 TR3     -0.109000
      6 C6         -1.1340    0.5150    1.8130 ca        1 TR3     -0.027400
      7 N10         3.1290   -0.6590    3.0660 nc        1 TR3     -0.483100
      8 N11         2.0530   -0.1260    3.6860 na        1 TR3      0.192800
      9 C12         2.8300   -0.8660    1.7570 cd        1 TR3      0.324800
     10 C13         2.0120    0.9210    7.7790 ca        1 TR3     -0.110000
     11 C14         2.5740   -0.2890    7.3730 ca        1 TR3     -0.113000
     12 C15         2.5940   -0.6470    6.0260 ca        1 TR3     -0.124500
     13 C16         2.0410    0.2270    5.0700 ca        1 TR3     -0.003200
     14 C17         1.4870    1.4570    5.4780 ca        1 TR3     -0.124500
     15 C18         1.4730    1.7890    6.8290 ca        1 TR3     -0.113000
     16 S24         3.8170   -1.4980    0.5710 ss        1 TR3     -0.058300
     17 C25         5.3510   -1.8140    1.3490 c3        1 TR3     -0.075000
     18 C26        -3.3540    0.2190    2.8910 c         1 TR3      0.559100
     19 N27        -2.5060    1.0300    1.9230 n4        1 TR3     -0.549200
     20 O28        -3.2300    0.5190    4.0670 o         1 TR3     -0.416100
     21 C30        -4.4830   -2.8890    0.9070 c3        1 TR3      0.164800
     22 C31        -3.5040   -1.8800    1.5160 c3        1 TR3     -0.084400
     23 C32        -4.2700   -0.8210    2.2960 c3        1 TR3     -0.132700
     24 C33        -5.3550   -0.1700    1.4460 c3        1 TR3     -0.084400
     25 C34        -6.2630   -1.2520    0.8510 c3        1 TR3      0.164800
     26 N35        -5.5080   -2.2440    0.1130 n3        1 TR3     -0.833200
     27 H1         -1.3470    0.0850   -0.3300 ha        1 TR3      0.153000
     28 H2          0.9670   -0.7680   -0.5850 ha        1 TR3      0.177000
     29 H5         -0.6800    0.8570    3.9370 ha        1 TR3      0.176000
     30 H13         2.0020    1.1950    8.8450 ha        1 TR3      0.152000
     31 H14         3.0100   -0.9720    8.1200 ha        1 TR3      0.150000
     32 H15         3.0510   -1.6020    5.7220 ha        1 TR3      0.147500
     33 H17         1.0850    2.1660    4.7380 ha        1 TR3      0.147500
     34 H18         1.0420    2.7520    7.1460 ha        1 TR3      0.150000
     35 H25         6.0050   -2.2200    0.5400 h1        1 TR3      0.086700
     36 H25A        5.8180   -0.8930    1.7660 h1        1 TR3      0.086700
     37 H25B        5.2700   -2.5680    2.1640 h1        1 TR3      0.086700
     38 HN27       -2.9450    1.0150    0.9950 hn        1 TR3      0.462800
     39 H30        -4.9130   -3.5110    1.7460 h1        1 TR3      0.054700
     40 H30A       -3.9070   -3.5790    0.2270 h1        1 TR3      0.054700
     41 H31        -2.8970   -1.4100    0.6990 hc        1 TR3      0.059950
     42 H31A       -2.8040   -2.4290    2.1980 hc        1 TR3      0.059950
     43 H32        -4.7680   -1.3240    3.1820 hc        1 TR3      0.124700
     44 H33        -5.9800    0.5150    2.0750 hc        1 TR3      0.059950
     45 H33A       -4.9090    0.4280    0.6110 hc        1 TR3      0.059950
     46 H34        -6.8670   -1.7040    1.6920 h1        1 TR3      0.054700
     47 H34A       -6.9810   -0.7620    0.1340 h1        1 TR3      0.054700
     48 HN35       -6.1200   -2.9230   -0.3010 hn        1 TR3      0.395800
     49 H272       -2.4530    2.0020    2.2560 hn        1 TR3      0.462800
@<TRIPOS>BOND
     1    1    2 ar  
     2    1    6 ar  
     3    1   27 1   
     4    2    3 ar  
     5    2   28 1   
     6    3    4 ar  
     7    3    9 1   
     8    4    5 ar  
     9    4    8 1   
    10    5    6 ar  
    11    5   29 1   
    12    6   19 1   
    13    7    8 1   
    14    7    9 2   
    15    8   13 1   
    16    9   16 1   
    17   10   11 ar  
    18   10   15 ar  
    19   10   30 1   
    20   11   12 ar  
    21   11   31 1   
    22   12   13 ar  
    23   12   32 1   
    24   13   14 ar  
    25   14   15 ar  
    26   14   33 1   
    27   15   34 1   
    28   16   17 1   
    29   17   35 1   
    30   17   36 1   
    31   17   37 1   
    32   18   19 1   
    33   18   20 2   
    34   18   23 1   
    35   19   38 1   
    36   19   49 1   
    37   21   22 1   
    38   21   26 1   
    39   21   39 1   
    40   21   40 1   
    41   22   23 1   
    42   22   41 1   
    43   22   42 1   
    44   23   24 1   
    45   23   43 1   
    46   24   25 1   
    47   24   44 1   
    48   24   45 1   
    49   25   26 1   
    50   25   46 1   
    51   25   47 1   
    52   26   48 1   
@<TRIPOS>SUBSTRUCTURE
     1 TR3         1 TEMP              0 ****  ****    0 ROOT
