@<TRIPOS>MOLECULE
TR3
   48    41     1     0     0
SMALL
bcc


@<TRIPOS>ATOM
      1 C1          0.8090    0.1200   -2.1150 c1        1 TR3     -0.186000
      2 C2          2.1780    0.1940   -2.0670 c1        1 TR3     -0.125000
      3 C3          2.8420    0.3110   -0.8050 c1        1 TR3     -0.043500
      4 C4          2.1090    0.3480    0.3470 c1        1 TR3     -0.043500
      5 C5          0.6970    0.2710    0.2910 c1        1 TR3     -0.125000
      6 C6          0.0590    0.1580   -0.9220 c1        1 TR3      0.120000
      7 N10         4.2670    0.4220    0.9000 n2        1 TR3     -0.056000
      8 N11         2.9840    0.4160    1.4060 n2        1 TR3     -0.120000
      9 C12         4.1870    0.3570   -0.4560 c1        1 TR3     -0.259000
     10 C13         3.1550   -0.2350    5.4600 c1        1 TR3     -0.124250
     11 C14         3.2520   -1.3070    4.5790 c1        1 TR3     -0.124250
     12 C15         3.1830   -1.0900    3.2260 c1        1 TR3     -0.124250
     13 C16         3.0170    0.1980    2.7390 c1        1 TR3      0.084000
     14 C17         2.9210    1.2640    3.6160 c1        1 TR3     -0.154000
     15 C18         2.9890    1.0470    4.9720 c1        1 TR3     -0.124250
     16 S24         5.4170   -0.0500   -1.6900 s         1 TR3      0.315000
     17 C25         6.8950    0.8490   -1.3690 c3        1 TR3     -0.371000
     18 C26        -2.2250   -0.3160   -1.6240 c1        1 TR3      0.313000
     19 N27        -1.3000    0.3380   -0.7470 n2        1 TR3     -0.329000
     20 O28        -1.8000   -1.0490   -2.5490 o         1 TR3     -0.339000
     21 C30        -5.9770   -1.4880   -1.2210 c3        1 TR3     -0.072500
     22 C31        -4.4560   -1.5710   -1.3720 c3        1 TR3     -0.151500
     23 C32        -3.7800   -0.2030   -1.3550 c3        1 TR3     -0.124000
     24 C33        -4.4530    0.6820   -2.3510 c3        1 TR3     -0.151500
     25 C34        -5.9810    0.7160   -2.1800 c3        1 TR3     -0.072500
     26 N35        -6.5790   -0.6090   -2.1540 n3        1 TR3     -0.300000
     27 H1          0.3650    0.0420   -2.9530 ha        1 TR3      0.177000
     28 H2          2.6910    0.1680   -2.8830 ha        1 TR3      0.145000
     29 H5          0.1900    0.2970    1.0920 ha        1 TR3      0.145000
     30 H13         3.2010   -0.3810    6.3740 ha        1 TR3      0.140000
     31 H14         3.3740   -2.2580    4.9390 ha        1 TR3      0.140000
     32 H15         3.2480   -1.8070    2.6340 ha        1 TR3      0.140000
     33 H17         2.8000    2.1970    3.2620 ha        1 TR3      0.145000
     34 H18         2.9230    1.7810    5.5740 ha        1 TR3      0.140000
     35 H25         7.3950    0.4130   -0.6340 h1        1 TR3      0.113667
     36 H25A        7.4400    0.8680   -2.1620 h1        1 TR3      0.113667
     37 H25B        6.6680    1.7630   -1.1120 h1        1 TR3      0.113667
     38 HN27       -1.6200    0.8410   -0.0170 hn        1 TR3      0.229000
     39 H30        -6.1740   -1.1860   -0.3590 h1        1 TR3      0.069250
     40 H30A       -6.3550   -2.3770   -1.3380 h1        1 TR3      0.069250
     41 H31        -4.0860   -2.1210   -0.6240 hc        1 TR3      0.101500
     42 H31A       -4.2540   -2.0030   -2.2030 hc        1 TR3      0.101500
     43 H32        -3.7930    0.1900   -0.4660 hc        1 TR3      0.102000
     44 H33        -4.2430    0.3690   -3.2470 hc        1 TR3      0.101500
     45 H33A       -4.1010    1.6000   -2.2440 hc        1 TR3      0.101500
     46 H34        -6.1950    1.1750   -1.3370 h1        1 TR3      0.069250
     47 H34A       -6.3510    1.1970   -2.8860 h1        1 TR3      0.069250
     48 HN35       -7.5350   -0.5390   -1.9690 hn        1 TR3      0.162000
@<TRIPOS>BOND
     1    1    6 1   
     2    1   27 1   
     3    2    3 1   
     4    2   28 1   
     5    4    5 1   
     6    5   29 1   
     7    6   19 1   
     8    7    8 1   
     9    7    9 1   
    10    8   13 1   
    11   10   15 1   
    12   10   30 1   
    13   11   12 1   
    14   11   31 1   
    15   12   32 1   
    16   13   14 1   
    17   14   33 1   
    18   15   34 1   
    19   16   17 1   
    20   17   35 1   
    21   17   36 1   
    22   17   37 1   
    23   18   20 1   
    24   18   23 1   
    25   19   38 1   
    26   21   22 1   
    27   21   26 1   
    28   21   39 1   
    29   21   40 1   
    30   22   23 1   
    31   22   41 1   
    32   22   42 1   
    33   23   24 1   
    34   23   43 1   
    35   24   25 1   
    36   24   44 1   
    37   24   45 1   
    38   25   26 1   
    39   25   46 1   
    40   25   47 1   
    41   26   48 1   
@<TRIPOS>SUBSTRUCTURE
     1 TR3         1 TEMP              0 ****  ****    0 ROOT
