@<TRIPOS>MOLECULE
TR3
   48    51     1     0     0
SMALL
bcc


@<TRIPOS>ATOM
      1 C1          0.0320    0.0490    0.0330 ca        1 TR3     -0.212000
      2 C2          1.3990    0.2560    0.0070 ca        1 TR3     -0.031000
      3 C3          2.1130    0.1950    1.1990 ca        1 TR3     -0.221900
      4 C4          1.4220   -0.0810    2.4340 ca        1 TR3      0.000800
      5 C5          0.0410   -0.3120    2.4650 ca        1 TR3     -0.175000
      6 C6         -0.6610   -0.2360    1.2520 ca        1 TR3      0.100600
      7 N10         3.6350    0.1620    2.9250 nc        1 TR3     -0.519100
      8 N11         2.4080   -0.0860    3.4430 na        1 TR3      0.157800
      9 C12         3.5150    0.3380    1.5880 cd        1 TR3      0.331800
     10 C13         1.7320   -0.6600    7.5740 ca        1 TR3     -0.137000
     11 C14         2.8780   -1.1790    6.9740 ca        1 TR3     -0.118000
     12 C15         3.1130   -0.9960    5.6130 ca        1 TR3     -0.133000
     13 C16         2.1830   -0.2750    4.8350 ca        1 TR3      0.032800
     14 C17         1.0340    0.2640    5.4490 ca        1 TR3     -0.133000
     15 C18         0.8160    0.0580    6.8080 ca        1 TR3     -0.118000
     16 S24         4.7340    0.6680    0.4890 ss        1 TR3     -0.100300
     17 C25         6.1980    0.7700    1.4410 c3        1 TR3     -0.068000
     18 C26        -2.9590   -0.4890    2.2200 c         1 TR3      0.667100
     19 N27        -2.0470   -0.4500    1.1720 ns        1 TR3     -0.474100
     20 O28        -2.6250   -0.3460    3.4080 o         1 TR3     -0.584100
     21 C30        -6.7790   -0.7780    2.6510 c3        1 TR3      0.164300
     22 C31        -5.3250   -0.4830    3.0140 c3        1 TR3     -0.072400
     23 C32        -4.4170   -0.7150    1.8160 c3        1 TR3     -0.134700
     24 C33        -4.6100   -2.1250    1.2810 c3        1 TR3     -0.072400
     25 C34        -6.0840   -2.3780    0.9590 c3        1 TR3      0.164300
     26 N35        -6.9660   -2.0940    2.0720 n7        1 TR3     -0.821200
     27 H1         -0.5290    0.1040   -0.9120 ha        1 TR3      0.130000
     28 H2          1.9160    0.4670   -0.9410 ha        1 TR3      0.145000
     29 H5         -0.4660   -0.5520    3.4130 ha        1 TR3      0.183000
     30 H13         1.5530   -0.8160    8.6480 ha        1 TR3      0.134000
     31 H14         3.6070   -1.7420    7.5750 ha        1 TR3      0.137000
     32 H15         4.0240   -1.4130    5.1570 ha        1 TR3      0.152500
     33 H17         0.3050    0.8490    4.8650 ha        1 TR3      0.152500
     34 H18        -0.0890    0.4730    7.2770 ha        1 TR3      0.137000
     35 H25         6.1520    1.5760    2.2070 h1        1 TR3      0.074033
     36 H25A        7.0090    1.0040    0.7120 h1        1 TR3      0.074033
     37 H25B        6.4360   -0.1870    1.9580 h1        1 TR3      0.074033
     38 HN27       -2.4140   -0.5320    0.2500 hn        1 TR3      0.316500
     39 H30        -7.4020   -0.7350    3.5890 h1        1 TR3      0.029950
     40 H30A       -7.1440    0.0420    1.9620 h1        1 TR3      0.029950
     41 H31        -4.9950   -1.1380    3.8630 hc        1 TR3      0.062200
     42 H31A       -5.2410    0.5800    3.3560 hc        1 TR3      0.062200
     43 H32        -4.6890    0.0260    1.0120 hc        1 TR3      0.062700
     44 H33        -4.2550   -2.8670    2.0430 hc        1 TR3      0.062200
     45 H33A       -4.0150   -2.2790    0.3450 hc        1 TR3      0.062200
     46 H34        -6.2150   -3.4660    0.6980 h1        1 TR3      0.029950
     47 H34A       -6.3490   -1.7720    0.0410 h1        1 TR3      0.029950
     48 HN35       -7.9220   -2.2140    1.7920 hn        1 TR3      0.366800
@<TRIPOS>BOND
     1    1    2 ar  
     2    1    6 ar  
     3    1   27 1   
     4    2    3 ar  
     5    2   28 1   
     6    3    4 ar  
     7    3    9 1   
     8    4    5 ar  
     9    4    8 1   
    10    5    6 ar  
    11    5   29 1   
    12    6   19 1   
    13    7    8 1   
    14    7    9 2   
    15    8   13 1   
    16    9   16 1   
    17   10   11 ar  
    18   10   15 ar  
    19   10   30 1   
    20   11   12 ar  
    21   11   31 1   
    22   12   13 ar  
    23   12   32 1   
    24   13   14 ar  
    25   14   15 ar  
    26   14   33 1   
    27   15   34 1   
    28   16   17 1   
    29   17   35 1   
    30   17   36 1   
    31   17   37 1   
    32   18   19 1   
    33   18   20 2   
    34   18   23 1   
    35   19   38 1   
    36   21   22 1   
    37   21   26 1   
    38   21   39 1   
    39   21   40 1   
    40   22   23 1   
    41   22   41 1   
    42   22   42 1   
    43   23   24 1   
    44   23   43 1   
    45   24   25 1   
    46   24   44 1   
    47   24   45 1   
    48   25   26 1   
    49   25   46 1   
    50   25   47 1   
    51   26   48 1   
@<TRIPOS>SUBSTRUCTURE
     1 TR3         1 TEMP              0 ****  ****    0 ROOT
