@<TRIPOS>MOLECULE
TR3
   48    51     1     0     0
SMALL
bcc


@<TRIPOS>ATOM
      1 C1          0.0260    0.0730    0.0370 ca        1 TR3     -0.212000
      2 C2          1.3930    0.2780    0.0090 ca        1 TR3     -0.031000
      3 C3          2.1110    0.2030    1.1980 ca        1 TR3     -0.221900
      4 C4          1.4220   -0.0820    2.4330 ca        1 TR3      0.000800
      5 C5          0.0400   -0.3110    2.4660 ca        1 TR3     -0.176000
      6 C6         -0.6650   -0.2210    1.2560 ca        1 TR3      0.100600
      7 N10         3.6370    0.1500    2.9200 nc        1 TR3     -0.519100
      8 N11         2.4110   -0.1000    3.4390 na        1 TR3      0.157800
      9 C12         3.5140    0.3390    1.5850 cd        1 TR3      0.331800
     10 C13         1.7460   -0.7090    7.5670 ca        1 TR3     -0.137000
     11 C14         2.8890   -1.2250    6.9580 ca        1 TR3     -0.118000
     12 C15         3.1200   -1.0300    5.5990 ca        1 TR3     -0.133000
     13 C16         2.1900   -0.3000    4.8290 ca        1 TR3      0.032800
     14 C17         1.0430    0.2360    5.4520 ca        1 TR3     -0.133000
     15 C18         0.8290    0.0180    6.8100 ca        1 TR3     -0.118000
     16 S24         4.7300    0.6770    0.4860 ss        1 TR3     -0.100300
     17 C25         6.1980    0.7660    1.4340 c3        1 TR3     -0.068000
     18 C26        -2.9610   -0.4800    2.2270 c         1 TR3      0.667100
     19 N27        -2.0510   -0.4310    1.1770 n         1 TR3     -0.474100
     20 O28        -2.6230   -0.3500    3.4160 o         1 TR3     -0.584100
     21 C30        -6.7800   -0.7670    2.6660 c3        1 TR3      0.164300
     22 C31        -5.3250   -0.4790    3.0290 c3        1 TR3     -0.072400
     23 C32        -4.4200   -0.6980    1.8250 c3        1 TR3     -0.134700
     24 C33        -4.6180   -2.1020    1.2730 c3        1 TR3     -0.072400
     25 C34        -6.0930   -2.3480    0.9540 c3        1 TR3      0.164300
     26 N35        -6.9710   -2.0760    2.0720 n3        1 TR3     -0.821200
     27 H1         -0.5380    0.1380   -0.9060 ha        1 TR3      0.130000
     28 H2          1.9070    0.4960   -0.9390 ha        1 TR3      0.145000
     29 H5         -0.4650   -0.5580    3.4130 ha        1 TR3      0.183000
     30 H13         1.5690   -0.8740    8.6390 ha        1 TR3      0.134000
     31 H14         3.6180   -1.7960    7.5520 ha        1 TR3      0.137000
     32 H15         4.0290   -1.4450    5.1360 ha        1 TR3      0.152500
     33 H17         0.3140    0.8270    4.8750 ha        1 TR3      0.152500
     34 H18        -0.0740    0.4310    7.2850 ha        1 TR3      0.137000
     35 H25         6.1550    1.5650    2.2080 h1        1 TR3      0.074033
     36 H25A        6.4340   -0.1960    1.9410 h1        1 TR3      0.074033
     37 H25B        7.0070    1.0050    0.7050 h1        1 TR3      0.074033
     38 HN27       -2.4210   -0.5030    0.2550 hn        1 TR3      0.316500
     39 H30        -7.3990   -0.7340    3.6070 h1        1 TR3      0.029950
     40 H30A       -7.1450    0.0620    1.9890 h1        1 TR3      0.029950
     41 H31        -4.9930   -1.1450    3.8690 hc        1 TR3      0.061950
     42 H31A       -5.2380    0.5800    3.3820 hc        1 TR3      0.061950
     43 H32        -4.6930    0.0530    1.0310 hc        1 TR3      0.062700
     44 H33        -4.0260   -2.2450    0.3340 hc        1 TR3      0.061950
     45 H33A       -4.2610   -2.8530    2.0260 hc        1 TR3      0.061950
     46 H34        -6.3600   -1.7310    0.0440 h1        1 TR3      0.029950
     47 H34A       -6.2260   -3.4320    0.6790 h1        1 TR3      0.029950
     48 HN35       -7.9280   -2.1910    1.7940 hn        1 TR3      0.366800
@<TRIPOS>BOND
     1    1    2 ar  
     2    1    6 ar  
     3    1   27 1   
     4    2    3 ar  
     5    2   28 1   
     6    3    4 ar  
     7    3    9 1   
     8    4    5 ar  
     9    4    8 1   
    10    5    6 ar  
    11    5   29 1   
    12    6   19 1   
    13    7    8 1   
    14    7    9 2   
    15    8   13 1   
    16    9   16 1   
    17   10   11 ar  
    18   10   15 ar  
    19   10   30 1   
    20   11   12 ar  
    21   11   31 1   
    22   12   13 ar  
    23   12   32 1   
    24   13   14 ar  
    25   14   15 ar  
    26   14   33 1   
    27   15   34 1   
    28   16   17 1   
    29   17   35 1   
    30   17   36 1   
    31   17   37 1   
    32   18   19 1   
    33   18   20 2   
    34   18   23 1   
    35   19   38 1   
    36   21   22 1   
    37   21   26 1   
    38   21   39 1   
    39   21   40 1   
    40   22   23 1   
    41   22   41 1   
    42   22   42 1   
    43   23   24 1   
    44   23   43 1   
    45   24   25 1   
    46   24   44 1   
    47   24   45 1   
    48   25   26 1   
    49   25   46 1   
    50   25   47 1   
    51   26   48 1   
@<TRIPOS>SUBSTRUCTURE
     1 TR3         1 TEMP              0 ****  ****    0 ROOT
