@<TRIPOS>MOLECULE
TR3
   48    51     1     0     0
SMALL
bcc


@<TRIPOS>ATOM
      1 C1          0.0710   -2.6100    0.5700 ca        1 TR3     -0.212000
      2 C2         -1.3040   -2.7500    0.5690 ca        1 TR3     -0.031000
      3 C3         -2.0970   -1.6280    0.3530 ca        1 TR3     -0.220900
      4 C4         -1.4750   -0.3450    0.1360 ca        1 TR3      0.000800
      5 C5         -0.0820   -0.1990    0.1160 ca        1 TR3     -0.176000
      6 C6          0.6970   -1.3430    0.3450 ca        1 TR3      0.099600
      7 N10        -3.7320   -0.0430    0.0200 nc        1 TR3     -0.519100
      8 N11        -2.5280    0.5740   -0.0600 na        1 TR3      0.157800
      9 C12        -3.5310   -1.3600    0.2650 cd        1 TR3      0.331800
     10 C13        -2.1170    4.7340   -0.6680 ca        1 TR3     -0.137000
     11 C14        -3.1150    4.0240   -1.3350 ca        1 TR3     -0.117500
     12 C15        -3.2610    2.6530   -1.1420 ca        1 TR3     -0.133000
     13 C16        -2.3930    1.9750   -0.2600 ca        1 TR3      0.032800
     14 C17        -1.3970    2.6990    0.4260 ca        1 TR3     -0.133000
     15 C18        -1.2630    4.0670    0.2080 ca        1 TR3     -0.117500
     16 S24        -4.6910   -2.5520    0.4500 ss        1 TR3     -0.099300
     17 C25        -6.2270   -1.7300    0.2920 c3        1 TR3     -0.068000
     18 C26         2.9200   -0.1870    0.3920 c         1 TR3      0.666100
     19 N27         2.1010   -1.3080    0.3450 n         1 TR3     -0.473100
     20 O28         2.4750    0.9730    0.4180 o         1 TR3     -0.586100
     21 C30         6.6890    0.5550    0.7170 c3        1 TR3      0.150800
     22 C31         5.1810    0.7830    0.8220 c3        1 TR3     -0.111400
     23 C32         4.4240   -0.4690    0.4030 c3        1 TR3     -0.131700
     24 C33         4.8720   -0.9380   -0.9740 c3        1 TR3     -0.111400
     25 C34         6.3940   -1.0970   -1.0140 c3        1 TR3      0.150800
     26 N35         7.1520    0.0520   -0.5620 n3        1 TR3     -0.797200
     27 H1          0.6940   -3.5010    0.7470 ha        1 TR3      0.131000
     28 H2         -1.7670   -3.7340    0.7380 ha        1 TR3      0.145000
     29 H5          0.3750    0.7840   -0.0820 ha        1 TR3      0.183000
     30 H13        -2.0060    5.8160   -0.8320 ha        1 TR3      0.134000
     31 H14        -3.7950    4.5470   -2.0240 ha        1 TR3      0.136500
     32 H15        -4.0550    2.1100   -1.6770 ha        1 TR3      0.152500
     33 H17        -0.7220    2.1940    1.1360 ha        1 TR3      0.152500
     34 H18        -0.4760    4.6230    0.7410 ha        1 TR3      0.136500
     35 H25        -6.3690   -0.9420    1.0650 h1        1 TR3      0.074033
     36 H25A       -6.3570   -1.2620   -0.7100 h1        1 TR3      0.074033
     37 H25B       -7.0010   -2.5210    0.4290 h1        1 TR3      0.074033
     38 HN27        2.5500   -2.1970    0.3670 hn        1 TR3      0.317500
     39 H30         7.2210    1.5230    0.9310 h1        1 TR3      0.054950
     40 H30A        6.9990   -0.1910    1.5030 h1        1 TR3      0.054950
     41 H31         4.9150    1.0480    1.8770 hc        1 TR3      0.058700
     42 H31A        4.8670    1.6430    0.1730 hc        1 TR3      0.058700
     43 H32         4.6440   -1.2810    1.1530 hc        1 TR3      0.065700
     44 H33         4.3980   -1.9210   -1.2240 hc        1 TR3      0.058700
     45 H33A        4.5450   -0.1960   -1.7480 hc        1 TR3      0.058700
     46 H34         6.6820   -1.9680   -0.3580 h1        1 TR3      0.054950
     47 H34A        6.7090   -1.3400   -2.0670 h1        1 TR3      0.054950
     48 HN35        7.1040    0.7820   -1.2510 hn        1 TR3      0.353800
@<TRIPOS>BOND
     1    1    2 ar  
     2    1    6 ar  
     3    1   27 1   
     4    2    3 ar  
     5    2   28 1   
     6    3    4 ar  
     7    3    9 1   
     8    4    5 ar  
     9    4    8 1   
    10    5    6 ar  
    11    5   29 1   
    12    6   19 1   
    13    7    8 1   
    14    7    9 2   
    15    8   13 1   
    16    9   16 1   
    17   10   11 ar  
    18   10   15 ar  
    19   10   30 1   
    20   11   12 ar  
    21   11   31 1   
    22   12   13 ar  
    23   12   32 1   
    24   13   14 ar  
    25   14   15 ar  
    26   14   33 1   
    27   15   34 1   
    28   16   17 1   
    29   17   35 1   
    30   17   36 1   
    31   17   37 1   
    32   18   19 1   
    33   18   20 2   
    34   18   23 1   
    35   19   38 1   
    36   21   22 1   
    37   21   26 1   
    38   21   39 1   
    39   21   40 1   
    40   22   23 1   
    41   22   41 1   
    42   22   42 1   
    43   23   24 1   
    44   23   43 1   
    45   24   25 1   
    46   24   44 1   
    47   24   45 1   
    48   25   26 1   
    49   25   46 1   
    50   25   47 1   
    51   26   48 1   
@<TRIPOS>SUBSTRUCTURE
     1 TR3         1 TEMP              0 ****  ****    0 ROOT
