@<TRIPOS>MOLECULE
TR4
   27    28     1     0     0
SMALL
bcc


@<TRIPOS>ATOM
      1 C01         0.1210   -0.2440   -0.0070 c3        1 TR4     -0.094000
      2 S02         1.8600   -0.1440    0.0990 ss        1 TR4     -0.088400
      3 C03         2.2150   -0.0590    1.7190 cc        1 TR4      0.408600
      4 N04         1.3170   -0.0460    2.7670 nd        1 TR4     -0.449800
      5 N05         1.9980    0.0270    3.9080 na        1 TR4      0.240300
      6 C06         3.3840    0.0710    3.6620 cd        1 TR4     -0.109700
      7 N07         4.4150    0.1900    4.6640 n4        1 TR4     -0.670000
      8 C08         3.5600    0.0150    2.2520 cc        1 TR4     -0.089300
      9 C09         4.7770    0.0260    1.5640 cg        1 TR4      0.204800
     10 N10         5.7830    0.0350    0.9770 n1        1 TR4     -0.265800
     11 C11         1.4190    0.0480    5.2200 ca        1 TR4     -0.064200
     12 C12         0.4610    1.0230    5.5480 ca        1 TR4     -0.124000
     13 C13        -0.0890    1.0300    6.8310 ca        1 TR4     -0.105500
     14 C14         0.2980    0.0800    7.7740 ca        1 TR4     -0.088000
     15 C15         1.2360   -0.8990    7.4360 ca        1 TR4     -0.105500
     16 C16         1.7970   -0.9310    6.1630 ca        1 TR4     -0.124000
     17 H01        -0.0900   -0.3130   -1.1030 h1        1 TR4      0.093700
     18 H01A       -0.2950   -1.1460    0.4960 h1        1 TR4      0.093700
     19 H01B       -0.3910    0.6560    0.4010 h1        1 TR4      0.093700
     20 HN07        4.7070    1.1750    4.7360 hn        1 TR4      0.476800
     21 HN0A        5.2200   -0.3820    4.3710 hn        1 TR4      0.476800
     22 H12         0.1320    1.7690    4.8060 ha        1 TR4      0.155500
     23 H13        -0.8440    1.7920    7.0900 ha        1 TR4      0.166000
     24 H14        -0.1450    0.0900    8.7840 ha        1 TR4      0.168000
     25 H15         1.5210   -1.6660    8.1750 ha        1 TR4      0.166000
     26 H16         2.4770   -1.7540    5.8910 ha        1 TR4      0.155500
     27 H073        4.0740   -0.1330    5.5820 hn        1 TR4      0.476800
@<TRIPOS>BOND
     1    1    2 1   
     2    1   17 1   
     3    1   18 1   
     4    1   19 1   
     5    2    3 1   
     6    3    4 2   
     7    3    8 1   
     8    4    5 1   
     9    5    6 1   
    10    5   11 1   
    11    6    7 1   
    12    6    8 2   
    13    7   20 1   
    14    7   21 1   
    15    7   27 1   
    16    8    9 1   
    17    9   10 3   
    18   11   12 ar  
    19   11   16 ar  
    20   12   13 ar  
    21   12   22 1   
    22   13   14 ar  
    23   13   23 1   
    24   14   15 ar  
    25   14   24 1   
    26   15   16 ar  
    27   15   25 1   
    28   16   26 1   
@<TRIPOS>SUBSTRUCTURE
     1 TR4         1 TEMP              0 ****  ****    0 ROOT
