@<TRIPOS>MOLECULE
TR4
   26    27     1     0     0
SMALL
bcc


@<TRIPOS>ATOM
      1 C01         0.1150   -0.1660   -0.0040 c3        1 TR4     -0.076000
      2 S02         1.8570   -0.0470    0.0760 ss        1 TR4     -0.175400
      3 C03         2.2190   -0.0000    1.7090 cc        1 TR4      0.436600
      4 N04         1.3380   -0.0260    2.7440 nd        1 TR4     -0.523800
      5 N05         2.0510    0.0350    3.8940 na        1 TR4      0.130300
      6 C06         3.4440    0.0900    3.6390 cd        1 TR4      0.196300
      7 N07         4.4480    0.0940    4.5880 nv        1 TR4     -0.805200
      8 C08         3.5790    0.0790    2.2200 cc        1 TR4     -0.257300
      9 C09         4.7690    0.1310    1.4980 cg        1 TR4      0.280800
     10 N10         5.7670    0.1760    0.8970 n1        1 TR4     -0.388800
     11 C11         1.4560   -0.0180    5.1870 ca        1 TR4      0.011800
     12 C12         0.3410    0.7930    5.4790 ca        1 TR4     -0.128500
     13 C13        -0.2280    0.7500    6.7500 ca        1 TR4     -0.121000
     14 C14         0.2960   -0.0870    7.7340 ca        1 TR4     -0.126000
     15 C15         1.3900   -0.9000    7.4410 ca        1 TR4     -0.121000
     16 C16         1.9690   -0.8820    6.1750 ca        1 TR4     -0.128500
     17 H01        -0.2740   -1.0820    0.4940 h1        1 TR4      0.075033
     18 H01A       -0.3940    0.7160    0.4430 h1        1 TR4      0.075033
     19 H01B       -0.1260   -0.2130   -1.0930 h1        1 TR4      0.075033
     20 HN07        4.1940    0.4120    5.4980 hn        1 TR4      0.419800
     21 HN0A        5.3160    0.4490    4.2460 hn        1 TR4      0.419800
     22 H12        -0.0890    1.4530    4.7090 ha        1 TR4      0.156000
     23 H13        -1.0990    1.3850    6.9730 ha        1 TR4      0.140500
     24 H14        -0.1570   -0.1110    8.7360 ha        1 TR4      0.139000
     25 H15         1.7970   -1.5740    8.2110 ha        1 TR4      0.140500
     26 H16         2.8080   -1.5620    5.9540 ha        1 TR4      0.156000
@<TRIPOS>BOND
     1    1    2 1   
     2    1   17 1   
     3    1   18 1   
     4    1   19 1   
     5    2    3 1   
     6    3    4 2   
     7    3    8 1   
     8    4    5 1   
     9    5    6 1   
    10    5   11 1   
    11    6    7 1   
    12    6    8 2   
    13    7   20 1   
    14    7   21 1   
    15    8    9 1   
    16    9   10 3   
    17   11   12 ar  
    18   11   16 ar  
    19   12   13 ar  
    20   12   22 1   
    21   13   14 ar  
    22   13   23 1   
    23   14   15 ar  
    24   14   24 1   
    25   15   16 ar  
    26   15   25 1   
    27   16   26 1   
@<TRIPOS>SUBSTRUCTURE
     1 TR4         1 TEMP              0 ****  ****    0 ROOT
