@<TRIPOS>MOLECULE
TR4
   26    27     1     0     0
SMALL
bcc


@<TRIPOS>ATOM
      1 C01         2.6680    2.9490   -0.3480 c3        1 TR4     -0.076000
      2 S02         3.1110    1.2680   -0.1620 ss        1 TR4     -0.175400
      3 C03         1.6600    0.4420   -0.0550 cc        1 TR4      0.436600
      4 N04         0.4100    0.9750   -0.0850 nd        1 TR4     -0.523800
      5 N05        -0.4760   -0.0440    0.0360 na        1 TR4      0.130300
      6 C06         0.1820   -1.2940    0.1360 cd        1 TR4      0.196300
      7 N07        -0.4250   -2.5340    0.2040 nh        1 TR4     -0.805200
      8 C08         1.5770   -1.0030    0.0890 cc        1 TR4     -0.257300
      9 C09         2.6210   -1.9230    0.1650 cg        1 TR4      0.280800
     10 N10         3.4910   -2.6960    0.2320 n1        1 TR4     -0.388800
     11 C11        -1.8870    0.1390   -0.0040 ca        1 TR4      0.011800
     12 C12        -2.4850    1.1530    0.7730 ca        1 TR4     -0.128500
     13 C13        -3.8680    1.3170    0.7440 ca        1 TR4     -0.121000
     14 C14        -4.6650    0.4890   -0.0450 ca        1 TR4     -0.126000
     15 C15        -4.0740   -0.5040   -0.8240 ca        1 TR4     -0.121000
     16 C16        -2.6920   -0.6810   -0.8200 ca        1 TR4     -0.128500
     17 H01         3.6350    3.4990   -0.4350 h1        1 TR4      0.075033
     18 H01A        2.0620    3.1320   -1.2640 h1        1 TR4      0.075033
     19 H01B        2.1040    3.3420    0.5270 h1        1 TR4      0.075033
     20 HN07       -1.3650   -2.5470    0.5380 hn        1 TR4      0.419800
     21 HN0A        0.1640   -3.2440    0.5810 hn        1 TR4      0.419800
     22 H12        -1.8670    1.8200    1.3940 ha        1 TR4      0.156000
     23 H13        -4.3300    2.1100    1.3510 ha        1 TR4      0.140500
     24 H14        -5.7570    0.6240   -0.0580 ha        1 TR4      0.139000
     25 H15        -4.6980   -1.1500   -1.4600 ha        1 TR4      0.140500
     26 H16        -2.2430   -1.4460   -1.4740 ha        1 TR4      0.156000
@<TRIPOS>BOND
     1    1    2 1   
     2    1   17 1   
     3    1   18 1   
     4    1   19 1   
     5    2    3 1   
     6    3    4 2   
     7    3    8 1   
     8    4    5 1   
     9    5    6 1   
    10    5   11 1   
    11    6    7 1   
    12    6    8 2   
    13    7   20 1   
    14    7   21 1   
    15    8    9 1   
    16    9   10 3   
    17   11   12 ar  
    18   11   16 ar  
    19   12   13 ar  
    20   12   22 1   
    21   13   14 ar  
    22   13   23 1   
    23   14   15 ar  
    24   14   24 1   
    25   15   16 ar  
    26   15   25 1   
    27   16   26 1   
@<TRIPOS>SUBSTRUCTURE
     1 TR4         1 TEMP              0 ****  ****    0 ROOT
