@<TRIPOS>MOLECULE
TR4
   26    22     1     0     0
SMALL
bcc


@<TRIPOS>ATOM
      1 C01        -2.3250   -0.9140   -3.8950 c3        1 TR4     -0.376000
      2 S02        -0.6500   -0.3330   -3.8400 ss        1 TR4      0.334000
      3 C03        -0.0660   -0.3670   -2.1650 c2        1 TR4     -0.219000
      4 N04        -0.5840    0.3290   -1.1310 n2        1 TR4     -0.091000
      5 N05         0.1910    0.0870   -0.0250 n3        1 TR4     -0.109000
      6 C06         1.1800   -0.7570   -0.3850 c1        1 TR4      0.139000
      7 N07         2.2230   -1.2270    0.4550 n2        1 TR4     -0.314000
      8 C08         1.0280   -1.0440   -1.7110 c1        1 TR4     -0.188000
      9 C09         1.8960   -1.9780   -2.5240 c1        1 TR4     -0.049000
     10 N10         2.5500   -2.6820   -3.1360 n1        1 TR4     -0.063000
     11 C11         0.0290    0.6400    1.1870 c1        1 TR4      0.057000
     12 C12         0.4880    1.9260    1.4280 c1        1 TR4     -0.120000
     13 C13         0.2510    2.5280    2.6540 c1        1 TR4     -0.120000
     14 C14        -0.4440    1.8440    3.6390 c1        1 TR4     -0.120000
     15 C15        -0.9020    0.5590    3.3990 c1        1 TR4     -0.120000
     16 C16        -0.6660   -0.0430    2.1730 c1        1 TR4     -0.145000
     17 H01        -2.3900   -1.7670   -3.4160 h1        1 TR4      0.114333
     18 H01A       -2.5960   -1.0410   -4.8280 h1        1 TR4      0.114333
     19 H01B       -2.9130   -0.2550   -3.4700 h1        1 TR4      0.114333
     20 HN07        2.6920   -1.9780    0.2250 hn        1 TR4      0.215000
     21 HN0A        2.4480   -0.7610    1.2080 hn        1 TR4      0.215000
     22 H12         0.9770    2.4080    0.7340 ha        1 TR4      0.144250
     23 H13         0.5740    3.4330    2.8240 ha        1 TR4      0.144250
     24 H14        -0.6100    2.2680    4.5030 ha        1 TR4      0.144250
     25 H15        -1.3920    0.0770    4.0930 ha        1 TR4      0.144250
     26 H16        -0.9890   -0.9490    2.0030 ha        1 TR4      0.155000
@<TRIPOS>BOND
     1    1    2 1   
     2    1   17 1   
     3    1   18 1   
     4    1   19 1   
     5    2    3 1   
     6    3    4 1   
     7    3    8 1   
     8    4    5 1   
     9    5    6 1   
    10    5   11 1   
    11    6    8 1   
    12    7   20 1   
    13    7   21 1   
    14    9   10 1   
    15   11   16 1   
    16   12   13 1   
    17   12   22 1   
    18   13   23 1   
    19   14   15 1   
    20   14   24 1   
    21   15   25 1   
    22   16   26 1   
@<TRIPOS>SUBSTRUCTURE
     1 TR4         1 TEMP              0 ****  ****    0 ROOT
