@<TRIPOS>MOLECULE
TR4
   26    27     1     0     0
SMALL
bcc


@<TRIPOS>ATOM
      1 C01         0.0820   -0.1940    0.0170 c3        1 TR4     -0.076000
      2 S02         1.8160    0.0170    0.0950 ss        1 TR4     -0.174400
      3 C03         2.1880   -0.0050    1.7260 cc        1 TR4      0.440600
      4 N04         1.3210   -0.1540    2.7610 nd        1 TR4     -0.528800
      5 N05         2.0460   -0.1780    3.9080 na        1 TR4      0.126300
      6 C06         3.4250    0.0570    3.6500 cd        1 TR4      0.209300
      7 N07         4.4120    0.2220    4.5930 nh        1 TR4     -0.818200
      8 C08         3.5450    0.1340    2.2320 cc        1 TR4     -0.262300
      9 C09         4.7220    0.3090    1.5060 cg        1 TR4      0.281800
     10 N10         5.7070    0.4540    0.9020 n1        1 TR4     -0.390800
     11 C11         1.4540   -0.0850    5.2020 ca        1 TR4      0.015800
     12 C12         0.4060    0.8230    5.4550 ca        1 TR4     -0.129500
     13 C13        -0.1600    0.8860    6.7260 ca        1 TR4     -0.118000
     14 C14         0.3020    0.0620    7.7510 ca        1 TR4     -0.126000
     15 C15         1.3320   -0.8440    7.5000 ca        1 TR4     -0.118000
     16 C16         1.9070   -0.9310    6.2350 ca        1 TR4     -0.129500
     17 H01        -0.1650   -0.1900   -1.0720 h1        1 TR4      0.075033
     18 H01A       -0.4710    0.6320    0.5180 h1        1 TR4      0.075033
     19 H01B       -0.2510   -1.1570    0.4630 h1        1 TR4      0.075033
     20 HN07        4.2030   -0.0280    5.5320 hn        1 TR4      0.428300
     21 HN0A        5.3320    0.0140    4.2750 hn        1 TR4      0.428300
     22 H12         0.0270    1.4770    4.6540 ha        1 TR4      0.147500
     23 H13        -0.9790    1.5970    6.9180 ha        1 TR4      0.140000
     24 H14        -0.1470    0.1220    8.7530 ha        1 TR4      0.140000
     25 H15         1.6900   -1.5050    8.3040 ha        1 TR4      0.140000
     26 H16         2.6930   -1.6790    6.0480 ha        1 TR4      0.147500
@<TRIPOS>BOND
     1    1    2 1   
     2    1   17 1   
     3    1   18 1   
     4    1   19 1   
     5    2    3 1   
     6    3    4 2   
     7    3    8 1   
     8    4    5 1   
     9    5    6 1   
    10    5   11 1   
    11    6    7 1   
    12    6    8 2   
    13    7   20 1   
    14    7   21 1   
    15    8    9 1   
    16    9   10 3   
    17   11   12 ar  
    18   11   16 ar  
    19   12   13 ar  
    20   12   22 1   
    21   13   14 ar  
    22   13   23 1   
    23   14   15 ar  
    24   14   24 1   
    25   15   16 ar  
    26   15   25 1   
    27   16   26 1   
@<TRIPOS>SUBSTRUCTURE
     1 TR4         1 TEMP              0 ****  ****    0 ROOT
