@<TRIPOS>MOLECULE
TR5
   42    45     1     0     0
SMALL
bcc


@<TRIPOS>ATOM
      1 O2         -3.7100   -1.7330   -1.5190 o         1 TR5     -0.919833
      2 PB         -2.8980   -2.0990   -0.3140 p5        1 TR5      1.341900
      3 O3         -3.4800   -3.0330    0.6940 o         1 TR5     -0.919833
      4 O1         -1.4110   -2.2650   -0.5890 o         1 TR5     -0.919833
      5 O5'        -2.8220   -0.5720    0.5100 os        1 TR5     -0.558200
      6 C5'        -2.7050    0.4550   -0.3900 c3        1 TR5      0.204400
      7 C4'        -2.3440    1.7690    0.3180 c3        1 TR5      0.081100
      8 O4'        -1.1470    1.7070    1.1220 os        1 TR5     -0.401600
      9 C3'        -2.0680    2.8730   -0.7200 c3        1 TR5      0.069100
     10 O3'        -2.4020    4.1680   -0.2450 oh        1 TR5     -0.618800
     11 C2'        -0.5420    2.7680   -0.9570 c3        1 TR5      0.074100
     12 O2'         0.0770    4.0080   -1.1950 oh        1 TR5     -0.584800
     13 C1'        -0.0030    2.1020    0.3600 c3        1 TR5      0.222800
     14 N9          0.9030    0.9970    0.1590 na        1 TR5     -0.166000
     15 C8          0.5660   -0.3710    0.0190 cc        1 TR5      0.007800
     16 C7          1.7440   -1.1140   -0.0960 cd        1 TR5     -0.307000
     17 C5          2.8250   -0.1850   -0.0110 ca        1 TR5     -0.344400
     18 C4          2.3080    1.1350    0.1670 ca        1 TR5      0.437800
     19 N3          3.1860    2.1870    0.3020 nb        1 TR5     -0.726000
     20 C2          4.4820    1.7990    0.2380 ca        1 TR5      0.621900
     21 N1          5.0730    0.5680    0.0680 nb        1 TR5     -0.787000
     22 C6          4.2010   -0.4760   -0.0820 ca        1 TR5      0.509800
     23 N61         4.4970   -1.8390   -0.4220 na        1 TR5      0.029200
     24 C62         5.7850   -2.2990    0.0930 c3        1 TR5      0.024600
     25 N71         3.5100   -2.7970   -0.3820 nc        1 TR5     -0.473400
     26 C72         2.1890   -2.4990   -0.2720 cd        1 TR5      0.516700
     27 N73         1.2280   -3.4750   -0.2510 nh        1 TR5     -0.949500
     28 H3         -1.9200    0.2190   -1.1650 h1        1 TR5      0.014200
     29 H4         -3.6840    0.6220   -0.9260 h1        1 TR5      0.014200
     30 H5         -3.1430    2.0460    1.0540 h1        1 TR5      0.074700
     31 H6         -2.6530    2.7400   -1.6650 h1        1 TR5      0.103700
     32 H7         -2.2280    4.1710    0.7050 ho        1 TR5      0.398000
     33 H8         -0.3200    2.1450   -1.8650 h1        1 TR5      0.112700
     34 H9         -0.3010    4.6470   -0.5770 ho        1 TR5      0.396000
     35 H10         0.5350    2.8770    0.9850 h2        1 TR5      0.071700
     36 H11        -0.5000   -0.7730   -0.0020 h4        1 TR5      0.321000
     37 H12         5.2120    2.6260    0.3480 h5        1 TR5      0.013100
     38 H13         5.8400   -2.2800    1.2150 h1        1 TR5      0.029033
     39 H14         5.9820   -3.3460   -0.2550 h1        1 TR5      0.029033
     40 H15         6.5770   -1.6230   -0.3220 h1        1 TR5      0.029033
     41 H16         0.2570   -3.1690   -0.3190 hn        1 TR5      0.464800
     42 H17         1.4560   -4.3810   -0.5740 hn        1 TR5      0.464800
@<TRIPOS>BOND
     1    1    2 1   
     2    2    3 1   
     3    2    4 1   
     4    2    5 1   
     5    5    6 1   
     6    6    7 1   
     7    6   28 1   
     8    6   29 1   
     9    7    8 1   
    10    7    9 1   
    11    7   30 1   
    12    8   13 1   
    13    9   10 1   
    14    9   11 1   
    15    9   31 1   
    16   10   32 1   
    17   11   12 1   
    18   11   13 1   
    19   11   33 1   
    20   12   34 1   
    21   13   14 1   
    22   13   35 1   
    23   14   15 1   
    24   14   18 1   
    25   15   16 2   
    26   15   36 1   
    27   16   17 1   
    28   16   26 1   
    29   17   18 ar  
    30   17   22 ar  
    31   18   19 ar  
    32   19   20 ar  
    33   20   21 ar  
    34   20   37 1   
    35   21   22 ar  
    36   22   23 1   
    37   23   24 1   
    38   23   25 1   
    39   24   38 1   
    40   24   39 1   
    41   24   40 1   
    42   25   26 2   
    43   26   27 1   
    44   27   41 1   
    45   27   42 1   
@<TRIPOS>SUBSTRUCTURE
     1 TR5         1 TEMP              0 ****  ****    0 ROOT
