@<TRIPOS>MOLECULE
TR5
   42    39     1     0     0
SMALL
bcc


@<TRIPOS>ATOM
      1 O2         -4.1620   -4.7960    1.3300 o         1 TR5     -1.053667
      2 PB         -3.9430   -4.2060    2.6980 p3        1 TR5      2.555000
      3 O3         -5.2130   -4.3060    3.4960 o         1 TR5     -1.053667
      4 O1         -2.8410   -4.9670    3.4050 o         1 TR5     -1.053667
      5 O5'        -3.5250   -2.6840    2.5550 o         1 TR5     -0.758000
      6 C5'        -2.5930   -2.3390    1.5670 c3        1 TR5      0.030000
      7 C4'        -1.9090   -1.0710    1.9470 c3        1 TR5     -0.054000
      8 O4'        -0.6600   -1.1050    1.5680 os        1 TR5     -0.292000
      9 C3'        -2.6000    0.2050    1.1570 c3        1 TR5      0.161000
     10 O3'        -3.7900    0.6680    1.8900 oh        1 TR5     -0.723000
     11 C2'        -1.7500    1.0950    1.1320 c3        1 TR5     -0.070000
     12 O2'        -1.9000    1.9890    2.3190 oh        1 TR5     -0.373000
     13 C1'        -0.3300    0.3160    1.1960 c3        1 TR5      0.138000
     14 N9          0.2420    0.3510    0.0610 n3        1 TR5     -0.125000
     15 C8          1.0800   -0.6630   -0.3140 c1        1 TR5      0.040000
     16 C7          1.8230   -0.2220   -1.4260 c1        1 TR5     -0.209000
     17 C5          1.3780    1.0390   -1.7590 c1        1 TR5     -0.214000
     18 C4          0.4510    1.4290   -0.8060 c1        1 TR5      0.064000
     19 N3          0.2720    2.7660   -0.5290 n1        1 TR5     -0.176000
     20 C2          1.0900    3.7180   -1.1320 c1        1 TR5     -0.041000
     21 N1          2.0870    3.3180   -2.0150 n1        1 TR5     -0.261000
     22 C6          2.2640    1.9750   -2.2900 c1        1 TR5      0.118000
     23 N61         3.6150    1.5480   -2.7250 n3        1 TR5     -0.115000
     24 C62         4.4550    2.4560   -3.4680 c3        1 TR5     -0.075000
     25 N71         4.0600    0.2520   -2.4470 n2        1 TR5     -0.253000
     26 C72         3.2160   -0.6460   -1.8000 c1        1 TR5      0.183000
     27 N73         3.6320   -1.9950   -1.5960 n3        1 TR5     -0.331000
     28 H3         -1.9320   -3.0510    1.4820 h1        1 TR5      0.061000
     29 H4         -3.0570   -2.2170    0.7050 h1        1 TR5      0.061000
     30 H5         -1.9650   -0.9340    2.9270 h1        1 TR5      0.083000
     31 H6         -2.8470   -0.0580    0.2310 h1        1 TR5      0.006000
     32 H7         -4.4330    0.8040    1.3350 ho        1 TR5      0.221000
     33 H8         -1.8220    1.6230    0.2830 h1        1 TR5      0.081000
     34 H9         -2.0990    2.7890    2.0540 ho        1 TR5      0.233000
     35 H10         0.2530    0.7240    1.8850 h2        1 TR5      0.119000
     36 H11         1.0880   -1.5690    0.0590 DU        1 TR5      0.250000
     37 H12         0.9480    4.6790   -0.9480 ha        1 TR5      0.154000
     38 H13         3.8940    3.0290   -4.0400 h1        1 TR5      0.070667
     39 H14         4.9650    3.0150   -2.8450 h1        1 TR5      0.070667
     40 H15         5.0840    1.9350   -4.0350 h1        1 TR5      0.070667
     41 H16         3.1540   -2.5490   -1.0080 hn        1 TR5      0.231000
     42 H17         4.3200   -2.3460   -2.1010 hn        1 TR5      0.231000
@<TRIPOS>BOND
     1    1    2 1   
     2    2    3 1   
     3    2    4 1   
     4    5    6 1   
     5    6    7 1   
     6    6   28 1   
     7    6   29 1   
     8    7    8 1   
     9    7    9 1   
    10    7   30 1   
    11    8   13 1   
    12    9   10 1   
    13    9   11 1   
    14    9   31 1   
    15   10   32 1   
    16   11   12 1   
    17   11   13 1   
    18   11   33 1   
    19   12   34 1   
    20   13   14 1   
    21   13   35 1   
    22   14   15 1   
    23   14   18 1   
    24   15   16 1   
    25   16   17 1   
    26   17   22 1   
    27   18   19 1   
    28   20   21 1   
    29   20   37 1   
    30   22   23 1   
    31   23   24 1   
    32   23   25 1   
    33   24   38 1   
    34   24   39 1   
    35   24   40 1   
    36   25   26 1   
    37   26   27 1   
    38   27   41 1   
    39   27   42 1   
@<TRIPOS>SUBSTRUCTURE
     1 TR5         1 TEMP              0 ****  ****    0 ROOT
