@<TRIPOS>MOLECULE
TR5
   43    46     1     0     0
SMALL
bcc


@<TRIPOS>ATOM
      1 O2          0.0000    0.0000    0.0000 o         1 TR5     -0.584833
      2 PB          1.4800    0.0000    0.0000 p5        1 TR5      0.775900
      3 O3          2.0160    0.0000    1.5190 o         1 TR5     -0.584833
      4 O1          2.0170    1.3150   -0.7580 o         1 TR5     -0.584833
      5 O5'         2.0170   -1.3140   -0.7580 os        1 TR5     -0.479200
      6 C5'         1.6280   -2.6390   -0.3900 c3        1 TR5      0.293400
      7 C4'         2.3180   -3.6480   -1.3110 c3        1 TR5      0.138100
      8 O4'         3.7370   -3.6270   -1.0820 os        1 TR5     -0.370600
      9 C3'         1.8240   -5.0720   -0.9930 c3        1 TR5      0.123100
     10 O3'         1.2030   -5.6540   -2.1410 oh        1 TR5     -0.562800
     11 C2'         3.1110   -5.8460   -0.6180 c3        1 TR5      0.124100
     12 O2'         3.0990   -7.1600   -1.1800 oh        1 TR5     -0.548800
     13 C1'         4.2160   -4.9760   -1.2730 c3        1 TR5      0.123800
     14 N9          5.4980   -5.1710   -0.5920 na        1 TR5      0.364000
     15 C8          5.9790   -4.3600    0.4230 cc        1 TR5     -0.262200
     16 C7          7.1810   -4.8070    0.8350 cd        1 TR5     -0.213000
     17 C5          7.4340   -5.9770   -0.0030 ca        1 TR5     -0.433400
     18 C4          6.3750   -6.1780   -0.8670 ca        1 TR5      0.344800
     19 N3          6.5180   -7.2310   -1.6770 nb        1 TR5     -0.658000
     20 C2          7.6070   -7.9750   -1.6030 ca        1 TR5      0.674900
     21 N1          8.6240   -7.7790   -0.7690 nb        1 TR5     -0.746000
     22 C6          8.5730   -6.7580    0.0790 ca        1 TR5      0.420800
     23 N61         9.5120   -6.3910    1.0100 na        1 TR5      0.372200
     24 C62        10.7450   -7.1710    1.1420 c3        1 TR5      0.029600
     25 N71         9.3040   -5.2770    1.8350 nc        1 TR5     -0.422400
     26 C72         8.2500   -4.5010    1.8030 cd        1 TR5     -0.150300
     27 N73         8.1400   -3.4140    2.6640 nz        1 TR5      0.246700
     28 H3          1.9190   -2.8290    0.6360 h1        1 TR5     -0.018300
     29 H4          0.5540   -2.7400   -0.4850 h1        1 TR5     -0.018300
     30 H5          2.1100   -3.4100   -2.3480 h1        1 TR5      0.047700
     31 H6          1.1400   -5.0530   -0.1540 h1        1 TR5      0.016700
     32 H7          0.2930   -5.8190   -1.9560 ho        1 TR5      0.384000
     33 H8          3.2380   -5.8800    0.4570 h1        1 TR5      0.015700
     34 H9          2.7240   -7.7630   -0.5600 ho        1 TR5      0.380000
     35 H10         4.2990   -5.2020   -2.3290 h2        1 TR5      0.064700
     36 H11         5.4660   -3.4950    0.8250 h4        1 TR5      0.166000
     37 H12         7.6780   -8.8180   -2.2800 h5        1 TR5     -0.015900
     38 H13        10.4990   -8.1940    1.4000 h1        1 TR5      0.013700
     39 H14        11.3630   -6.7410    1.9210 h1        1 TR5      0.013700
     40 H15        11.2850   -7.1540    0.2030 h1        1 TR5      0.013700
     41 H16         8.9570   -3.3610    3.2400 hn        1 TR5      0.168133
     42 H17         7.3310   -3.5260    3.2420 hn        1 TR5      0.168133
     43 H733        8.0540   -2.5720    2.1290 hn        1 TR5      0.168133
@<TRIPOS>BOND
     1    1    2 1   
     2    2    3 1   
     3    2    4 1   
     4    2    5 1   
     5    5    6 1   
     6    6    7 1   
     7    6   28 1   
     8    6   29 1   
     9    7    8 1   
    10    7    9 1   
    11    7   30 1   
    12    8   13 1   
    13    9   10 1   
    14    9   11 1   
    15    9   31 1   
    16   10   32 1   
    17   11   12 1   
    18   11   13 1   
    19   11   33 1   
    20   12   34 1   
    21   13   14 1   
    22   13   35 1   
    23   14   15 1   
    24   14   18 1   
    25   15   16 2   
    26   15   36 1   
    27   16   17 1   
    28   16   26 1   
    29   17   18 ar  
    30   17   22 ar  
    31   18   19 ar  
    32   19   20 ar  
    33   20   21 ar  
    34   20   37 1   
    35   21   22 ar  
    36   22   23 1   
    37   23   24 1   
    38   23   25 1   
    39   24   38 1   
    40   24   39 1   
    41   24   40 1   
    42   25   26 2   
    43   26   27 1   
    44   27   41 1   
    45   27   42 1   
    46   27   43 1   
@<TRIPOS>SUBSTRUCTURE
     1 TR5         1 TEMP              0 ****  ****    0 ROOT
