@<TRIPOS>MOLECULE
TR6
   45    49     1     0     0
SMALL
bcc


@<TRIPOS>ATOM
      1 C01        -0.0590    0.0680   -0.2020 ca        1 TR6     -0.091000
      2 C02         1.2910   -0.0890   -0.4820 ca        1 TR6     -0.166000
      3 C03         2.1080   -0.8130    0.4050 ca        1 TR6      0.125900
      4 F04         3.4220   -0.9960    0.1270 f         1 TR6     -0.144900
      5 C05         1.5700   -1.3530    1.5810 ca        1 TR6     -0.234000
      6 C06         0.2050   -1.1810    1.8670 ca        1 TR6      0.156900
      7 F07        -0.2700   -1.7060    3.0200 f         1 TR6     -0.126900
      8 C08        -0.6430   -0.4800    0.9610 ca        1 TR6      0.124600
      9 N09        -2.0210   -0.2940    1.2260 na        1 TR6     -0.516500
     10 C10        -2.9000   -1.3880    1.2910 ca        1 TR6      0.678200
     11 N11        -2.4000   -2.6540    1.1950 nb        1 TR6     -0.774000
     12 C12        -3.2490   -3.7080    1.3040 ca        1 TR6      0.529200
     13 N13        -2.7040   -5.0540    1.2240 nh        1 TR6     -0.658300
     14 C14        -1.7060   -5.2960    2.2860 c3        1 TR6      0.172300
     15 C15        -0.3160   -5.1910    1.6570 cx        1 TR6     -0.098700
     16 C16         0.1060   -6.3970    0.8340 cx        1 TR6     -0.027500
     17 N17         1.5360   -6.6800    0.6350 nz        1 TR6     -0.799600
     18 C18        -0.5250   -5.1920    0.1540 cx        1 TR6     -0.098700
     19 C19        -2.0350   -5.2950   -0.0700 c3        1 TR6      0.172300
     20 C20        -4.6520   -3.5450    1.4930 ca        1 TR6     -0.001400
     21 C21        -5.1610   -2.2320    1.5710 ca        1 TR6     -0.057000
     22 C22        -4.3070   -1.1430    1.4710 ca        1 TR6     -0.263900
     23 C23        -4.8500    0.2480    1.5390 c         1 TR6      0.598900
     24 C24        -3.8890    1.2770    1.1560 cc        1 TR6     -0.242400
     25 C25        -2.5720    0.9940    1.0500 cd        1 TR6      0.042000
     26 C26        -4.3310    2.7150    0.8090 c         1 TR6      0.933800
     27 O27        -5.3640    2.8360    0.1120 o         1 TR6     -0.791800
     28 O28        -3.5650    3.6330    1.2010 o         1 TR6     -0.791800
     29 O29        -6.0100    0.4270    1.9240 o         1 TR6     -0.502100
     30 F30        -5.4850   -4.6030    1.5980 f         1 TR6     -0.122900
     31 H011       -0.6880    0.6460   -0.9030 ha        1 TR6      0.175000
     32 H021        1.7280    0.3540   -1.3890 ha        1 TR6      0.161000
     33 H051        2.2170   -1.8730    2.3000 ha        1 TR6      0.148000
     34 H141       -1.8870   -6.3350    2.6760 h1        1 TR6      0.086700
     35 H142       -1.8070   -4.5700    3.1360 h1        1 TR6      0.086700
     36 H151        0.4140   -4.5540    2.1790 hc        1 TR6      0.124200
     37 H161       -0.4700   -7.3490    0.9150 hx        1 TR6      0.147700
     38 H171        1.6630   -7.2230   -0.2250 hn        1 TR6      0.457133
     39 H172        2.0640   -5.8030    0.5560 hn        1 TR6      0.457133
     40 H181        0.0390   -4.5630   -0.5490 hc        1 TR6      0.124200
     41 H191       -2.3650   -4.5690   -0.8600 h1        1 TR6      0.086700
     42 H192       -2.3160   -6.3330   -0.3990 h1        1 TR6      0.086700
     43 H211       -6.2430   -2.0620    1.7150 ha        1 TR6      0.190000
     44 H251       -1.8350    1.7990    0.8590 h4        1 TR6      0.189000
     45 H173        1.8950   -7.2150    1.4320 hn        1 TR6      0.457133
@<TRIPOS>BOND
     1    1    2 ar  
     2    1    8 ar  
     3    1   31 1   
     4    2    3 ar  
     5    2   32 1   
     6    3    4 1   
     7    3    5 ar  
     8    5    6 ar  
     9    5   33 1   
    10    6    7 1   
    11    6    8 ar  
    12    8    9 1   
    13    9   10 1   
    14    9   25 1   
    15   10   11 ar  
    16   10   22 ar  
    17   11   12 ar  
    18   12   13 1   
    19   12   20 ar  
    20   13   14 1   
    21   13   19 1   
    22   14   15 1   
    23   14   34 1   
    24   14   35 1   
    25   15   16 1   
    26   15   18 1   
    27   15   36 1   
    28   16   17 1   
    29   16   18 1   
    30   16   37 1   
    31   17   38 1   
    32   17   39 1   
    33   17   45 1   
    34   18   19 1   
    35   18   40 1   
    36   19   41 1   
    37   19   42 1   
    38   20   21 ar  
    39   20   30 1   
    40   21   22 ar  
    41   21   43 1   
    42   22   23 1   
    43   23   24 1   
    44   23   29 2   
    45   24   25 2   
    46   24   26 1   
    47   25   44 1   
    48   26   27 1   
    49   26   28 1   
@<TRIPOS>SUBSTRUCTURE
     1 TR6         1 TEMP              0 ****  ****    0 ROOT
