@<TRIPOS>MOLECULE
TR6
   45    49     1     0     0
SMALL
bcc


@<TRIPOS>ATOM
      1 C01        -0.0930    0.0660   -0.2480 ca        1 TR6     -0.091000
      2 C02         1.2530   -0.0860   -0.5450 ca        1 TR6     -0.166000
      3 C03         2.0870   -0.7940    0.3370 ca        1 TR6      0.125900
      4 F04         3.3980   -0.9720    0.0420 f         1 TR6     -0.144900
      5 C05         1.5700   -1.3260    1.5260 ca        1 TR6     -0.234000
      6 C06         0.2070   -1.1610    1.8290 ca        1 TR6      0.156900
      7 F07        -0.2470   -1.6780    2.9940 f         1 TR6     -0.127900
      8 C08        -0.6570   -0.4750    0.9280 ca        1 TR6      0.124600
      9 N09        -2.0330   -0.2960    1.2120 na        1 TR6     -0.516500
     10 C10        -2.9030   -1.3950    1.2990 ca        1 TR6      0.678200
     11 N11        -2.3960   -2.6580    1.2090 nb        1 TR6     -0.774000
     12 C12        -3.2370   -3.7170    1.3400 ca        1 TR6      0.529200
     13 N13        -2.6830   -5.0600    1.2660 nh        1 TR6     -0.658300
     14 C14        -1.6690   -5.2850    2.3170 c3        1 TR6      0.172300
     15 C15        -0.2880   -5.1750    1.6680 cx        1 TR6     -0.098700
     16 C16         0.1310   -6.3870    0.8520 cx        1 TR6     -0.027500
     17 N17         1.5610   -6.6610    0.6360 n4        1 TR6     -0.799600
     18 C18        -0.5180   -5.1940    0.1690 cx        1 TR6     -0.098700
     19 C19        -2.0290   -5.3100   -0.0340 c3        1 TR6      0.172300
     20 C20        -4.6380   -3.5620    1.5470 ca        1 TR6     -0.001400
     21 C21        -5.1540   -2.2510    1.6180 ca        1 TR6     -0.057000
     22 C22        -4.3100   -1.1580    1.4960 ca        1 TR6     -0.263900
     23 C23        -4.8620    0.2300    1.5570 c         1 TR6      0.598900
     24 C24        -3.9130    1.2620    1.1520 cc        1 TR6     -0.242400
     25 C25        -2.5950    0.9860    1.0300 cd        1 TR6      0.042000
     26 C26        -4.3690    2.6930    0.7970 c         1 TR6      0.933800
     27 O27        -5.4130    2.8000    0.1130 o         1 TR6     -0.791800
     28 O28        -3.6040    3.6200    1.1690 o         1 TR6     -0.791800
     29 O29        -6.0170    0.4050    1.9560 o         1 TR6     -0.502100
     30 F30        -5.4620   -4.6240    1.6730 f         1 TR6     -0.122900
     31 H011       -0.7370    0.6320   -0.9450 ha        1 TR6      0.175000
     32 H021        1.6740    0.3520   -1.4630 ha        1 TR6      0.161000
     33 H051        2.2300   -1.8340    2.2410 ha        1 TR6      0.148000
     34 H141       -1.8370   -6.3200    2.7210 h1        1 TR6      0.086700
     35 H142       -1.7640   -4.5500    3.1620 h1        1 TR6      0.086700
     36 H151        0.4440   -4.5280    2.1730 hc        1 TR6      0.124200
     37 H161       -0.4360   -7.3420    0.9510 hx        1 TR6      0.147700
     38 H171        1.6800   -7.2130   -0.2190 hn        1 TR6      0.457133
     39 H172        1.9350   -7.1840    1.4340 hn        1 TR6      0.457133
     40 H181        0.0320   -4.5680   -0.5490 hc        1 TR6      0.124200
     41 H191       -2.3080   -6.3540   -0.3470 h1        1 TR6      0.086700
     42 H192       -2.3760   -4.5940   -0.8270 h1        1 TR6      0.086700
     43 H211       -6.2360   -2.0880    1.7760 ha        1 TR6      0.190000
     44 H251       -1.8670    1.7950    0.8210 h4        1 TR6      0.189000
     45 H173        2.0810   -5.7810    0.5410 hn        1 TR6      0.457133
@<TRIPOS>BOND
     1    1    2 ar  
     2    1    8 ar  
     3    1   31 1   
     4    2    3 ar  
     5    2   32 1   
     6    3    4 1   
     7    3    5 ar  
     8    5    6 ar  
     9    5   33 1   
    10    6    7 1   
    11    6    8 ar  
    12    8    9 1   
    13    9   10 1   
    14    9   25 1   
    15   10   11 ar  
    16   10   22 ar  
    17   11   12 ar  
    18   12   13 1   
    19   12   20 ar  
    20   13   14 1   
    21   13   19 1   
    22   14   15 1   
    23   14   34 1   
    24   14   35 1   
    25   15   16 1   
    26   15   18 1   
    27   15   36 1   
    28   16   17 1   
    29   16   18 1   
    30   16   37 1   
    31   17   38 1   
    32   17   39 1   
    33   17   45 1   
    34   18   19 1   
    35   18   40 1   
    36   19   41 1   
    37   19   42 1   
    38   20   21 ar  
    39   20   30 1   
    40   21   22 ar  
    41   21   43 1   
    42   22   23 1   
    43   23   24 1   
    44   23   29 2   
    45   24   25 2   
    46   24   26 1   
    47   25   44 1   
    48   26   27 1   
    49   26   28 1   
@<TRIPOS>SUBSTRUCTURE
     1 TR6         1 TEMP              0 ****  ****    0 ROOT
