@<TRIPOS>MOLECULE
TR7
   30    31     1     0     0
SMALL
bcc


@<TRIPOS>ATOM
      1 N           1.0590    1.2230    1.1810 n3        1 TR7     -0.898800
      2 CA          1.6270    0.0900    0.4820 c3        1 TR7      0.131500
      3 C           3.0280    0.4180   -0.0110 c         1 TR7      0.631100
      4 OXT         3.4190    1.4250   -0.6010 o         1 TR7     -0.540000
      5 CB          0.8360   -0.4220   -0.7440 c3        1 TR7     -0.043200
      6 CG         -0.5260   -0.8260   -0.3810 cc        1 TR7     -0.155400
      7 CD1        -0.9580   -2.1190   -0.0780 cd        1 TR7     -0.090100
      8 CD2        -1.6850    0.0380   -0.2880 ca        1 TR7     -0.094800
      9 NE1        -2.3230   -2.1170    0.2060 na        1 TR7     -0.189400
     10 CE2        -2.7980   -0.8080    0.0840 ca        1 TR7     -0.046200
     11 CE3        -1.9000    1.4040   -0.4810 ca        1 TR7     -0.094000
     12 CZ2        -4.0850   -0.2770    0.2600 ca        1 TR7     -0.141000
     13 CZ3        -3.1770    1.9150   -0.3050 ca        1 TR7     -0.151000
     14 CH2        -4.2530    1.0850    0.0610 ca        1 TR7     -0.112000
     15 O           3.9210   -0.5850    0.2420 os        1 TR7     -0.435900
     16 CAJ         5.2660   -0.3680   -0.1860 c3        1 TR7      0.124700
     17 HN1         1.1410    2.0570    0.6300 hn        1 TR7      0.365800
     18 HN2         0.0900    1.0470    1.3720 hn        1 TR7      0.365800
     19 HA          1.7020   -0.7550    1.2310 h1        1 TR7      0.092700
     20 HB1C        0.7970    0.3870   -1.5240 hc        1 TR7      0.062200
     21 HB2C        1.3950   -1.2920   -1.1800 hc        1 TR7      0.062200
     22 HAJ1        5.8000   -1.2960    0.1370 h1        1 TR7      0.051367
     23 HAJ2        5.2970   -0.2430   -1.2950 h1        1 TR7      0.051367
     24 HAJ3        5.6830    0.5390    0.3130 h1        1 TR7      0.051367
     25 HD1        -0.3830   -3.0480   -0.0450 h4        1 TR7      0.169000
     26 HE1        -2.8670   -2.9020    0.4440 hn        1 TR7      0.301700
     27 HE3        -1.0650    2.0570   -0.7740 ha        1 TR7      0.133000
     28 HZ2        -4.9290   -0.9190    0.5430 ha        1 TR7      0.134000
     29 HZ3        -3.3610    2.9890   -0.4550 ha        1 TR7      0.133000
     30 HH2        -5.2500    1.5310    0.1910 ha        1 TR7      0.132000
@<TRIPOS>BOND
     1    1    2 1   
     2    1   17 1   
     3    1   18 1   
     4    2    3 1   
     5    2    5 1   
     6    2   19 1   
     7    3    4 2   
     8    3   15 1   
     9    5    6 1   
    10    5   20 1   
    11    5   21 1   
    12    6    7 2   
    13    6    8 1   
    14    7    9 1   
    15    7   25 1   
    16    8   10 ar  
    17    8   11 ar  
    18    9   10 1   
    19    9   26 1   
    20   10   12 ar  
    21   11   13 ar  
    22   11   27 1   
    23   12   14 ar  
    24   12   28 1   
    25   13   14 ar  
    26   13   29 1   
    27   14   30 1   
    28   15   16 1   
    29   16   22 1   
    30   16   23 1   
    31   16   24 1   
@<TRIPOS>SUBSTRUCTURE
     1 TR7         1 TEMP              0 ****  ****    0 ROOT
