@<TRIPOS>MOLECULE
TR7
   30    26     1     0     0
SMALL
bcc


@<TRIPOS>ATOM
      1 N          -2.2200   -0.5440    0.8470 n3        1 TR7     -0.916800
      2 CA         -0.9280   -0.1600    1.3230 c3        1 TR7      0.145500
      3 C          -1.0180    0.1740    2.7640 c         1 TR7      0.632100
      4 OXT        -0.8140   -0.8400    3.7410 os        1 TR7     -0.443900
      5 CB         -0.4230    1.0750    0.5410 c3        1 TR7     -0.008200
      6 CG          0.5860    0.6320   -0.5170 ce        1 TR7     -0.196000
      7 CD1         1.8830    0.9940   -0.1500 c1        1 TR7      0.212500
      8 CD2         0.6260    0.1450   -1.8180 cg        1 TR7     -0.115300
      9 NE1         2.7150    0.7310   -1.2170 nf        1 TR7     -0.486400
     10 CE2         1.9340    0.2020   -2.2560 ch        1 TR7      0.049000
     11 CE3        -0.3980   -0.3060   -2.6980 c1        1 TR7     -0.067750
     12 CZ2         2.2520   -0.1880   -3.5810 c1        1 TR7     -0.067750
     13 CZ3        -0.0810   -0.6870   -3.9950 c1        1 TR7     -0.067750
     14 CH2         1.2410   -0.6310   -4.4400 c1        1 TR7     -0.067750
     15 O          -1.2180    1.3460    3.1180 o         1 TR7     -0.537000
     16 CAJ        -1.4090   -0.5720    4.9750 c3        1 TR7      0.126700
     17 HN1        -2.1400   -1.3000    0.3020 hn        1 TR7      0.371300
     18 HN2        -2.7710   -0.7450    1.5750 hn        1 TR7      0.371300
     19 HA         -0.2860   -0.9170    1.1950 h1        1 TR7      0.040700
     20 HB1C        0.0180    1.7090    1.1710 hc        1 TR7      0.072700
     21 HB2C       -1.1800    1.5220    0.1060 hc        1 TR7      0.072700
     22 HAJ1       -1.0430    0.2690    5.3420 h1        1 TR7      0.050033
     23 HAJ2       -2.3820   -0.4830    4.8570 h1        1 TR7      0.050033
     24 HAJ3       -1.2180   -1.3230    5.6050 h1        1 TR7      0.050033
     25 HD1         2.1530    1.4270    0.7210 DU        1 TR7      0.208500
     26 HE1         3.6110    0.8750   -1.2420 DU        1 TR7      0.208500
     27 HE3        -1.3410   -0.3470   -2.3850 ha        1 TR7      0.077500
     28 HZ2         3.2140   -0.1480   -3.9060 ha        1 TR7      0.077500
     29 HZ3        -0.8210   -1.0130   -4.6300 ha        1 TR7      0.077500
     30 HH2         1.4560   -0.8980   -5.3470 ha        1 TR7      0.077500
@<TRIPOS>BOND
     1    1    2 1   
     2    1   17 1   
     3    1   18 1   
     4    2    3 1   
     5    2    5 1   
     6    2   19 1   
     7    3    4 1   
     8    3   15 2   
     9    4   16 1   
    10    5    6 1   
    11    5   20 1   
    12    5   21 1   
    13    6    7 2   
    14    6    8 1   
    15    7    9 2   
    16    8   10 3   
    17    9   10 1   
    18   11   13 3   
    19   11   27 1   
    20   12   14 3   
    21   12   28 1   
    22   13   29 1   
    23   14   30 1   
    24   16   22 1   
    25   16   23 1   
    26   16   24 1   
@<TRIPOS>SUBSTRUCTURE
     1 TR7         1 TEMP              0 ****  ****    0 ROOT
