@<TRIPOS>MOLECULE
TR7
   31    32     1     0     0
SMALL
bcc


@<TRIPOS>ATOM
      1 N           0.0210   -0.2780   -0.1390 nz        1 TR7     -0.838600
      2 CA          1.5110   -0.1460   -0.0210 c3        1 TR7      0.062500
      3 C           1.9040   -0.0380    1.4470 c         1 TR7      0.609100
      4 OXT         1.1260    0.1540    2.3830 o         1 TR7     -0.520000
      5 CB          2.0380    1.0840   -0.7890 c3        1 TR7     -0.002200
      6 CG          1.5930    1.0740   -2.1820 cc        1 TR7     -0.259400
      7 CD1         2.3290    0.6490   -3.2970 cd        1 TR7     -0.034100
      8 CD2         0.3240    1.5710   -2.6780 ca        1 TR7     -0.117800
      9 NE1         1.5830    0.8170   -4.4530 na        1 TR7     -0.163400
     10 CE2         0.3510    1.3900   -4.1110 ca        1 TR7     -0.047200
     11 CE3        -0.7950    2.1630   -2.0840 ca        1 TR7     -0.153000
     12 CZ2        -0.7400    1.7680   -4.9120 ca        1 TR7     -0.110000
     13 CZ3        -1.8610    2.5360   -2.8860 ca        1 TR7     -0.114000
     14 CH2        -1.8350    2.3340   -4.2800 ca        1 TR7     -0.104000
     15 O           3.2320   -0.1760    1.6400 os        1 TR7     -0.401900
     16 CAJ         3.7010   -0.0680    2.9980 c3        1 TR7      0.122700
     17 HN1        -0.2610   -0.0800   -1.1130 hn        1 TR7      0.472800
     18 HN2        -0.2730   -1.2190    0.1310 hn        1 TR7      0.472800
     19 HA          1.9720   -1.0820   -0.4600 hx        1 TR7      0.136700
     20 HB1C        3.1600    1.0440   -0.7170 hc        1 TR7      0.097700
     21 HB2C        1.6950    2.0240   -0.2770 hc        1 TR7      0.097700
     22 HAJ1        4.8050   -0.2140    2.8890 h1        1 TR7      0.077033
     23 HAJ2        3.2320   -0.8680    3.6200 h1        1 TR7      0.077033
     24 HAJ3        3.4500    0.9430    3.4000 h1        1 TR7      0.077033
     25 HD1         3.3440    0.2390   -3.3360 h4        1 TR7      0.185000
     26 HE1         1.8950    0.6490   -5.3760 hn        1 TR7      0.322700
     27 HE3        -0.8030    2.3830   -1.0060 ha        1 TR7      0.119000
     28 HZ2        -0.7190    1.6300   -6.0020 ha        1 TR7      0.157000
     29 HZ3        -2.7450    3.0160   -2.4360 ha        1 TR7      0.150000
     30 HH2        -2.7050    2.6480   -4.8800 ha        1 TR7      0.157000
     31 HN3        -0.4330    0.4010    0.4870 hn        1 TR7      0.472800
@<TRIPOS>BOND
     1    1    2 1   
     2    1   17 1   
     3    1   18 1   
     4    1   31 1   
     5    2    3 1   
     6    2    5 1   
     7    2   19 1   
     8    3    4 2   
     9    3   15 1   
    10    5    6 1   
    11    5   20 1   
    12    5   21 1   
    13    6    7 2   
    14    6    8 1   
    15    7    9 1   
    16    7   25 1   
    17    8   10 ar  
    18    8   11 ar  
    19    9   10 1   
    20    9   26 1   
    21   10   12 ar  
    22   11   13 ar  
    23   11   27 1   
    24   12   14 ar  
    25   12   28 1   
    26   13   14 ar  
    27   13   29 1   
    28   14   30 1   
    29   15   16 1   
    30   16   22 1   
    31   16   23 1   
    32   16   24 1   
@<TRIPOS>SUBSTRUCTURE
     1 TR7         1 TEMP              0 ****  ****    0 ROOT
