@<TRIPOS>MOLECULE
TR7
   31    32     1     0     0
SMALL
bcc


@<TRIPOS>ATOM
      1 N           0.0180   -0.2700   -0.1330 n4        1 TR7     -0.838600
      2 CA          1.5080   -0.1450   -0.0190 c3        1 TR7      0.062500
      3 C           1.9050   -0.0330    1.4480 c         1 TR7      0.609100
      4 OXT         1.1300    0.1660    2.3850 o         1 TR7     -0.520000
      5 CB          2.0400    1.0790   -0.7920 c3        1 TR7     -0.002200
      6 CG          1.5920    1.0670   -2.1840 cc        1 TR7     -0.259400
      7 CD1         2.3240    0.6340   -3.3000 cd        1 TR7     -0.034100
      8 CD2         0.3250    1.5690   -2.6790 ca        1 TR7     -0.117800
      9 NE1         1.5750    0.8020   -4.4540 na        1 TR7     -0.163400
     10 CE2         0.3470    1.3830   -4.1110 ca        1 TR7     -0.047200
     11 CE3        -0.7890    2.1700   -2.0840 ca        1 TR7     -0.153000
     12 CZ2        -0.7430    1.7650   -4.9110 ca        1 TR7     -0.110000
     13 CZ3        -1.8560    2.5460   -2.8850 ca        1 TR7     -0.114000
     14 CH2        -1.8340    2.3380   -4.2790 ca        1 TR7     -0.104000
     15 O           3.2320   -0.1780    1.6390 os        1 TR7     -0.401900
     16 CAJ         3.7040   -0.0670    2.9960 c3        1 TR7      0.122700
     17 HN1        -0.4320    0.4140    0.4910 hn        1 TR7      0.472800
     18 HN2        -0.2640   -0.0740   -1.1090 hn        1 TR7      0.472800
     19 HA          1.9640   -1.0850   -0.4550 hx        1 TR7      0.136700
     20 HB1C        3.1630    1.0340   -0.7220 hc        1 TR7      0.097700
     21 HB2C        1.7040    2.0230   -0.2820 hc        1 TR7      0.097700
     22 HAJ1        3.4610    0.9470    3.3940 h1        1 TR7      0.077033
     23 HAJ2        3.2320   -0.8610    3.6220 h1        1 TR7      0.077033
     24 HAJ3        4.8070   -0.2200    2.8860 h1        1 TR7      0.077033
     25 HD1         3.3360    0.2190   -3.3400 h4        1 TR7      0.185000
     26 HE1         1.8850    0.6300   -5.3780 hn        1 TR7      0.322700
     27 HE3        -0.7940    2.3930   -1.0080 ha        1 TR7      0.119000
     28 HZ2        -0.7250    1.6230   -6.0010 ha        1 TR7      0.157000
     29 HZ3        -2.7360    3.0310   -2.4350 ha        1 TR7      0.150000
     30 HH2        -2.7040    2.6550   -4.8780 ha        1 TR7      0.157000
     31 HN3        -0.2810   -1.2080    0.1400 hn        1 TR7      0.472800
@<TRIPOS>BOND
     1    1    2 1   
     2    1   17 1   
     3    1   18 1   
     4    1   31 1   
     5    2    3 1   
     6    2    5 1   
     7    2   19 1   
     8    3    4 2   
     9    3   15 1   
    10    5    6 1   
    11    5   20 1   
    12    5   21 1   
    13    6    7 2   
    14    6    8 1   
    15    7    9 1   
    16    7   25 1   
    17    8   10 ar  
    18    8   11 ar  
    19    9   10 1   
    20    9   26 1   
    21   10   12 ar  
    22   11   13 ar  
    23   11   27 1   
    24   12   14 ar  
    25   12   28 1   
    26   13   14 ar  
    27   13   29 1   
    28   14   30 1   
    29   15   16 1   
    30   16   22 1   
    31   16   23 1   
    32   16   24 1   
@<TRIPOS>SUBSTRUCTURE
     1 TR7         1 TEMP              0 ****  ****    0 ROOT
