@<TRIPOS>MOLECULE
TR7
   31    32     1     0     0
SMALL
bcc


@<TRIPOS>ATOM
      1 N           0.0210   -0.2790   -0.1400 n4        1 TR7     -0.838600
      2 CA          1.5110   -0.1480   -0.0220 c3        1 TR7      0.062500
      3 C           1.9040   -0.0420    1.4450 c         1 TR7      0.609100
      4 OXT         1.1270    0.1490    2.3820 o         1 TR7     -0.520000
      5 CB          2.0380    1.0830   -0.7890 c3        1 TR7     -0.002200
      6 CG          1.5920    1.0760   -2.1820 cc        1 TR7     -0.259400
      7 CD1         2.3280    0.6520   -3.2980 cd        1 TR7     -0.034100
      8 CD2         0.3240    1.5730   -2.6770 ca        1 TR7     -0.117800
      9 NE1         1.5820    0.8220   -4.4530 na        1 TR7     -0.163400
     10 CE2         0.3500    1.3940   -4.1100 ca        1 TR7     -0.047200
     11 CE3        -0.7950    2.1650   -2.0810 ca        1 TR7     -0.153000
     12 CZ2        -0.7410    1.7740   -4.9100 ca        1 TR7     -0.110000
     13 CZ3        -1.8620    2.5390   -2.8830 ca        1 TR7     -0.114000
     14 CH2        -1.8360    2.3380   -4.2770 ca        1 TR7     -0.104000
     15 O           3.2320   -0.1820    1.6370 os        1 TR7     -0.401900
     16 CAJ         3.7020   -0.0750    2.9960 c3        1 TR7      0.122700
     17 HN1        -0.4330    0.3980    0.4880 hn        1 TR7      0.472800
     18 HN2        -0.2610   -0.0790   -1.1140 hn        1 TR7      0.472800
     19 HA          1.9720   -1.0830   -0.4630 hx        1 TR7      0.136700
     20 HB1C        1.6950    2.0230   -0.2750 hc        1 TR7      0.097700
     21 HB2C        3.1600    1.0430   -0.7170 hc        1 TR7      0.097700
     22 HAJ1        4.8060   -0.2230    2.8860 h1        1 TR7      0.077033
     23 HAJ2        3.2330   -0.8750    3.6160 h1        1 TR7      0.077033
     24 HAJ3        3.4530    0.9350    3.3990 h1        1 TR7      0.077033
     25 HD1         3.3430    0.2420   -3.3380 h4        1 TR7      0.185000
     26 HE1         1.8940    0.6560   -5.3760 hn        1 TR7      0.322700
     27 HE3        -0.8040    2.3830   -1.0040 ha        1 TR7      0.119000
     28 HZ2        -0.7200    1.6370   -6.0010 ha        1 TR7      0.157000
     29 HZ3        -2.7450    3.0180   -2.4320 ha        1 TR7      0.150000
     30 HH2        -2.7060    2.6530   -4.8770 ha        1 TR7      0.157000
     31 HN3        -0.2730   -1.2210    0.1280 hn        1 TR7      0.472800
@<TRIPOS>BOND
     1    1    2 1   
     2    1   17 1   
     3    1   18 1   
     4    1   31 1   
     5    2    3 1   
     6    2    5 1   
     7    2   19 1   
     8    3    4 2   
     9    3   15 1   
    10    5    6 1   
    11    5   20 1   
    12    5   21 1   
    13    6    7 2   
    14    6    8 1   
    15    7    9 1   
    16    7   25 1   
    17    8   10 ar  
    18    8   11 ar  
    19    9   10 1   
    20    9   26 1   
    21   10   12 ar  
    22   11   13 ar  
    23   11   27 1   
    24   12   14 ar  
    25   12   28 1   
    26   13   14 ar  
    27   13   29 1   
    28   14   30 1   
    29   15   16 1   
    30   16   22 1   
    31   16   23 1   
    32   16   24 1   
@<TRIPOS>SUBSTRUCTURE
     1 TR7         1 TEMP              0 ****  ****    0 ROOT
