@<TRIPOS>MOLECULE
TR9
   19    19     1     0     0
SMALL
bcc


@<TRIPOS>ATOM
      1 C1         -0.3870    1.6820    0.3240 c3        1 TR9     -0.176400
      2 C2         -1.3640    0.7390   -0.3680 c3        1 TR9      0.055100
      3 C3         -1.1190   -0.7090    0.0220 c         1 TR9      0.542300
      4 C4          0.2830   -1.1510    0.0190 ce        1 TR9     -0.186400
      5 C5          1.2770   -0.2280    0.0880 cf        1 TR9      0.037900
      6 C6          1.0320    1.2360    0.1940 c         1 TR9      0.546300
      7 C7          0.5470   -2.6040   -0.0590 c3        1 TR9     -0.050900
      8 O1          2.5790   -0.6540    0.0710 oh        1 TR9     -0.478100
      9 O2         -2.6670    1.1840   -0.0360 oh        1 TR9     -0.591800
     10 O3         -2.0720   -1.4500    0.2880 o         1 TR9     -0.519100
     11 O4          1.9890    2.0190    0.2000 o         1 TR9     -0.518100
     12 H1         -0.5070    2.7150   -0.1020 hc        1 TR9      0.102700
     13 H2         -1.2470    0.8150   -1.4900 h1        1 TR9      0.073700
     14 H3          0.6100   -2.9220   -1.1300 hc        1 TR9      0.061367
     15 H4          1.5170   -2.8560    0.4380 hc        1 TR9      0.061367
     16 H5          3.1550    0.1290    0.1530 ho        1 TR9      0.446000
     17 H6         -3.2400    0.4050    0.0410 ho        1 TR9      0.432000
     18 H7         -0.2800   -3.1760    0.4330 hc        1 TR9      0.061367
     19 H8         -0.6410    1.7490    1.4190 hc        1 TR9      0.102700
@<TRIPOS>BOND
     1    1    2 1   
     2    1    6 1   
     3    1   12 1   
     4    1   19 1   
     5    2    3 1   
     6    2    9 1   
     7    2   13 1   
     8    3    4 1   
     9    3   10 2   
    10    4    5 2   
    11    4    7 1   
    12    5    6 1   
    13    5    8 1   
    14    6   11 2   
    15    7   14 1   
    16    7   15 1   
    17    7   18 1   
    18    8   16 1   
    19    9   17 1   
@<TRIPOS>SUBSTRUCTURE
     1 TR9         1 TEMP              0 ****  ****    0 ROOT
