@<TRIPOS>MOLECULE
TR9
   19    19     1     0     0
SMALL
bcc


@<TRIPOS>ATOM
      1 C1         -0.0120    0.0510   -0.0690 c3        1 TR9     -0.176400
      2 C2          1.5070    0.1740   -0.0320 c3        1 TR9      0.055100
      3 C3          2.0600   -0.0960    1.3580 c         1 TR9      0.542300
      4 C4          1.3540    0.5550    2.4710 ce        1 TR9     -0.186400
      5 C5          0.0790    0.9900    2.2940 cf        1 TR9      0.037900
      6 C6         -0.6760    0.8230    1.0230 c         1 TR9      0.546300
      7 C7          2.0780    0.7070    3.7510 c3        1 TR9     -0.050900
      8 O1         -0.5620    1.6070    3.3370 oh        1 TR9     -0.478100
      9 O2          2.0140   -0.7210   -1.0070 oh        1 TR9     -0.591800
     10 O3          3.0650   -0.8010    1.5010 o         1 TR9     -0.519100
     11 O4         -1.8170    1.2910    0.9210 o         1 TR9     -0.518100
     12 H1         -0.3030   -1.0310    0.0300 hc        1 TR9      0.102700
     13 H2          1.8190    1.2200   -0.3270 h1        1 TR9      0.073700
     14 H3          2.8060   -0.1320    3.8880 hc        1 TR9      0.061367
     15 H4          1.3630    0.7200    4.6110 hc        1 TR9      0.061367
     16 H5         -1.4660    1.8280    3.0480 ho        1 TR9      0.446000
     17 H6          2.8510   -1.0810   -0.6770 ho        1 TR9      0.432000
     18 H7          2.6460    1.6720    3.7550 hc        1 TR9      0.061367
     19 H8         -0.3850    0.4000   -1.0690 hc        1 TR9      0.102700
@<TRIPOS>BOND
     1    1    2 1   
     2    1    6 1   
     3    1   12 1   
     4    1   19 1   
     5    2    3 1   
     6    2    9 1   
     7    2   13 1   
     8    3    4 1   
     9    3   10 2   
    10    4    5 2   
    11    4    7 1   
    12    5    6 1   
    13    5    8 1   
    14    6   11 2   
    15    7   14 1   
    16    7   15 1   
    17    7   18 1   
    18    8   16 1   
    19    9   17 1   
@<TRIPOS>SUBSTRUCTURE
     1 TR9         1 TEMP              0 ****  ****    0 ROOT
