@<TRIPOS>MOLECULE
TR9
   19    19     1     0     0
SMALL
bcc


@<TRIPOS>ATOM
      1 C1         -0.0160    0.0500   -0.0540 c3        1 TR9     -0.176400
      2 C2          1.5040    0.1600   -0.0210 c3        1 TR9      0.055100
      3 C3          2.0560   -0.1000    1.3720 c         1 TR9      0.542300
      4 C4          1.3570    0.5700    2.4790 ce        1 TR9     -0.186400
      5 C5          0.0860    1.0140    2.2990 cf        1 TR9      0.037900
      6 C6         -0.6730    0.8400    1.0300 c         1 TR9      0.546300
      7 C7          2.0840    0.7290    3.7560 c3        1 TR9     -0.050900
      8 O1         -0.5480    1.6480    3.3350 oh        1 TR9     -0.478100
      9 O2          2.0010   -0.7500   -0.9860 oh        1 TR9     -0.591800
     10 O3          3.0550   -0.8120    1.5210 o         1 TR9     -0.519100
     11 O4         -1.8090    1.3170    0.9240 o         1 TR9     -0.518100
     12 H1         -0.3880    0.3910   -1.0580 hc        1 TR9      0.102700
     13 H2          1.8240    1.2000   -0.3270 h1        1 TR9      0.073700
     14 H3          2.6590    1.6900    3.7490 hc        1 TR9      0.061367
     15 H4          2.8050   -0.1140    3.9000 hc        1 TR9      0.061367
     16 H5         -1.4500    1.8740    3.0460 ho        1 TR9      0.446000
     17 H6          2.8360   -1.1130   -0.6540 ho        1 TR9      0.432000
     18 H7          1.3700    0.7550    4.6160 hc        1 TR9      0.061367
     19 H8         -0.3170   -1.0280    0.0570 hc        1 TR9      0.102700
@<TRIPOS>BOND
     1    1    2 1   
     2    1    6 1   
     3    1   12 1   
     4    1   19 1   
     5    2    3 1   
     6    2    9 1   
     7    2   13 1   
     8    3    4 1   
     9    3   10 2   
    10    4    5 2   
    11    4    7 1   
    12    5    6 1   
    13    5    8 1   
    14    6   11 2   
    15    7   14 1   
    16    7   15 1   
    17    7   18 1   
    18    8   16 1   
    19    9   17 1   
@<TRIPOS>SUBSTRUCTURE
     1 TR9         1 TEMP              0 ****  ****    0 ROOT
