@<TRIPOS>MOLECULE
TRA
   15    14     1     0     0
SMALL
bcc


@<TRIPOS>ATOM
      1 CA         -0.0410    0.0360    0.0810 ce        1 TRA     -0.264200
      2 CB          1.2900   -0.1610    0.1040 cf        1 TRA     -0.076400
      3 CG          2.0940   -0.3640    1.3370 c3        1 TRA     -0.136200
      4 CAC        -1.0550    0.1500    1.1730 c         1 TRA      0.906800
      5 CBC         2.0460    0.0470   -1.1990 c         1 TRA      0.904800
      6 CGC         2.8220   -1.6850    1.6030 c         1 TRA      0.921600
      7 OA1        -0.7770    0.6100    2.3280 o         1 TRA     -0.910800
      8 OA2        -2.2730   -0.1350    0.8960 o         1 TRA     -0.910800
      9 OB1         1.7240   -0.5840   -2.2560 o         1 TRA     -0.898300
     10 OB2         2.9610    0.9350   -1.2460 o         1 TRA     -0.898300
     11 OG1         2.3490   -2.8190    1.2950 o         1 TRA     -0.904800
     12 OG2         3.9240   -1.6140    2.2530 o         1 TRA     -0.904800
     13 HA         -0.5120    0.1650   -0.9120 ha        1 TRA      0.084000
     14 HG1         1.4220   -0.2080    2.2280 hc        1 TRA      0.043700
     15 HG2         2.8790    0.4430    1.3460 hc        1 TRA      0.043700
@<TRIPOS>BOND
     1    1    2 2   
     2    1    4 1   
     3    1   13 1   
     4    2    3 1   
     5    2    5 1   
     6    3    6 1   
     7    3   14 1   
     8    3   15 1   
     9    4    7 1   
    10    4    8 1   
    11    5    9 1   
    12    5   10 1   
    13    6   11 1   
    14    6   12 1   
@<TRIPOS>SUBSTRUCTURE
     1 TRA         1 TEMP              0 ****  ****    0 ROOT
