@<TRIPOS>MOLECULE
TRA
   15    14     1     0     0
SMALL
bcc


@<TRIPOS>ATOM
      1 CA          0.5410   -1.3950    0.0690 ce        1 TRA     -0.264200
      2 CB         -0.3810   -0.4250    0.2080 cf        1 TRA     -0.076400
      3 CG         -0.0840    0.9720    0.6160 c3        1 TRA     -0.136200
      4 CAC         2.0190   -1.4110    0.2950 c         1 TRA      0.906800
      5 CBC        -1.8420   -0.8420    0.1470 c         1 TRA      0.904800
      6 CGC        -0.3320    2.1470   -0.3350 c         1 TRA      0.921600
      7 OA1         2.5920   -0.6740    1.1610 o         1 TRA     -0.910800
      8 OA2         2.7170   -2.2770   -0.3420 o         1 TRA     -0.910800
      9 OB1        -2.3050   -1.4780   -0.8530 o         1 TRA     -0.898300
     10 OB2        -2.5880   -0.6230    1.1580 o         1 TRA     -0.898300
     11 OG1        -0.1310    2.0910   -1.5850 o         1 TRA     -0.904800
     12 OG2        -0.6710    3.2610    0.2020 o         1 TRA     -0.904800
     13 HA          0.1790   -2.3910   -0.2500 ha        1 TRA      0.084000
     14 HG1         1.0060    1.0360    0.8940 hc        1 TRA      0.043700
     15 HG2        -0.6930    1.1740    1.5410 hc        1 TRA      0.043700
@<TRIPOS>BOND
     1    1    2 2   
     2    1    4 1   
     3    1   13 1   
     4    2    3 1   
     5    2    5 1   
     6    3    6 1   
     7    3   14 1   
     8    3   15 1   
     9    4    7 1   
    10    4    8 1   
    11    5    9 1   
    12    5   10 1   
    13    6   11 1   
    14    6   12 1   
@<TRIPOS>SUBSTRUCTURE
     1 TRA         1 TEMP              0 ****  ****    0 ROOT
