@<TRIPOS>MOLECULE
TRA
   15    14     1     0     0
SMALL
bcc


@<TRIPOS>ATOM
      1 CA         -0.0100    0.1270    0.0810 ce        1 TRA     -0.264200
      2 CB          1.3080   -0.1410    0.1130 cf        1 TRA     -0.076400
      3 CG          2.0800   -0.4410    1.3470 c3        1 TRA     -0.136200
      4 CAC        -1.0340    0.2460    1.1640 c         1 TRA      0.906800
      5 CBC         2.0940    0.0850   -1.1680 c         1 TRA      0.904800
      6 CGC         2.7340   -1.8090    1.5620 c         1 TRA      0.921600
      7 OA1        -0.7510    0.6390    2.3410 o         1 TRA     -0.910800
      8 OA2        -2.2620    0.0370    0.8580 o         1 TRA     -0.910800
      9 OB1         1.7560   -0.4800   -2.2570 o         1 TRA     -0.898300
     10 OB2         3.0550    0.9240   -1.1630 o         1 TRA     -0.898300
     11 OG1         2.2070   -2.9020    1.1960 o         1 TRA     -0.904800
     12 OG2         3.8270   -1.8260    2.2310 o         1 TRA     -0.904800
     13 HA         -0.4590    0.3240   -0.9110 ha        1 TRA      0.084000
     14 HG1         1.4030   -0.2890    2.2350 hc        1 TRA      0.043700
     15 HG2         2.9060    0.3220    1.4030 hc        1 TRA      0.043700
@<TRIPOS>BOND
     1    1    2 2   
     2    1    4 1   
     3    1   13 1   
     4    2    3 1   
     5    2    5 1   
     6    3    6 1   
     7    3   14 1   
     8    3   15 1   
     9    4    7 1   
    10    4    8 1   
    11    5    9 1   
    12    5   10 1   
    13    6   11 1   
    14    6   12 1   
@<TRIPOS>SUBSTRUCTURE
     1 TRA         1 TEMP              0 ****  ****    0 ROOT
