@<TRIPOS>MOLECULE
TRB
   41    43     1     0     0
SMALL
bcc


@<TRIPOS>ATOM
      1 N1          0.2860    1.0430    3.4140 n         1 TRB     -0.402100
      2 C1A        -0.6650    0.4250    2.5910 ca        1 TRB     -0.000400
      3 C2          1.5080    1.1560    2.7240 c         1 TRB      0.516400
      4 S2          2.8430    1.7930    3.3080 s         1 TRB     -0.515400
      5 N3          1.3190    0.5790    1.4440 n         1 TRB     -0.290000
      6 C3A        -0.0120    0.1340    1.3250 ca        1 TRB      0.019600
      7 C4          2.3210    0.6880    0.4200 c3        1 TRB      0.099000
      8 C5          2.1930   -0.3580   -0.7200 c3        1 TRB      0.187500
      9 N6          0.9650   -0.1130   -1.4740 n3        1 TRB     -0.758600
     10 C7         -0.1480   -0.9220   -1.0120 c3        1 TRB      0.227100
     11 C7A        -0.7220   -0.5090    0.3110 ca        1 TRB     -0.054300
     12 C8         -2.0650   -0.8330    0.5590 ca        1 TRB     -0.131000
     13 C9         -2.6800   -0.5390    1.7780 ca        1 TRB      0.024400
     14 CL9        -4.3120   -0.9620    2.0070 cl        1 TRB     -0.088400
     15 C10        -1.9950    0.0940    2.8210 ca        1 TRB     -0.129000
     16 C11         3.5010   -0.2970   -1.5070 c3        1 TRB     -0.105100
     17 C12         1.1020   -0.0830   -2.9210 c3        1 TRB      0.222000
     18 C13        -0.1040    0.4370   -3.6380 c2        1 TRB     -0.189200
     19 C14        -0.3680    0.1520   -4.9230 c2        1 TRB     -0.115400
     20 C15        -1.5470    0.7300   -5.6140 c3        1 TRB     -0.061400
     21 C16         0.4820   -0.7430   -5.7440 c3        1 TRB     -0.061400
     22 HN1         0.1430    1.3680    4.3370 hn        1 TRB      0.367500
     23 H41         3.3260    0.5530    0.9220 h1        1 TRB      0.078700
     24 H42         2.2850    1.7270   -0.0200 h1        1 TRB      0.078700
     25 H5          2.1520   -1.3890   -0.2450 h1        1 TRB      0.045700
     26 H71         0.1380   -2.0160   -0.9230 h1        1 TRB      0.051700
     27 H72        -0.9730   -0.8610   -1.7830 h1        1 TRB      0.051700
     28 H8         -2.6450   -1.3330   -0.2330 ha        1 TRB      0.151000
     29 H10        -2.4880    0.3170    3.7780 ha        1 TRB      0.158000
     30 H111        4.3430   -0.5790   -0.8280 hc        1 TRB      0.048367
     31 H112        3.4860   -1.0160   -2.3610 hc        1 TRB      0.048367
     32 H113        3.6950    0.7300   -1.8980 hc        1 TRB      0.048367
     33 H121        1.9530    0.6170   -3.1720 h1        1 TRB      0.041200
     34 H122        1.3680   -1.1060   -3.3280 h1        1 TRB      0.041200
     35 H13        -0.7570    1.1180   -3.0680 ha        1 TRB      0.140000
     36 H151       -1.2130    1.3670   -6.4710 hc        1 TRB      0.042867
     37 H152       -2.1930   -0.0890   -6.0190 hc        1 TRB      0.042867
     38 H153       -2.1630    1.3600   -4.9270 hc        1 TRB      0.042867
     39 H161        0.4180   -1.7950   -5.3660 hc        1 TRB      0.042867
     40 H162        0.1600   -0.7370   -6.8140 hc        1 TRB      0.042867
     41 H163        1.5520   -0.4210   -5.6980 hc        1 TRB      0.042867
@<TRIPOS>BOND
     1    1    2 1   
     2    1    3 1   
     3    1   22 1   
     4    2    6 ar  
     5    2   15 ar  
     6    3    4 2   
     7    3    5 1   
     8    5    6 1   
     9    5    7 1   
    10    6   11 ar  
    11    7    8 1   
    12    7   23 1   
    13    7   24 1   
    14    8    9 1   
    15    8   16 1   
    16    8   25 1   
    17    9   10 1   
    18    9   17 1   
    19   10   11 1   
    20   10   26 1   
    21   10   27 1   
    22   11   12 ar  
    23   12   13 ar  
    24   12   28 1   
    25   13   14 1   
    26   13   15 ar  
    27   15   29 1   
    28   16   30 1   
    29   16   31 1   
    30   16   32 1   
    31   17   18 1   
    32   17   33 1   
    33   17   34 1   
    34   18   19 2   
    35   18   35 1   
    36   19   20 1   
    37   19   21 1   
    38   20   36 1   
    39   20   37 1   
    40   20   38 1   
    41   21   39 1   
    42   21   40 1   
    43   21   41 1   
@<TRIPOS>SUBSTRUCTURE
     1 TRB         1 TEMP              0 ****  ****    0 ROOT
