@<TRIPOS>MOLECULE
TRB
   41    43     1     0     0
SMALL
bcc


@<TRIPOS>ATOM
      1 N1          0.1540    1.0230   -0.0270 ns        1 TRB     -0.402100
      2 C1A         1.4030    0.3880   -0.0770 ca        1 TRB     -0.000400
      3 C2         -0.2830    1.1010    1.3090 c         1 TRB      0.516400
      4 S2         -1.6550    1.7430    1.7950 s         1 TRB     -0.515400
      5 N3          0.7080    0.4840    2.1100 n         1 TRB     -0.290000
      6 C3A         1.7660    0.0480    1.2880 ca        1 TRB      0.019600
      7 C4          0.6570    0.5490    3.5440 c3        1 TRB      0.099000
      8 C5          1.5030   -0.5320    4.2690 c3        1 TRB      0.187500
      9 N6          2.9220   -0.3000    4.0070 n3        1 TRB     -0.758600
     10 C7          3.4240   -1.0830    2.8920 c3        1 TRB      0.227100
     11 C7A         2.9650   -0.6210    1.5410 ca        1 TRB     -0.054300
     12 C8          3.7860   -0.9220    0.4440 ca        1 TRB     -0.131000
     13 C9          3.4260   -0.5820   -0.8620 ca        1 TRB      0.024400
     14 Cl9         4.4720   -0.9820   -2.1420 cl        1 TRB     -0.088400
     15 C10         2.2260    0.0780   -1.1530 ca        1 TRB     -0.129000
     16 C11         1.0660   -0.5110    5.7320 c3        1 TRB     -0.105100
     17 C12         3.7950   -0.3200    5.1700 c3        1 TRB      0.221000
     18 C13         5.1770    0.1880    4.9050 c2        1 TRB     -0.189200
     19 C14         6.2330   -0.1380    5.6680 c2        1 TRB     -0.115400
     20 C15         7.5790    0.4290    5.4040 c3        1 TRB     -0.061400
     21 C16         6.1430   -1.0690    6.8180 c3        1 TRB     -0.061400
     22 HN1        -0.3560    1.3790   -0.7950 hn        1 TRB      0.367500
     23 H41        -0.4260    0.4200    3.8450 h1        1 TRB      0.078700
     24 H42         0.9950    1.5730    3.8780 h1        1 TRB      0.078700
     25 H5          1.1990   -1.5470    3.8580 h1        1 TRB      0.045700
     26 H71         4.5530   -1.0380    2.9080 h1        1 TRB      0.051700
     27 H72         3.1350   -2.1760    2.9850 h1        1 TRB      0.051700
     28 H8          4.7410   -1.4440    0.6240 ha        1 TRB      0.151000
     29 H10         1.9500    0.3370   -2.1840 ha        1 TRB      0.158000
     30 H111       -0.0180   -0.7790    5.7880 hc        1 TRB      0.048367
     31 H112        1.2000    0.5010    6.1840 hc        1 TRB      0.048367
     32 H113        1.6400   -1.2580    6.3310 hc        1 TRB      0.048367
     33 H121        3.3450    0.3630    5.9500 h1        1 TRB      0.041200
     34 H122        3.8560   -1.3580    5.6180 h1        1 TRB      0.041200
     35 H13         5.2870    0.8950    4.0660 ha        1 TRB      0.140000
     36 H151        7.9180    1.0320    6.2830 hc        1 TRB      0.042867
     37 H152        7.5810    1.0880    4.5020 hc        1 TRB      0.042867
     38 H153        8.3160   -0.3970    5.2410 hc        1 TRB      0.042867
     39 H161        7.1020   -1.0960    7.3920 hc        1 TRB      0.042867
     40 H162        5.9190   -2.1070    6.4620 hc        1 TRB      0.042867
     41 H163        5.3250   -0.7570    7.5150 hc        1 TRB      0.042867
@<TRIPOS>BOND
     1    1    2 1   
     2    1    3 1   
     3    1   22 1   
     4    2    6 ar  
     5    2   15 ar  
     6    3    4 2   
     7    3    5 1   
     8    5    6 1   
     9    5    7 1   
    10    6   11 ar  
    11    7    8 1   
    12    7   23 1   
    13    7   24 1   
    14    8    9 1   
    15    8   16 1   
    16    8   25 1   
    17    9   10 1   
    18    9   17 1   
    19   10   11 1   
    20   10   26 1   
    21   10   27 1   
    22   11   12 ar  
    23   12   13 ar  
    24   12   28 1   
    25   13   14 1   
    26   13   15 ar  
    27   15   29 1   
    28   16   30 1   
    29   16   31 1   
    30   16   32 1   
    31   17   18 1   
    32   17   33 1   
    33   17   34 1   
    34   18   19 2   
    35   18   35 1   
    36   19   20 1   
    37   19   21 1   
    38   20   36 1   
    39   20   37 1   
    40   20   38 1   
    41   21   39 1   
    42   21   40 1   
    43   21   41 1   
@<TRIPOS>SUBSTRUCTURE
     1 TRB         1 TEMP              0 ****  ****    0 ROOT
