@<TRIPOS>MOLECULE
TRB
   41    43     1     0     0
SMALL
bcc


@<TRIPOS>ATOM
      1 N1          0.1450    1.0100   -0.0230 n         1 TRB     -0.402100
      2 C1A         1.3990    0.3840   -0.0760 ca        1 TRB     -0.000400
      3 C2         -0.2930    1.0800    1.3120 c         1 TRB      0.516400
      4 S2         -1.6690    1.7100    1.8010 s         1 TRB     -0.515400
      5 N3          0.7030    0.4680    2.1120 n         1 TRB     -0.290000
      6 C3A         1.7650    0.0430    1.2890 ca        1 TRB      0.019600
      7 C4          0.6510    0.5290    3.5460 c3        1 TRB      0.099000
      8 C5          1.5060   -0.5480    4.2680 c3        1 TRB      0.187500
      9 N6          2.9230   -0.3050    4.0070 n3        1 TRB     -0.758600
     10 C7          3.4310   -1.0790    2.8900 c3        1 TRB      0.227100
     11 C7A         2.9680   -0.6170    1.5390 ca        1 TRB     -0.054300
     12 C8          3.7920   -0.9090    0.4420 ca        1 TRB     -0.131000
     13 C9          3.4290   -0.5680   -0.8630 ca        1 TRB      0.024400
     14 CL9         4.4790   -0.9550   -2.1440 cl        1 TRB     -0.088400
     15 C10         2.2250    0.0840   -1.1520 ca        1 TRB     -0.129000
     16 C11         1.0680   -0.5350    5.7310 c3        1 TRB     -0.105100
     17 C12         3.7960   -0.3210    5.1700 c3        1 TRB      0.222000
     18 C13         5.1740    0.1990    4.9070 c2        1 TRB     -0.189200
     19 C14         6.2320   -0.1200    5.6680 c2        1 TRB     -0.115400
     20 C15         7.5730    0.4570    5.4060 c3        1 TRB     -0.061400
     21 C16         6.1490   -1.0560    6.8160 c3        1 TRB     -0.061400
     22 HN1        -0.3670    1.3640   -0.7900 hn        1 TRB      0.367500
     23 H41        -0.4300    0.3910    3.8470 h1        1 TRB      0.078700
     24 H42         0.9820    1.5550    3.8840 h1        1 TRB      0.078700
     25 H5          1.2100   -1.5640    3.8540 h1        1 TRB      0.045700
     26 H71         3.1510   -2.1750    2.9790 h1        1 TRB      0.051700
     27 H72         4.5600   -1.0270    2.9060 h1        1 TRB      0.051700
     28 H8          4.7510   -1.4230    0.6200 ha        1 TRB      0.151000
     29 H10         1.9470    0.3440   -2.1830 ha        1 TRB      0.158000
     30 H111       -0.0130   -0.8110    5.7860 hc        1 TRB      0.048367
     31 H112        1.6480   -1.2790    6.3280 hc        1 TRB      0.048367
     32 H113        1.1950    0.4770    6.1860 hc        1 TRB      0.048367
     33 H121        3.3400    0.3560    5.9520 h1        1 TRB      0.041200
     34 H122        3.8650   -1.3600    5.6140 h1        1 TRB      0.041200
     35 H13         5.2780    0.9080    4.0690 ha        1 TRB      0.140000
     36 H151        7.9080    1.0610    6.2870 hc        1 TRB      0.042867
     37 H152        7.5710    1.1190    4.5060 hc        1 TRB      0.042867
     38 H153        8.3180   -0.3620    5.2420 hc        1 TRB      0.042867
     39 H161        5.3290   -0.7510    7.5140 hc        1 TRB      0.042867
     40 H162        7.1080   -1.0760    7.3910 hc        1 TRB      0.042867
     41 H163        5.9340   -2.0940    6.4580 hc        1 TRB      0.042867
@<TRIPOS>BOND
     1    1    2 1   
     2    1    3 1   
     3    1   22 1   
     4    2    6 ar  
     5    2   15 ar  
     6    3    4 2   
     7    3    5 1   
     8    5    6 1   
     9    5    7 1   
    10    6   11 ar  
    11    7    8 1   
    12    7   23 1   
    13    7   24 1   
    14    8    9 1   
    15    8   16 1   
    16    8   25 1   
    17    9   10 1   
    18    9   17 1   
    19   10   11 1   
    20   10   26 1   
    21   10   27 1   
    22   11   12 ar  
    23   12   13 ar  
    24   12   28 1   
    25   13   14 1   
    26   13   15 ar  
    27   15   29 1   
    28   16   30 1   
    29   16   31 1   
    30   16   32 1   
    31   17   18 1   
    32   17   33 1   
    33   17   34 1   
    34   18   19 2   
    35   18   35 1   
    36   19   20 1   
    37   19   21 1   
    38   20   36 1   
    39   20   37 1   
    40   20   38 1   
    41   21   39 1   
    42   21   40 1   
    43   21   41 1   
@<TRIPOS>SUBSTRUCTURE
     1 TRB         1 TEMP              0 ****  ****    0 ROOT
