@<TRIPOS>MOLECULE
TRC
   17    16     1     0     0
SMALL
bcc


@<TRIPOS>ATOM
      1 C1          1.5750    0.0750    1.6580 c         1 TRC      0.908600
      2 O1          1.6590    1.3340    1.7970 o         1 TRC     -0.908800
      3 O2          2.2440   -0.6920    2.4380 o         1 TRC     -0.908800
      4 C2          0.7710   -0.5860    0.5400 c3        1 TRC     -0.150900
      5 C3         -0.4440    0.1410   -0.0110 c3        1 TRC     -0.123700
      6 C4         -0.6900   -0.2190   -1.4780 c3        1 TRC     -0.150900
      7 C5          0.2650    0.2970   -2.5520 c         1 TRC      0.908600
      8 O3          0.0590    1.4300   -3.0990 o         1 TRC     -0.908800
      9 O4          1.1860   -0.4640   -2.9980 o         1 TRC     -0.908800
     10 C6         -1.7440   -0.2330    0.7380 c         1 TRC      0.912600
     11 O5         -2.0560   -1.4530    0.9330 o         1 TRC     -0.907800
     12 O6         -2.5420    0.6900    1.1090 o         1 TRC     -0.907800
     13 H21         1.4980   -0.7420   -0.3040 hc        1 TRC      0.020700
     14 H22         0.4480   -1.5980    0.9030 hc        1 TRC      0.020700
     15 H3         -0.2830    1.2460    0.0870 hc        1 TRC      0.062700
     16 H41        -0.7130   -1.3390   -1.5530 hc        1 TRC      0.020700
     17 H42        -1.7120    0.1620   -1.7500 hc        1 TRC      0.020700
@<TRIPOS>BOND
     1    1    2 1   
     2    1    3 1   
     3    1    4 1   
     4    4    5 1   
     5    4   13 1   
     6    4   14 1   
     7    5    6 1   
     8    5   10 1   
     9    5   15 1   
    10    6    7 1   
    11    6   16 1   
    12    6   17 1   
    13    7    8 1   
    14    7    9 1   
    15   10   11 1   
    16   10   12 1   
@<TRIPOS>SUBSTRUCTURE
     1 TRC         1 TEMP              0 ****  ****    0 ROOT
