@<TRIPOS>MOLECULE
TRC
   17    16     1     0     0
SMALL
bcc


@<TRIPOS>ATOM
      1 C1         -0.2240   -0.2060    0.1600 c         1 TRC      0.908600
      2 O1          0.6430   -1.1140    0.3460 o         1 TRC     -0.908800
      3 O2         -0.7970    0.3350    1.1710 o         1 TRC     -0.908800
      4 C2         -0.6900    0.2270   -1.2290 c3        1 TRC     -0.150900
      5 C3          0.2780    0.1010   -2.3940 c3        1 TRC     -0.123700
      6 C4         -0.4640   -0.1320   -3.7120 c3        1 TRC     -0.150900
      7 C5         -1.1460   -1.4740   -3.9670 c         1 TRC      0.908600
      8 O3         -0.4940   -2.4290   -4.5030 o         1 TRC     -0.908800
      9 O4         -2.4000   -1.5940   -3.7720 o         1 TRC     -0.908800
     10 C6          1.1170    1.3830   -2.6040 c         1 TRC      0.912600
     11 O5          0.5570    2.5260   -2.6640 o         1 TRC     -0.907800
     12 O6          2.3760    1.2870   -2.7800 o         1 TRC     -0.907800
     13 H21        -1.5930   -0.4040   -1.4560 hc        1 TRC      0.020700
     14 H22        -1.0280    1.2940   -1.1600 hc        1 TRC      0.020700
     15 H3          0.9780   -0.7530   -2.1960 hc        1 TRC      0.062700
     16 H41        -1.2450    0.6700   -3.8070 hc        1 TRC      0.020700
     17 H42         0.2770    0.0130   -4.5440 hc        1 TRC      0.020700
@<TRIPOS>BOND
     1    1    2 1   
     2    1    3 1   
     3    1    4 1   
     4    4    5 1   
     5    4   13 1   
     6    4   14 1   
     7    5    6 1   
     8    5   10 1   
     9    5   15 1   
    10    6    7 1   
    11    6   16 1   
    12    6   17 1   
    13    7    8 1   
    14    7    9 1   
    15   10   11 1   
    16   10   12 1   
@<TRIPOS>SUBSTRUCTURE
     1 TRC         1 TEMP              0 ****  ****    0 ROOT
