@<TRIPOS>MOLECULE
TRC
   17    16     1     0     0
SMALL
bcc


@<TRIPOS>ATOM
      1 C1         -0.3050   -0.1580    0.1620 c         1 TRC      0.908600
      2 O1          0.5640   -1.0530    0.3950 o         1 TRC     -0.908800
      3 O2         -0.9170    0.3970    1.1420 o         1 TRC     -0.908800
      4 C2         -0.7280    0.2430   -1.2500 c3        1 TRC     -0.150900
      5 C3          0.2800    0.1040   -2.3790 c3        1 TRC     -0.123700
      6 C4         -0.4160   -0.1620   -3.7160 c3        1 TRC     -0.150900
      7 C5         -1.0760   -1.5150   -3.9670 c         1 TRC      0.908600
      8 O3         -0.3980   -2.4750   -4.4610 o         1 TRC     -0.908800
      9 O4         -2.3350   -1.6430   -3.8120 o         1 TRC     -0.908800
     10 C6          1.1140    1.3900   -2.5860 c         1 TRC      0.912600
     11 O5          0.5460    2.5260   -2.6880 o         1 TRC     -0.907800
     12 O6          2.3790    1.3020   -2.7190 o         1 TRC     -0.907800
     13 H21        -1.6170   -0.4010   -1.4950 hc        1 TRC      0.020700
     14 H22        -1.0780    1.3080   -1.2130 hc        1 TRC      0.020700
     15 H3          0.9810   -0.7390   -2.1410 hc        1 TRC      0.062700
     16 H41        -1.1990    0.6300   -3.8540 hc        1 TRC      0.020700
     17 H42         0.3520   -0.0260   -4.5260 hc        1 TRC      0.020700
@<TRIPOS>BOND
     1    1    2 1   
     2    1    3 1   
     3    1    4 1   
     4    4    5 1   
     5    4   13 1   
     6    4   14 1   
     7    5    6 1   
     8    5   10 1   
     9    5   15 1   
    10    6    7 1   
    11    6   16 1   
    12    6   17 1   
    13    7    8 1   
    14    7    9 1   
    15   10   11 1   
    16   10   12 1   
@<TRIPOS>SUBSTRUCTURE
     1 TRC         1 TEMP              0 ****  ****    0 ROOT
