@<TRIPOS>MOLECULE
TRD
   41    40     1     0     0
SMALL
bcc


@<TRIPOS>ATOM
      1 C1         -6.2730    0.0120   -3.9660 c3        1 TRD     -0.092100
      2 C2         -4.7600    0.0120   -3.9660 c3        1 TRD     -0.080400
      3 C3         -4.2560    0.0120   -2.5400 c3        1 TRD     -0.079400
      4 C4         -2.7430    0.0040   -2.5400 c3        1 TRD     -0.079400
      5 C5         -2.2390    0.0120   -1.1130 c3        1 TRD     -0.079400
      6 C6         -0.7260   -0.0040   -1.1130 c3        1 TRD     -0.079400
      7 C7         -0.2210    0.0110    0.3130 c3        1 TRD     -0.079400
      8 C8          1.2910   -0.0140    0.3130 c3        1 TRD     -0.079400
      9 C9          1.7960    0.0090    1.7390 c3        1 TRD     -0.079400
     10 C10         3.3080   -0.0250    1.7400 c3        1 TRD     -0.079400
     11 C11         3.8130    0.0040    3.1660 c3        1 TRD     -0.079400
     12 C12         5.3250   -0.0370    3.1660 c3        1 TRD     -0.080400
     13 C13         5.8300   -0.0020    4.5920 c3        1 TRD     -0.092100
     14 H11        -6.5980    0.0150   -4.8860 hc        1 TRD      0.032700
     15 H12        -6.5980    0.8080   -3.5040 hc        1 TRD      0.032700
     16 H13        -6.5980   -0.7860   -3.5080 hc        1 TRD      0.032700
     17 H21        -4.4350    0.8090   -4.4260 hc        1 TRD      0.038700
     18 H22        -4.4350   -0.7850   -4.4260 hc        1 TRD      0.038700
     19 H31        -4.5850   -0.7820   -2.0780 hc        1 TRD      0.039700
     20 H32        -4.5770    0.8120   -2.0810 hc        1 TRD      0.039700
     21 H41        -2.4130    0.7960   -3.0060 hc        1 TRD      0.039700
     22 H42        -2.4220   -0.7980   -2.9940 hc        1 TRD      0.039700
     23 H51        -2.5720   -0.7770   -0.6460 hc        1 TRD      0.039700
     24 H52        -2.5550    0.8170   -0.6610 hc        1 TRD      0.039700
     25 H61        -0.4090   -0.8110   -1.5620 hc        1 TRD      0.039700
     26 H62        -0.3920    0.7830   -1.5850 hc        1 TRD      0.039700
     27 H71        -0.5330    0.8210    0.7600 hc        1 TRD      0.039700
     28 H72        -0.5600   -0.7720    0.7860 hc        1 TRD      0.039700
     29 H81         1.6030   -0.8260   -0.1290 hc        1 TRD      0.039700
     30 H82         1.6300    0.7670   -0.1640 hc        1 TRD      0.039700
     31 H91         1.4530   -0.7700    2.2180 hc        1 TRD      0.039700
     32 H92         1.4880    0.8230    2.1800 hc        1 TRD      0.039700
     33 H101        3.6510    0.7510    1.2570 hc        1 TRD      0.039700
     34 H102        3.6160   -0.8420    1.3020 hc        1 TRD      0.039700
     35 H111        3.4660   -0.7700    3.6490 hc        1 TRD      0.039700
     36 H112        3.5100    0.8230    3.6020 hc        1 TRD      0.039700
     37 H121        5.6290   -0.8570    2.7340 hc        1 TRD      0.038700
     38 H122        5.6720    0.7350    2.6790 hc        1 TRD      0.038700
     39 H131        5.5280    0.8200    5.0240 hc        1 TRD      0.032700
     40 H132        5.4820   -0.7730    5.0790 hc        1 TRD      0.032700
     41 H133        6.8060   -0.0300    4.5930 hc        1 TRD      0.032700
@<TRIPOS>BOND
     1    1    2 1   
     2    1   14 1   
     3    1   15 1   
     4    1   16 1   
     5    2    3 1   
     6    2   17 1   
     7    2   18 1   
     8    3    4 1   
     9    3   19 1   
    10    3   20 1   
    11    4    5 1   
    12    4   21 1   
    13    4   22 1   
    14    5    6 1   
    15    5   23 1   
    16    5   24 1   
    17    6    7 1   
    18    6   25 1   
    19    6   26 1   
    20    7    8 1   
    21    7   27 1   
    22    7   28 1   
    23    8    9 1   
    24    8   29 1   
    25    8   30 1   
    26    9   10 1   
    27    9   31 1   
    28    9   32 1   
    29   10   11 1   
    30   10   33 1   
    31   10   34 1   
    32   11   12 1   
    33   11   35 1   
    34   11   36 1   
    35   12   13 1   
    36   12   37 1   
    37   12   38 1   
    38   13   39 1   
    39   13   40 1   
    40   13   41 1   
@<TRIPOS>SUBSTRUCTURE
     1 TRD         1 TEMP              0 ****  ****    0 ROOT
