@<TRIPOS>MOLECULE
TRD
   41    40     1     0     0
SMALL
bcc


@<TRIPOS>ATOM
      1 C1         -0.3930   -0.0000    7.4950 c3        1 TRD     -0.092100
      2 C2          0.4570   -0.0000    6.2500 c3        1 TRD     -0.079400
      3 C3         -0.3930   -0.0000    4.9970 c3        1 TRD     -0.079400
      4 C4          0.4640    0.0000    3.7500 c3        1 TRD     -0.079400
      5 C5         -0.3870    0.0000    2.4980 c3        1 TRD     -0.078400
      6 C6          0.4690    0.0000    1.2500 c3        1 TRD     -0.079400
      7 C7         -0.3850    0.0000   -0.0000 c3        1 TRD     -0.078400
      8 C8          0.4690   -0.0000   -1.2500 c3        1 TRD     -0.079400
      9 C9         -0.3870   -0.0000   -2.4980 c3        1 TRD     -0.078400
     10 C10         0.4640   -0.0000   -3.7500 c3        1 TRD     -0.079400
     11 C11        -0.3930    0.0000   -4.9970 c3        1 TRD     -0.079400
     12 C12         0.4570    0.0000   -6.2500 c3        1 TRD     -0.079400
     13 C13        -0.3930    0.0000   -7.4950 c3        1 TRD     -0.092100
     14 H11        -1.0470   -0.9050    7.5260 hc        1 TRD      0.032700
     15 H12         0.2530    0.0000    8.4060 hc        1 TRD      0.032700
     16 H13        -1.0470    0.9050    7.5260 hc        1 TRD      0.032700
     17 H21         1.1240    0.9020    6.2490 hc        1 TRD      0.038700
     18 H22         1.1240   -0.9020    6.2490 hc        1 TRD      0.038700
     19 H31        -1.0590   -0.9020    4.9960 hc        1 TRD      0.039700
     20 H32        -1.0590    0.9020    4.9960 hc        1 TRD      0.039700
     21 H41         1.1310    0.9020    3.7510 hc        1 TRD      0.039700
     22 H42         1.1310   -0.9020    3.7510 hc        1 TRD      0.039700
     23 H51        -1.0540   -0.9030    2.4970 hc        1 TRD      0.039700
     24 H52        -1.0540    0.9030    2.4970 hc        1 TRD      0.039700
     25 H61         1.1350    0.9030    1.2510 hc        1 TRD      0.039700
     26 H62         1.1350   -0.9030    1.2510 hc        1 TRD      0.039700
     27 H71        -1.0520   -0.9030    0.0000 hc        1 TRD      0.039700
     28 H72        -1.0520    0.9030    0.0000 hc        1 TRD      0.039700
     29 H81         1.1350    0.9030   -1.2510 hc        1 TRD      0.039700
     30 H82         1.1350   -0.9030   -1.2510 hc        1 TRD      0.039700
     31 H91        -1.0540   -0.9030   -2.4970 hc        1 TRD      0.039700
     32 H92        -1.0540    0.9030   -2.4970 hc        1 TRD      0.039700
     33 H101        1.1310    0.9020   -3.7510 hc        1 TRD      0.039700
     34 H102        1.1310   -0.9020   -3.7510 hc        1 TRD      0.039700
     35 H111       -1.0590   -0.9020   -4.9960 hc        1 TRD      0.039700
     36 H112       -1.0590    0.9020   -4.9960 hc        1 TRD      0.039700
     37 H121        1.1240    0.9020   -6.2490 hc        1 TRD      0.038700
     38 H122        1.1240   -0.9020   -6.2490 hc        1 TRD      0.038700
     39 H131        0.2530   -0.0000   -8.4060 hc        1 TRD      0.032700
     40 H132       -1.0470   -0.9050   -7.5260 hc        1 TRD      0.032700
     41 H133       -1.0470    0.9050   -7.5260 hc        1 TRD      0.032700
@<TRIPOS>BOND
     1    1    2 1   
     2    1   14 1   
     3    1   15 1   
     4    1   16 1   
     5    2    3 1   
     6    2   17 1   
     7    2   18 1   
     8    3    4 1   
     9    3   19 1   
    10    3   20 1   
    11    4    5 1   
    12    4   21 1   
    13    4   22 1   
    14    5    6 1   
    15    5   23 1   
    16    5   24 1   
    17    6    7 1   
    18    6   25 1   
    19    6   26 1   
    20    7    8 1   
    21    7   27 1   
    22    7   28 1   
    23    8    9 1   
    24    8   29 1   
    25    8   30 1   
    26    9   10 1   
    27    9   31 1   
    28    9   32 1   
    29   10   11 1   
    30   10   33 1   
    31   10   34 1   
    32   11   12 1   
    33   11   35 1   
    34   11   36 1   
    35   12   13 1   
    36   12   37 1   
    37   12   38 1   
    38   13   39 1   
    39   13   40 1   
    40   13   41 1   
@<TRIPOS>SUBSTRUCTURE
     1 TRD         1 TEMP              0 ****  ****    0 ROOT
