@<TRIPOS>MOLECULE
TRE
   45    46     1     0     0
SMALL
bcc


@<TRIPOS>ATOM
      1 C1         -0.7770   -0.8240    0.9100 c3        1 TRE      0.311900
      2 C2         -1.7860    0.1390    1.5610 c3        1 TRE      0.094100
      3 C3         -1.0650    1.1400    2.4730 c3        1 TRE      0.075100
      4 C4         -0.1490    0.3920    3.4550 c3        1 TRE      0.128100
      5 C5          0.8300   -0.4900    2.6680 c3        1 TRE      0.102100
      6 C6          1.6600   -1.3630    3.6140 c3        1 TRE      0.141400
      7 O1          0.0000   -0.0590   -0.0000 os        1 TRE     -0.501600
      8 O2         -2.5530    0.8180    0.5910 oh        1 TRE     -0.584800
      9 O3         -1.9880    1.8750    3.2570 oh        1 TRE     -0.603800
     10 O4          0.6300    1.3070    4.2040 oh        1 TRE     -0.593800
     11 O5          0.1210   -1.4060    1.8230 os        1 TRE     -0.443600
     12 O6          2.6280   -2.1070    2.9090 oh        1 TRE     -0.590800
     13 C1P         0.7790   -0.8240   -0.9100 c3        1 TRE      0.311900
     14 C2P         1.7860    0.1410   -1.5610 c3        1 TRE      0.094100
     15 C3P         1.0630    1.1400   -2.4740 c3        1 TRE      0.075100
     16 C4P         0.1480    0.3900   -3.4560 c3        1 TRE      0.128100
     17 C5P        -0.8290   -0.4940   -2.6680 c3        1 TRE      0.102100
     18 C6P        -1.6580   -1.3680   -3.6140 c3        1 TRE      0.141400
     19 O2P         2.5520    0.8220   -0.5920 oh        1 TRE     -0.584800
     20 O3P         1.9850    1.8760   -3.2590 oh        1 TRE     -0.603800
     21 O4P        -0.6320    1.3030   -4.2060 oh        1 TRE     -0.593800
     22 O5P        -0.1190   -1.4070   -1.8230 os        1 TRE     -0.443600
     23 O6P        -2.6240   -2.1130   -2.9080 oh        1 TRE     -0.590800
     24 HC1        -1.2840   -1.6890    0.3950 h2        1 TRE      0.108700
     25 HC2        -2.5350   -0.4590    2.1540 h1        1 TRE      0.106700
     26 HC3        -0.4560    1.8530    1.8480 h1        1 TRE      0.057700
     27 HC4        -0.7750   -0.2340    4.1490 h1        1 TRE      0.061700
     28 HC5         1.5010    0.1470    2.0290 h1        1 TRE      0.074700
     29 HC61        0.9870   -2.0450    4.1970 h1        1 TRE      0.065700
     30 HC62        2.2390   -0.6960    4.3090 h1        1 TRE      0.065700
     31 HO2        -1.9390    1.2300   -0.0340 ho        1 TRE      0.417000
     32 HO3        -2.6800    2.1840    2.6570 ho        1 TRE      0.426000
     33 HO4         0.0070    1.9210    4.6180 ho        1 TRE      0.427000
     34 HO6         2.1520   -2.6780    2.2920 ho        1 TRE      0.407000
     35 HC1P        1.2870   -1.6870   -0.3940 h2        1 TRE      0.108700
     36 HC2P        2.5350   -0.4570   -2.1550 h1        1 TRE      0.106700
     37 HC3P        0.4530    1.8520   -1.8490 h1        1 TRE      0.057700
     38 HC4P        0.7760   -0.2350   -4.1500 h1        1 TRE      0.061700
     39 HC5P       -1.5010    0.1430   -2.0300 h1        1 TRE      0.074700
     40 H6P1       -2.2370   -0.7020   -4.3090 h1        1 TRE      0.065700
     41 H6P2       -0.9830   -2.0490   -4.1960 h1        1 TRE      0.065700
     42 HO2P        1.9370    1.2330    0.0330 ho        1 TRE      0.417000
     43 HO3P        2.6770    2.1870   -2.6590 ho        1 TRE      0.426000
     44 HO4P       -0.0100    1.9180   -4.6200 ho        1 TRE      0.427000
     45 HO6P       -2.1480   -2.6830   -2.2910 ho        1 TRE      0.407000
@<TRIPOS>BOND
     1    1    2 1   
     2    1    7 1   
     3    1   11 1   
     4    1   24 1   
     5    2    3 1   
     6    2    8 1   
     7    2   25 1   
     8    3    4 1   
     9    3    9 1   
    10    3   26 1   
    11    4    5 1   
    12    4   10 1   
    13    4   27 1   
    14    5    6 1   
    15    5   11 1   
    16    5   28 1   
    17    6   12 1   
    18    6   29 1   
    19    6   30 1   
    20    7   13 1   
    21    8   31 1   
    22    9   32 1   
    23   10   33 1   
    24   12   34 1   
    25   13   14 1   
    26   13   22 1   
    27   13   35 1   
    28   14   15 1   
    29   14   19 1   
    30   14   36 1   
    31   15   16 1   
    32   15   20 1   
    33   15   37 1   
    34   16   17 1   
    35   16   21 1   
    36   16   38 1   
    37   17   18 1   
    38   17   22 1   
    39   17   39 1   
    40   18   23 1   
    41   18   40 1   
    42   18   41 1   
    43   19   42 1   
    44   20   43 1   
    45   21   44 1   
    46   23   45 1   
@<TRIPOS>SUBSTRUCTURE
     1 TRE         1 TEMP              0 ****  ****    0 ROOT
