@<TRIPOS>MOLECULE
TRF
   28    29     1     0     0
SMALL
bcc


@<TRIPOS>ATOM
      1 N           1.3920    1.0380    2.7920 n3        1 TRF     -0.884800
      2 CA          0.2360    0.4100    2.1660 c3        1 TRF      0.021500
      3 CB          0.6150   -0.8240    1.3250 c3        1 TRF     -0.009200
      4 CG          0.5880   -0.5440   -0.1180 cc        1 TRF     -0.051400
      5 CD1         1.6330   -0.5720   -1.0210 cd        1 TRF     -0.098400
      6 NE1         1.1660   -0.2710   -2.3350 n         1 TRF     -0.272200
      7 CE2        -0.2300   -0.0400   -2.2460 ca        1 TRF     -0.007400
      8 CZ2        -1.1740    0.2870   -3.2220 ca        1 TRF     -0.169000
      9 CH2        -2.4960    0.4510   -2.8110 ca        1 TRF     -0.122000
     10 CZ3        -2.8770    0.2960   -1.4740 ca        1 TRF     -0.164000
     11 CE3        -1.9460   -0.0310   -0.4870 ca        1 TRF     -0.065000
     12 CD2        -0.6210   -0.2040   -0.8680 ca        1 TRF     -0.078800
     13 C          -0.8990    0.0040    3.1640 c         1 TRF      0.886600
     14 C1          1.9240   -0.2020   -3.4860 c         1 TRF      0.675900
     15 O1          3.1440   -0.4250   -3.5120 o         1 TRF     -0.595100
     16 O          -0.6840    0.1340    4.4010 o         1 TRF     -0.842800
     17 OXT        -1.9840   -0.4150    2.6680 o         1 TRF     -0.842800
     18 H           1.8140    0.3700    3.4150 hn        1 TRF      0.331800
     19 H2          1.0470    1.7820    3.3750 hn        1 TRF      0.331800
     20 HA         -0.2210    1.1830    1.4800 h1        1 TRF      0.050700
     21 HB2         1.6220   -1.2220    1.6160 hc        1 TRF      0.056700
     22 HB3        -0.1460   -1.6280    1.5370 hc        1 TRF      0.056700
     23 HD1         2.6960   -0.7710   -0.8710 h4        1 TRF      0.178000
     24 HZ2        -0.8950    0.4160   -4.2750 ha        1 TRF      0.115000
     25 HH2        -3.2570    0.7100   -3.5620 ha        1 TRF      0.114000
     26 HZ3        -3.9300    0.4380   -1.1920 ha        1 TRF      0.128000
     27 HE3        -2.2270   -0.1500    0.5850 ha        1 TRF      0.225000
     28 HC1         1.3360    0.0700   -4.3940 h5        1 TRF      0.031200
@<TRIPOS>BOND
     1    1    2 1   
     2    1   18 1   
     3    1   19 1   
     4    2    3 1   
     5    2   13 1   
     6    2   20 1   
     7    3    4 1   
     8    3   21 1   
     9    3   22 1   
    10    4    5 2   
    11    4   12 1   
    12    5    6 1   
    13    5   23 1   
    14    6    7 1   
    15    6   14 1   
    16    7    8 ar  
    17    7   12 ar  
    18    8    9 ar  
    19    8   24 1   
    20    9   10 ar  
    21    9   25 1   
    22   10   11 ar  
    23   10   26 1   
    24   11   12 ar  
    25   11   27 1   
    26   13   16 1   
    27   13   17 1   
    28   14   15 2   
    29   14   28 1   
@<TRIPOS>SUBSTRUCTURE
     1 TRF         1 TEMP              0 ****  ****    0 ROOT
