@<TRIPOS>MOLECULE
TRG
   29    28     1     0     0
SMALL
bcc


@<TRIPOS>ATOM
      1 N          -1.9000    0.1760   -2.3500 n3        1 TRG     -0.892800
      2 CA         -0.4630    0.4010   -2.2420 c3        1 TRG      0.018500
      3 C           0.3620   -0.0990   -3.4750 c         1 TRG      0.887600
      4 O          -0.2660   -0.6290   -4.4360 o         1 TRG     -0.844800
      5 CB          0.1530   -0.2050   -0.9810 c3        1 TRG     -0.063400
      6 CG         -0.3710    0.4350    0.2860 c3        1 TRG     -0.076400
      7 CD          0.3210   -0.1300    1.5110 c3        1 TRG     -0.082400
      8 CE         -0.2990    0.4550    2.7760 c3        1 TRG      0.167800
      9 NZ          0.3970    0.1280    4.0160 n3        1 TRG     -0.738600
     10 CH1        -0.2620    0.7040    5.1670 c3        1 TRG      0.159600
     11 CH2         0.6750   -1.2800    4.1790 c3        1 TRG      0.159600
     12 OXT         1.6120    0.0750   -3.4490 o         1 TRG     -0.844800
     13 H          -2.0780   -0.8050   -2.2220 hn        1 TRG      0.329800
     14 HN2        -2.1620    0.3850   -3.3000 hn        1 TRG      0.329800
     15 HA         -0.3210    1.5210   -2.1990 h1        1 TRG      0.040700
     16 HB1         1.2640   -0.0600   -1.0550 hc        1 TRG      0.046200
     17 HB2        -0.0400   -1.3100   -0.9530 hc        1 TRG      0.046200
     18 HG1        -1.4770    0.2670    0.3690 hc        1 TRG      0.036700
     19 HG2        -0.2080    1.5440    0.2400 hc        1 TRG      0.036700
     20 HD1         1.4160    0.1060    1.4680 hc        1 TRG      0.041700
     21 HD2         0.2170   -1.2470    1.5140 hc        1 TRG      0.041700
     22 HE1        -1.3810    0.1290    2.8210 h1        1 TRG      0.026700
     23 HE2        -0.2900    1.5790    2.6890 h1        1 TRG      0.026700
     24 HH11        0.3710    0.5260    6.0760 h1        1 TRG      0.024700
     25 HH12       -0.3650    1.8090    5.0120 h1        1 TRG      0.024700
     26 HH13       -1.2850    0.2760    5.3580 h1        1 TRG      0.024700
     27 HH21        1.3740   -1.6040    3.3630 h1        1 TRG      0.024700
     28 HH22        1.1780   -1.4470    5.1670 h1        1 TRG      0.024700
     29 HH23       -0.2460   -1.9250    4.1370 h1        1 TRG      0.024700
@<TRIPOS>BOND
     1    1    2 1   
     2    1   13 1   
     3    1   14 1   
     4    2    3 1   
     5    2    5 1   
     6    2   15 1   
     7    3    4 1   
     8    3   12 1   
     9    5    6 1   
    10    5   16 1   
    11    5   17 1   
    12    6    7 1   
    13    6   18 1   
    14    6   19 1   
    15    7    8 1   
    16    7   20 1   
    17    7   21 1   
    18    8    9 1   
    19    8   22 1   
    20    8   23 1   
    21    9   10 1   
    22    9   11 1   
    23   10   24 1   
    24   10   25 1   
    25   10   26 1   
    26   11   27 1   
    27   11   28 1   
    28   11   29 1   
@<TRIPOS>SUBSTRUCTURE
     1 TRG         1 TEMP              0 ****  ****    0 ROOT
