@<TRIPOS>MOLECULE
TRI
    8     8     1     0     0
SMALL
bcc


@<TRIPOS>ATOM
      1 N1         -0.6610    0.0010    0.9930 nc        1 TRI     -0.348000
      2 N2          0.6600    0.0010    0.9940 nc        1 TRI     -0.348000
      3 C3          1.1090    0.0000   -0.2920 cd        1 TRI      0.347400
      4 N4          0.0010    0.0000   -1.1490 na        1 TRI     -0.453700
      5 C5         -1.1080    0.0000   -0.2940 cd        1 TRI      0.347400
      6 H3          2.1470   -0.0000   -0.6310 h5        1 TRI      0.072100
      7 HN4         0.0010   -0.0000   -2.1330 hn        1 TRI      0.309700
      8 H5         -2.1470    0.0000   -0.6330 h5        1 TRI      0.072100
@<TRIPOS>BOND
     1    1    2 1   
     2    1    5 2   
     3    2    3 2   
     4    3    4 1   
     5    3    6 1   
     6    4    5 1   
     7    4    7 1   
     8    5    8 1   
@<TRIPOS>SUBSTRUCTURE
     1 TRI         1 TEMP              0 ****  ****    0 ROOT
