@<TRIPOS>MOLECULE
TRJ
   24    24     1     0     0
SMALL
bcc


@<TRIPOS>ATOM
      1 N          -0.1060   -0.3590   -0.0810 n4        1 TRJ     -0.840600
      2 CA          1.3130    0.1120   -0.0150 c3        1 TRJ      0.161100
      3 CG          1.8530    0.1150    1.3790 ca        1 TRJ     -0.170300
      4 CD1         2.1830    1.3250    2.0010 ca        1 TRJ     -0.055000
      5 CD2         2.0960   -1.0990    2.0350 ca        1 TRJ     -0.069000
      6 CE1         2.7430    1.3170    3.2840 ca        1 TRJ     -0.170300
      7 CE2         2.6420   -1.1030    3.3180 ca        1 TRJ     -0.094000
      8 CZ          2.9600    0.1010    3.9460 ca        1 TRJ     -0.069000
      9 CB          3.0400    2.6050    3.9800 c3        1 TRJ      0.161100
     10 N2          4.5070    2.8260    4.1820 n4        1 TRJ     -0.840600
     11 HN1        -0.7220    0.2780    0.4360 hn        1 TRJ      0.469467
     12 HN2        -0.1900   -1.2960    0.3300 hn        1 TRJ      0.469467
     13 HA1         1.3490    1.1470   -0.4670 hx        1 TRJ      0.126200
     14 HA2         1.9310   -0.5820   -0.6630 hx        1 TRJ      0.126200
     15 HD11        2.0020    2.2810    1.4820 ha        1 TRJ      0.155000
     16 HD21        1.8730   -2.0600    1.5400 ha        1 TRJ      0.161000
     17 HE21        2.8230   -2.0620    3.8380 ha        1 TRJ      0.191000
     18 HZ1         3.3670    0.0840    4.9710 ha        1 TRJ      0.161000
     19 HB1         2.6420    3.4850    3.3930 hx        1 TRJ      0.126200
     20 HB2         2.5540    2.6090    5.0030 hx        1 TRJ      0.126200
     21 HN21        4.9880    2.9000    3.2800 hn        1 TRJ      0.469467
     22 HN22        4.9160    2.0430    4.7050 hn        1 TRJ      0.469467
     23 HN3        -0.4140   -0.3960   -1.0610 hn        1 TRJ      0.469467
     24 H23         4.6580    3.6940    4.7120 hn        1 TRJ      0.469467
@<TRIPOS>BOND
     1    1    2 1   
     2    1   11 1   
     3    1   12 1   
     4    1   23 1   
     5    2    3 1   
     6    2   13 1   
     7    2   14 1   
     8    3    4 ar  
     9    3    5 ar  
    10    4    6 ar  
    11    4   15 1   
    12    5    7 ar  
    13    5   16 1   
    14    6    8 ar  
    15    6    9 1   
    16    7    8 ar  
    17    7   17 1   
    18    8   18 1   
    19    9   10 1   
    20    9   19 1   
    21    9   20 1   
    22   10   21 1   
    23   10   22 1   
    24   10   24 1   
@<TRIPOS>SUBSTRUCTURE
     1 TRJ         1 TEMP              0 ****  ****    0 ROOT
