@<TRIPOS>MOLECULE
TRJ
   24    24     1     0     0
SMALL
bcc


@<TRIPOS>ATOM
      1 N          -0.1190   -0.3590   -0.0680 n4        1 TRJ     -0.840600
      2 CA          1.3010    0.1110   -0.0090 c3        1 TRJ      0.161100
      3 CG          1.8480    0.1150    1.3810 ca        1 TRJ     -0.170300
      4 CD1         2.1820    1.3250    2.0020 ca        1 TRJ     -0.055000
      5 CD2         2.0940   -1.0990    2.0370 ca        1 TRJ     -0.069000
      6 CE1         2.7480    1.3170    3.2820 ca        1 TRJ     -0.170300
      7 CE2         2.6470   -1.1030    3.3180 ca        1 TRJ     -0.094000
      8 CZ          2.9680    0.1020    3.9430 ca        1 TRJ     -0.069000
      9 CB          3.0490    2.6060    3.9760 c3        1 TRJ      0.161100
     10 N2          4.5170    2.8270    4.1700 n4        1 TRJ     -0.840600
     11 HN1        -0.7320    0.2790    0.4530 hn        1 TRJ      0.469467
     12 HN2        -0.4320   -0.3960   -1.0460 hn        1 TRJ      0.469467
     13 HA1         1.9140   -0.5840   -0.6600 hx        1 TRJ      0.126200
     14 HA2         1.3350    1.1460   -0.4620 hx        1 TRJ      0.126200
     15 HD11        1.9980    2.2810    1.4830 ha        1 TRJ      0.155000
     16 HD21        1.8680   -2.0600    1.5440 ha        1 TRJ      0.161000
     17 HE21        2.8300   -2.0610    3.8370 ha        1 TRJ      0.191000
     18 HZ1         3.3810    0.0850    4.9660 ha        1 TRJ      0.161000
     19 HB1         2.5680    2.6100    5.0010 hx        1 TRJ      0.126200
     20 HB2         2.6480    3.4860    3.3910 hx        1 TRJ      0.126200
     21 HN21        4.9280    2.0430    4.6900 hn        1 TRJ      0.469467
     22 HN22        4.9940    2.9000    3.2640 hn        1 TRJ      0.469467
     23 HN3        -0.2010   -1.2960    0.3440 hn        1 TRJ      0.469467
     24 H23         4.6710    3.6950    4.6980 hn        1 TRJ      0.469467
@<TRIPOS>BOND
     1    1    2 1   
     2    1   11 1   
     3    1   12 1   
     4    1   23 1   
     5    2    3 1   
     6    2   13 1   
     7    2   14 1   
     8    3    4 ar  
     9    3    5 ar  
    10    4    6 ar  
    11    4   15 1   
    12    5    7 ar  
    13    5   16 1   
    14    6    8 ar  
    15    6    9 1   
    16    7    8 ar  
    17    7   17 1   
    18    8   18 1   
    19    9   10 1   
    20    9   19 1   
    21    9   20 1   
    22   10   21 1   
    23   10   22 1   
    24   10   24 1   
@<TRIPOS>SUBSTRUCTURE
     1 TRJ         1 TEMP              0 ****  ****    0 ROOT
