@<TRIPOS>MOLECULE
TRJ
   22    22     1     0     0
SMALL
bcc


@<TRIPOS>ATOM
      1 N           1.6110   -0.2420    2.7860 n3        1 TRJ     -0.915800
      2 CA          0.5720    0.6930    2.4190 c3        1 TRJ      0.205100
      3 CG         -0.1700    0.3170    1.1700 ca        1 TRJ     -0.099300
      4 CD1         0.5280    0.0010    0.0000 ca        1 TRJ     -0.088000
      5 CD2        -1.5690    0.3120    1.1660 ca        1 TRJ     -0.125000
      6 CE1        -0.1680   -0.3180   -1.1700 ca        1 TRJ     -0.099300
      7 CE2        -2.2620   -0.0040   -0.0010 ca        1 TRJ     -0.135000
      8 CZ         -1.5670   -0.3180   -1.1670 ca        1 TRJ     -0.125000
      9 CB          0.5770   -0.6920   -2.4180 c3        1 TRJ      0.205100
     10 N2          1.6130    0.2470   -2.7850 n3        1 TRJ     -0.915800
     11 HN1         1.8980   -0.0850    3.7320 hn        1 TRJ      0.352300
     12 HN2         1.3020   -1.1880    2.6860 hn        1 TRJ      0.352300
     13 HA1        -0.1790    0.8460    3.2520 h1        1 TRJ      0.033200
     14 HA2         1.0740    1.6910    2.2440 h1        1 TRJ      0.033200
     15 HD11        1.6300    0.0020    0.0010 ha        1 TRJ      0.163000
     16 HD21       -2.1250    0.5590    2.0830 ha        1 TRJ      0.130000
     17 HE21       -3.3620   -0.0060   -0.0010 ha        1 TRJ      0.131000
     18 HZ1        -2.1210   -0.5670   -2.0840 ha        1 TRJ      0.130000
     19 HB1         1.0810   -1.6880   -2.2440 h1        1 TRJ      0.033200
     20 HB2        -0.1740   -0.8470   -3.2520 h1        1 TRJ      0.033200
     21 HN21        1.9010    0.0910   -3.7300 hn        1 TRJ      0.352300
     22 HN22        1.3010    1.1920   -2.6850 hn        1 TRJ      0.352300
@<TRIPOS>BOND
     1    1    2 1   
     2    1   11 1   
     3    1   12 1   
     4    2    3 1   
     5    2   13 1   
     6    2   14 1   
     7    3    4 ar  
     8    3    5 ar  
     9    4    6 ar  
    10    4   15 1   
    11    5    7 ar  
    12    5   16 1   
    13    6    8 ar  
    14    6    9 1   
    15    7    8 ar  
    16    7   17 1   
    17    8   18 1   
    18    9   10 1   
    19    9   19 1   
    20    9   20 1   
    21   10   21 1   
    22   10   22 1   
@<TRIPOS>SUBSTRUCTURE
     1 TRJ         1 TEMP              0 ****  ****    0 ROOT
