@<TRIPOS>MOLECULE
TRJ
   24    24     1     0     0
SMALL
bcc


@<TRIPOS>ATOM
      1 N          -0.0930   -0.3690   -0.0900 nz        1 TRJ     -0.840600
      2 CA          1.3220    0.1140   -0.0190 c3        1 TRJ      0.161100
      3 CG          1.8600    0.1160    1.3750 ca        1 TRJ     -0.170300
      4 CD1         2.1780    1.3250    2.0040 ca        1 TRJ     -0.055000
      5 CD2         2.1130   -1.0990    2.0260 ca        1 TRJ     -0.069000
      6 CE1         2.7370    1.3170    3.2870 ca        1 TRJ     -0.170300
      7 CE2         2.6580   -1.1050    3.3100 ca        1 TRJ     -0.094000
      8 CZ          2.9630    0.1000    3.9440 ca        1 TRJ     -0.069000
      9 CB          3.0210    2.6040    3.9900 c3        1 TRJ      0.161100
     10 N2          4.4850    2.8380    4.1950 nz        1 TRJ     -0.840600
     11 HN1        -0.7150    0.2600    0.4300 hn        1 TRJ      0.469467
     12 HN2        -0.1690   -1.3080    0.3170 hn        1 TRJ      0.469467
     13 HA1         1.3500    1.1510   -0.4660 hx        1 TRJ      0.126200
     14 HA2         1.9460   -0.5720   -0.6690 hx        1 TRJ      0.126200
     15 HD11        1.9900    2.2820    1.4890 ha        1 TRJ      0.155000
     16 HD21        1.9000   -2.0600    1.5260 ha        1 TRJ      0.161000
     17 HE21        2.8470   -2.0640    3.8260 ha        1 TRJ      0.191000
     18 HZ1         3.3700    0.0810    4.9700 ha        1 TRJ      0.161000
     19 HB1         2.6150    3.4830    3.4070 hx        1 TRJ      0.126200
     20 HB2         2.5330    2.5980    5.0120 hx        1 TRJ      0.126200
     21 HN21        4.9670    2.9200    3.2930 hn        1 TRJ      0.469467
     22 HN22        4.9010    2.0550    4.7140 hn        1 TRJ      0.469467
     23 HN3        -0.3990   -0.4040   -1.0700 hn        1 TRJ      0.469467
     24 H23         4.6280    3.7050    4.7280 hn        1 TRJ      0.469467
@<TRIPOS>BOND
     1    1    2 1   
     2    1   11 1   
     3    1   12 1   
     4    1   23 1   
     5    2    3 1   
     6    2   13 1   
     7    2   14 1   
     8    3    4 ar  
     9    3    5 ar  
    10    4    6 ar  
    11    4   15 1   
    12    5    7 ar  
    13    5   16 1   
    14    6    8 ar  
    15    6    9 1   
    16    7    8 ar  
    17    7   17 1   
    18    8   18 1   
    19    9   10 1   
    20    9   19 1   
    21    9   20 1   
    22   10   21 1   
    23   10   22 1   
    24   10   24 1   
@<TRIPOS>SUBSTRUCTURE
     1 TRJ         1 TEMP              0 ****  ****    0 ROOT
