@<TRIPOS>MOLECULE
TRK
   56    56     1     0     0
SMALL
bcc


@<TRIPOS>ATOM
      1 N           0.0210   -0.1850   -0.2110 n4        1 TRK      0.028000
      2 C1          7.6500    2.0270    6.8910 c3        1 TRK     -0.012000
      3 O1          8.6990    1.9570    5.9050 os        1 TRK     -0.259000
      4 C2          6.7820    0.7660    6.7450 c3        1 TRK     -0.082000
      5 O2          2.1360   -0.4610   -1.2270 o         1 TRK     -0.254000
      6 C3          7.5270   -0.4690    7.2130 c3        1 TRK     -0.210000
      7 O3          0.6800   -0.0980    3.3170 o         1 TRK     -0.407000
      8 C4          6.3090    0.5870    5.3460 c2        1 TRK     -0.140000
      9 O4          4.2030   -0.5900    0.7390 oh        1 TRK     -0.241000
     10 C5          5.1240    0.0570    4.9830 c2        1 TRK     -0.081000
     11 O5          9.9070    3.7500    6.5680 os        1 TRK     -0.156000
     12 C6          4.7930   -0.0310    3.5660 c2        1 TRK     -0.084000
     13 C7          3.5760   -0.3570    3.0980 c2        1 TRK     -0.191000
     14 C8          3.2280   -0.4170    1.6860 c2        1 TRK      0.227000
     15 C9          1.9440   -0.3110    1.2410 c2        1 TRK     -0.304000
     16 C10         1.5460   -0.3440   -0.1600 c2        1 TRK      0.329000
     17 C11        -0.3890   -0.0810    1.1660 c2        1 TRK     -0.644000
     18 C12         0.6920   -0.1470    2.0730 c2        1 TRK      0.352000
     19 C13         4.1090   -0.4320    5.9490 c3        1 TRK     -0.193000
     20 C14         6.8270    3.2900    6.6220 c3        1 TRK     -0.273000
     21 C15         5.8620    3.6870    7.6200 c1        1 TRK     -0.047000
     22 C16        10.0570    4.3240    7.6860 c1        1 TRK      0.155000
     23 C17         9.9980    2.2870    6.2810 c3        1 TRK      0.175000
     24 C18        10.8550    2.1460    5.0310 c3        1 TRK     -0.215000
     25 C19        10.5440    1.5020    7.5380 c3        1 TRK     -0.074000
     26 C20        11.9920    1.0810    7.3700 c3        1 TRK     -0.224000
     27 C21        10.3170    2.3340    8.6740 c1        1 TRK     -0.295000
     28 C22        10.5130    3.6080    9.0510 c2        1 TRK      0.202000
     29 H          -0.2260    0.6500   -0.7430 hn        1 TRK      0.204000
     30 H111       -0.4010   -0.9930   -0.6710 hn        1 TRK      0.204000
     31 H112       -1.4410    0.0350    1.3980 hx        1 TRK      0.183000
     32 H2          5.8970    0.9330    7.4300 hc        1 TRK      0.108000
     33 H14         6.2930    3.1820    5.6340 hc        1 TRK      0.161500
     34 H31C        7.8820   -0.3340    8.2630 hc        1 TRK      0.083000
     35 H32C        8.4060   -0.6650    6.5540 hc        1 TRK      0.083000
     36 H33C        6.8510   -1.3570    7.1770 hc        1 TRK      0.083000
     37 H4          7.0270    0.9260    4.5770 ha        1 TRK      0.136000
     38 H6          5.6220    0.2220    2.8790 ha        1 TRK      0.113000
     39 H131        3.6860   -1.4110    5.6110 hc        1 TRK      0.094333
     40 H132        4.5440   -0.5800    6.9670 hc        1 TRK      0.094333
     41 H133        3.2690    0.3060    6.0240 hc        1 TRK      0.094333
     42 H16         7.5260    4.1730    6.4950 hc        1 TRK      0.161500
     43 H7          2.7200   -0.5520    3.7810 ha        1 TRK      0.210000
     44 H151        3.8410    2.8980    7.0020 ha        1 TRK      0.010000
     45 H152        4.1300    2.2810    6.9990 ha        1 TRK      0.010000
     46 H153        5.8430    3.1130    8.5600 ha        1 TRK      0.041000
     47 H181       11.8730    2.5570    5.2210 hc        1 TRK      0.111000
     48 H182       10.9210    1.0710    4.7430 hc        1 TRK      0.111000
     49 H183       10.3800    2.7160    4.1940 hc        1 TRK      0.111000
     50 H201       12.1050    0.3920    6.5000 hc        1 TRK      0.091667
     51 H202       12.3260    0.5420    8.2900 hc        1 TRK      0.091667
     52 H203       12.6570    1.9660    7.2240 hc        1 TRK      0.091667
     53 H21         9.9070    0.5660    7.6140 hc        1 TRK      0.148000
     54 HO4         5.0540   -0.7360    1.1780 ho        1 TRK      0.232000
     55 H1          8.0850    2.0590    7.9290 h1        1 TRK      0.121000
     56 O6         10.7530    4.2900   10.0440 o         1 TRK     -0.270000
@<TRIPOS>BOND
     1    1   16 1   
     2    1   17 1   
     3    1   29 1   
     4    1   30 1   
     5    2    3 1   
     6    2    4 1   
     7    2   20 1   
     8    2   55 1   
     9    3   23 1   
    10    4    6 1   
    11    4    8 1   
    12    4   32 1   
    13    5   16 1   
    14    6   34 1   
    15    6   35 1   
    16    6   36 1   
    17    7   18 1   
    18    8   10 1   
    19    8   37 1   
    20    9   14 1   
    21    9   54 1   
    22   10   12 1   
    23   10   19 1   
    24   11   22 1   
    25   11   23 1   
    26   12   13 1   
    27   12   38 1   
    28   13   14 1   
    29   13   43 1   
    30   14   15 1   
    31   15   16 1   
    32   15   18 1   
    33   17   18 1   
    34   17   31 1   
    35   19   39 1   
    36   19   40 1   
    37   19   41 1   
    38   20   21 1   
    39   20   33 1   
    40   20   42 1   
    41   21   46 1   
    42   22   28 1   
    43   23   24 1   
    44   23   25 1   
    45   24   47 1   
    46   24   48 1   
    47   24   49 1   
    48   25   26 1   
    49   25   27 1   
    50   25   53 1   
    51   26   50 1   
    52   26   51 1   
    53   26   52 1   
    54   27   28 1   
    55   28   56 1   
    56   44   45 1   
@<TRIPOS>SUBSTRUCTURE
     1 TRK         1 TEMP              0 ****  ****    0 ROOT
