@<TRIPOS>MOLECULE
TRK
   56    57     1     0     0
SMALL
bcc


@<TRIPOS>ATOM
      1 N          -0.0990    0.4680    0.7670 n4        1 TRK      0.028000
      2 C1          7.4550    2.1730    5.9570 c3        1 TRK      0.032000
      3 O1          8.7610    1.7800    5.4930 os        1 TRK     -0.265000
      4 C2          6.5720    0.9160    6.0240 c3        1 TRK     -0.107000
      5 O2          1.8780   -0.1600   -0.3630 o         1 TRK     -0.255000
      6 C3          6.6270    0.2940    7.4030 c3        1 TRK     -0.216000
      7 O3          0.7300    0.3330    4.2570 o         1 TRK     -0.408000
      8 C4          6.9640   -0.0910    4.9500 c3        1 TRK     -0.115000
      9 O4          3.9780   -0.7210    1.4870 oh        1 TRK     -0.239000
     10 C5          5.9100   -1.1260    4.7200 c2        1 TRK     -0.031000
     11 O5          9.7270    3.7440    6.0690 os        1 TRK     -0.106000
     12 C6          4.7220   -0.8180    4.2650 c1        1 TRK     -0.166000
     13 C7          3.5140   -0.5040    3.8810 c2        1 TRK     -0.132000
     14 C8          3.0910   -0.4240    2.4860 c2        1 TRK      0.239000
     15 C9          1.8300   -0.0630    2.1150 c2        1 TRK     -0.310000
     16 C10         1.3710    0.0280    0.7360 c2        1 TRK      0.330000
     17 C11        -0.4170    0.6070    2.1650 c2        1 TRK     -0.644000
     18 C12         0.6730    0.3100    3.0130 c2        1 TRK      0.353000
     19 C13         6.2910   -2.5310    5.0190 c3        1 TRK     -0.182000
     20 C14         6.9050    3.2040    4.9700 c3        1 TRK     -0.182000
     21 C15         5.7630    3.9900    5.5550 c3        1 TRK     -0.214000
     22 C16         9.5590    4.5630    7.0310 c1        1 TRK      0.052000
     23 C17         9.8730    2.2870    6.1970 c3        1 TRK      0.144000
     24 C18        11.1140    1.9110    5.3880 c3        1 TRK     -0.199000
     25 C19         9.9650    1.8160    7.6250 c2        1 TRK     -0.087000
     26 C20        10.2830    0.3810    7.8000 c3        1 TRK     -0.195000
     27 C21         9.7950    2.6510    8.6640 c2        1 TRK     -0.241000
     28 C22         9.4840    4.0760    8.4580 c2        1 TRK      0.147000
     29 H          -0.2120    1.3490    0.2650 hn        1 TRK      0.203000
     30 H111       -0.6850   -0.2350    0.3150 hn        1 TRK      0.203000
     31 H112       -1.4160    0.9140    2.4540 hx        1 TRK      0.183000
     32 H2          5.5120    1.2490    5.8290 hc        1 TRK      0.112000
     33 H14         6.5770    2.6800    4.0350 hc        1 TRK      0.099500
     34 H31C        6.1880    0.9870    8.1610 hc        1 TRK      0.079000
     35 H32C        7.6830    0.0720    7.6940 hc        1 TRK      0.079000
     36 H33C        6.0450   -0.6600    7.4160 hc        1 TRK      0.079000
     37 H4          7.9260   -0.5880    5.2480 hc        1 TRK      0.102000
     38 H6          7.1600    0.4590    3.9900 hc        1 TRK      0.102000
     39 H131        6.5670   -2.6190    6.1010 hc        1 TRK      0.092333
     40 H132        5.4560   -3.2420    4.8060 hc        1 TRK      0.092333
     41 H133        7.1770   -2.8230    4.4030 hc        1 TRK      0.092333
     42 H16         7.7400    3.9010    4.6870 hc        1 TRK      0.099500
     43 H7          2.7160   -0.2710    4.6240 ha        1 TRK      0.223000
     44 H151        5.3950    4.7350    4.8080 hc        1 TRK      0.079667
     45 H152        4.9100    3.3240    5.8320 hc        1 TRK      0.079667
     46 H153        6.0880    4.5440    6.4700 hc        1 TRK      0.079667
     47 H181       12.0260    2.2520    5.9310 hc        1 TRK      0.103000
     48 H182       11.1420    0.8050    5.2520 hc        1 TRK      0.103000
     49 H183       11.0670    2.4050    4.3880 hc        1 TRK      0.103000
     50 H201        9.7570   -0.2310    7.0220 hc        1 TRK      0.099000
     51 H202        9.9790    0.0180    8.8120 hc        1 TRK      0.099000
     52 H203       11.3860    0.2230    7.6810 hc        1 TRK      0.099000
     53 H21         9.8770    2.3060    9.7070 ha        1 TRK      0.161000
     54 HO4         4.8340   -0.9570    1.8800 ho        1 TRK      0.238000
     55 H1          7.5330    2.6340    6.9820 h1        1 TRK      0.086000
     56 O6          9.1900    4.8300    9.3880 o         1 TRK     -0.201000
@<TRIPOS>BOND
     1    1   16 1   
     2    1   17 1   
     3    1   29 1   
     4    1   30 1   
     5    2    3 1   
     6    2    4 1   
     7    2   20 1   
     8    2   55 1   
     9    3   23 1   
    10    4    6 1   
    11    4    8 1   
    12    4   32 1   
    13    5   16 1   
    14    6   34 1   
    15    6   35 1   
    16    6   36 1   
    17    7   18 1   
    18    8   10 1   
    19    8   37 1   
    20    8   38 1   
    21    9   14 1   
    22    9   54 1   
    23   10   12 1   
    24   10   19 1   
    25   11   22 1   
    26   11   23 1   
    27   12   13 1   
    28   13   14 1   
    29   13   43 1   
    30   14   15 1   
    31   15   16 1   
    32   15   18 1   
    33   17   18 1   
    34   17   31 1   
    35   19   39 1   
    36   19   40 1   
    37   19   41 1   
    38   20   21 1   
    39   20   33 1   
    40   20   42 1   
    41   21   44 1   
    42   21   45 1   
    43   21   46 1   
    44   22   28 1   
    45   23   24 1   
    46   23   25 1   
    47   24   47 1   
    48   24   48 1   
    49   24   49 1   
    50   25   26 1   
    51   25   27 1   
    52   26   50 1   
    53   26   51 1   
    54   26   52 1   
    55   27   28 1   
    56   27   53 1   
    57   28   56 1   
@<TRIPOS>SUBSTRUCTURE
     1 TRK         1 TEMP              0 ****  ****    0 ROOT
