@<TRIPOS>MOLECULE
TRK
   56    58     1     0     0
SMALL
bcc


@<TRIPOS>ATOM
      1 N           7.7900   -0.4520    0.5880 n         1 TRK     -0.571900
      2 C1         -2.9630    0.5200   -0.6070 c3        1 TRK      0.144100
      3 O1         -3.1290   -0.9020   -0.5280 os        1 TRK     -0.426600
      4 C2         -1.7220    0.7680   -1.4790 c3        1 TRK     -0.029500
      5 O2          6.4670   -2.1700    1.4500 o         1 TRK     -0.668500
      6 C3         -1.9860    0.3060   -2.9010 c3        1 TRK     -0.087100
      7 O3          5.5570    1.8110   -1.0100 o         1 TRK     -0.540100
      8 C4         -0.5190    0.0870   -0.9280 c2        1 TRK     -0.114200
      9 O4          3.7210   -1.8510    0.7310 oh        1 TRK     -0.499100
     10 C5          0.7570    0.4880   -1.0990 ce        1 TRK     -0.116200
     11 O5         -3.8800   -0.8750    1.6140 os        1 TRK     -0.409600
     12 C6          1.8260   -0.2840   -0.4800 ce        1 TRK     -0.026000
     13 C7          3.1200    0.0880   -0.4680 cf        1 TRK     -0.206000
     14 C8          4.1700   -0.7010    0.1610 cf        1 TRK      0.331100
     15 C9          5.4840   -0.3220    0.1800 ce        1 TRK     -0.449400
     16 C10         6.5790   -1.1010    0.8190 c         1 TRK      0.724700
     17 C11         7.5950    0.8060   -0.1000 c3        1 TRK     -0.015000
     18 C12         6.0850    0.8840   -0.3980 c         1 TRK      0.600300
     19 C13         1.1500    1.6850   -1.8840 c3        1 TRK     -0.064900
     20 C14        -2.8280    1.1370    0.7900 c3        1 TRK     -0.111700
     21 C15        -2.9060    2.6440    0.7590 c3        1 TRK     -0.096100
     22 C16        -3.9040    0.5480    1.7130 c3        1 TRK      0.043100
     23 C17        -4.1990   -1.3380    0.3020 c3        1 TRK      0.363800
     24 C18        -4.1330   -2.8620    0.3470 c3        1 TRK     -0.075100
     25 C19        -5.5450   -0.8090   -0.1550 c2        1 TRK     -0.084400
     26 C20        -6.2480   -1.5820   -1.2000 c3        1 TRK     -0.069900
     27 C21        -6.0460    0.3150    0.3850 ce        1 TRK     -0.239200
     28 C22        -5.2920    1.0820    1.3900 c         1 TRK      0.544300
     29 H           8.6250   -0.6680    1.0650 hn        1 TRK      0.334500
     30 H111        7.9070    1.6830    0.5310 h1        1 TRK      0.072700
     31 H112        8.1780    0.8250   -1.0610 h1        1 TRK      0.072700
     32 H2         -1.5620    1.8850   -1.4840 hc        1 TRK      0.064700
     33 H14        -1.8300    0.8220    1.2100 hc        1 TRK      0.081700
     34 H31C       -2.2170   -0.7870   -2.9130 hc        1 TRK      0.044033
     35 H32C       -2.8560    0.8590   -3.3290 hc        1 TRK      0.044033
     36 H33C       -1.0900    0.4940   -3.5390 hc        1 TRK      0.044033
     37 H4         -0.7420   -0.8270   -0.3460 ha        1 TRK      0.146000
     38 H6          1.5180   -1.2290    0.0080 ha        1 TRK      0.143000
     39 H131        1.5450    2.4790   -1.2020 hc        1 TRK      0.049033
     40 H132        1.9550    1.4200   -2.6150 hc        1 TRK      0.049033
     41 H133        0.2890    2.1060   -2.4580 hc        1 TRK      0.049033
     42 H16        -3.6550    0.7530    2.7920 h1        1 TRK      0.109700
     43 H7          3.4690    1.0260   -0.9390 ha        1 TRK      0.178000
     44 H151       -3.8240    2.9850    0.2210 hc        1 TRK      0.047033
     45 H152       -2.9490    3.0450    1.8020 hc        1 TRK      0.047033
     46 H153       -2.0110    3.0750    0.2500 hc        1 TRK      0.047033
     47 H181       -3.1690   -3.1770    0.8130 hc        1 TRK      0.061033
     48 H182       -4.9830   -3.2480    0.9570 hc        1 TRK      0.061033
     49 H183       -4.1910   -3.2640   -0.6920 hc        1 TRK      0.061033
     50 H201       -6.5690   -2.5750   -0.7920 hc        1 TRK      0.057700
     51 H202       -7.1540   -1.0410   -1.5690 hc        1 TRK      0.057700
     52 H203       -5.5610   -1.7640   -2.0650 hc        1 TRK      0.057700
     53 H21        -7.0340    0.7160    0.1060 ha        1 TRK      0.156000
     54 HO4         4.4580   -2.3460    1.1410 ho        1 TRK      0.476000
     55 H1         -3.8680    0.9550   -1.1230 h1        1 TRK      0.048700
     56 O6         -5.7390    2.0960    1.9330 o         1 TRK     -0.512100
@<TRIPOS>BOND
     1    1   16 1   
     2    1   17 1   
     3    1   29 1   
     4    2    3 1   
     5    2    4 1   
     6    2   20 1   
     7    2   55 1   
     8    3   23 1   
     9    4    6 1   
    10    4    8 1   
    11    4   32 1   
    12    5   16 2   
    13    6   34 1   
    14    6   35 1   
    15    6   36 1   
    16    7   18 2   
    17    8   10 2   
    18    8   37 1   
    19    9   14 1   
    20    9   54 1   
    21   10   12 1   
    22   10   19 1   
    23   11   22 1   
    24   11   23 1   
    25   12   13 2   
    26   12   38 1   
    27   13   14 1   
    28   13   43 1   
    29   14   15 2   
    30   15   16 1   
    31   15   18 1   
    32   17   18 1   
    33   17   30 1   
    34   17   31 1   
    35   19   39 1   
    36   19   40 1   
    37   19   41 1   
    38   20   21 1   
    39   20   22 1   
    40   20   33 1   
    41   21   44 1   
    42   21   45 1   
    43   21   46 1   
    44   22   28 1   
    45   22   42 1   
    46   23   24 1   
    47   23   25 1   
    48   24   47 1   
    49   24   48 1   
    50   24   49 1   
    51   25   26 1   
    52   25   27 2   
    53   26   50 1   
    54   26   51 1   
    55   26   52 1   
    56   27   28 1   
    57   27   53 1   
    58   28   56 2   
@<TRIPOS>SUBSTRUCTURE
     1 TRK         1 TEMP              0 ****  ****    0 ROOT
