@<TRIPOS>MOLECULE
TRK
   56    57     1     0     0
SMALL
bcc


@<TRIPOS>ATOM
      1 N          -0.5630    0.3710    0.3310 ny        1 TRK      0.028000
      2 C1          7.8880    2.3350    6.9660 cx        1 TRK     -0.081000
      3 O1          8.9950    1.7280    6.3160 os        1 TRK     -0.254000
      4 C2          6.9820   -1.0870    6.3420 c3        1 TRK     -0.147000
      5 O2          0.4550   -1.6740   -0.2710 o         1 TRK     -0.258000
      6 C3          7.7210   -2.2720    6.9120 c3        1 TRK     -0.209000
      7 O3          1.6130    1.8180    2.7910 o         1 TRK     -0.408000
      8 C4          6.0500   -1.4750    5.2600 c2        1 TRK     -0.119000
      9 O4          2.8810   -2.0690    1.1820 oh        1 TRK     -0.242000
     10 C5          5.3020   -0.6130    4.5400 c2        1 TRK     -0.103000
     11 O5          9.6200    3.8510    6.5710 os        1 TRK     -0.245000
     12 C6          4.4040   -1.1290    3.5170 c2        1 TRK     -0.068000
     13 C7          3.5510   -0.3650    2.8110 c2        1 TRK     -0.207000
     14 C8          2.6330   -0.8750    1.8040 c2        1 TRK      0.236000
     15 C9          1.5050   -0.2050    1.4300 c2        1 TRK     -0.312000
     16 C10         0.5500   -0.6800    0.4400 c2        1 TRK      0.331000
     17 C11        -0.1900    1.4070    1.2590 c2        1 TRK     -0.647000
     18 C12         1.0180    1.1320    1.9400 c2        1 TRK      0.354000
     19 C13         5.3320    0.8560    4.7400 c3        1 TRK     -0.191000
     20 C14         7.2240    3.5890    6.4230 cx        1 TRK     -0.071000
     21 C15         5.8470    3.8980    6.8950 c3        1 TRK     -0.205000
     22 C16         8.4070    3.7430    7.3450 cx        1 TRK     -0.091000
     23 C17        10.1550    2.5210    6.6850 c3        1 TRK      0.122000
     24 C18        12.2410    2.8720    4.3800 c1        1 TRK     -0.036000
     25 C19        10.5410    2.3360    8.1460 c2        1 TRK     -0.075000
     26 C20        11.6470    1.3980    8.4120 c3        1 TRK     -0.191000
     27 C21         9.9060    3.0450    9.1050 c2        1 TRK     -0.219000
     28 C22         8.7570    3.9350    8.7810 c2        1 TRK      0.307000
     29 H          -0.6210    0.7230   -0.6250 hn        1 TRK      0.202000
     30 H111       -1.4630   -0.0470    0.5730 hn        1 TRK      0.202000
     31 H112       -0.8260    2.2780    1.3640 hx        1 TRK      0.182000
     32 H2          7.0070   -3.0180    7.3390 hc        1 TRK      0.074333
     33 H14         6.4040   -0.5770    7.1620 hc        1 TRK      0.103500
     34 H31C        7.7260   -0.3310    5.9570 hc        1 TRK      0.103500
     35 H32C        8.3260   -2.7780    6.1220 hc        1 TRK      0.074333
     36 H33C        8.4110   -1.9380    7.7240 hc        1 TRK      0.074333
     37 H4          5.9830   -2.5590    5.0620 ha        1 TRK      0.119000
     38 H6          4.4510   -2.2240    3.3650 ha        1 TRK      0.110000
     39 H131        5.5330    1.3740    3.7690 hc        1 TRK      0.092333
     40 H132        4.3430    1.2120    5.1280 hc        1 TRK      0.092333
     41 H133        6.1260    1.1610    5.4670 hc        1 TRK      0.092333
     42 H16         7.4100    3.8740    5.3650 hc        1 TRK      0.146000
     43 H7          3.4540    0.7260    2.9970 ha        1 TRK      0.208000
     44 H151        5.1100    3.2650    6.3390 hc        1 TRK      0.093667
     45 H152        5.7360    3.7020    7.9890 hc        1 TRK      0.093667
     46 H153        5.6100    4.9740    6.7070 hc        1 TRK      0.093667
     47 H181       10.9690    2.3570    5.9240 h2        1 TRK      0.218000
     48 H182       12.9510    3.7090    4.4350 ha        1 TRK      0.026500
     49 H183       11.8770    2.7060    3.3560 ha        1 TRK      0.026500
     50 H201       12.5720    1.7390    7.8820 hc        1 TRK      0.096333
     51 H202       11.8690    1.3200    9.5050 hc        1 TRK      0.096333
     52 H203       11.3800    0.3810    8.0270 hc        1 TRK      0.096333
     53 H21        10.1900    2.9920   10.1660 ha        1 TRK      0.155000
     54 HO4         3.7430   -2.4070    1.4680 ho        1 TRK      0.233000
     55 H1          7.3450    1.6220    7.6020 h1        1 TRK      0.158000
     56 O6          8.1700    4.6460    9.5920 o         1 TRK     -0.260000
@<TRIPOS>BOND
     1    1   16 1   
     2    1   17 1   
     3    1   29 1   
     4    1   30 1   
     5    2    3 1   
     6    2   20 1   
     7    2   22 1   
     8    2   55 1   
     9    3   23 1   
    10    4    6 1   
    11    4    8 1   
    12    4   33 1   
    13    4   34 1   
    14    5   16 1   
    15    6   32 1   
    16    6   35 1   
    17    6   36 1   
    18    7   18 1   
    19    8   10 1   
    20    8   37 1   
    21    9   14 1   
    22    9   54 1   
    23   10   12 1   
    24   10   19 1   
    25   11   22 1   
    26   11   23 1   
    27   12   13 1   
    28   12   38 1   
    29   13   14 1   
    30   13   43 1   
    31   14   15 1   
    32   15   16 1   
    33   15   18 1   
    34   17   18 1   
    35   17   31 1   
    36   19   39 1   
    37   19   40 1   
    38   19   41 1   
    39   20   21 1   
    40   20   22 1   
    41   20   42 1   
    42   21   44 1   
    43   21   45 1   
    44   21   46 1   
    45   22   28 1   
    46   23   25 1   
    47   23   47 1   
    48   24   48 1   
    49   24   49 1   
    50   25   26 1   
    51   25   27 1   
    52   26   50 1   
    53   26   51 1   
    54   26   52 1   
    55   27   28 1   
    56   27   53 1   
    57   28   56 1   
@<TRIPOS>SUBSTRUCTURE
     1 TRK         1 TEMP              0 ****  ****    0 ROOT
