@<TRIPOS>MOLECULE
TRK
   56    54     1     0     0
SMALL
bcc


@<TRIPOS>ATOM
      1 N          -6.0050    2.9390   -3.5370 n3        1 TRK     -0.382000
      2 C1          1.2840   -1.9500    1.4590 c3        1 TRK      0.056000
      3 O1          2.0080   -1.9870    0.3160 os        1 TRK     -0.297000
      4 C2         -0.1230   -1.0550    1.0900 c3        1 TRK     -0.109000
      5 O2         -4.3240    1.4280   -4.2800 o         1 TRK     -0.394000
      6 C3         -1.2640   -1.9470    1.0260 c3        1 TRK     -0.208000
      7 O3         -5.0960    3.3790   -0.1190 o         1 TRK     -0.297000
      8 C4          0.0440   -0.3900   -0.1860 c2        1 TRK     -0.117000
      9 O4         -2.7250    0.3870   -2.2430 oh        1 TRK     -0.240000
     10 C5         -0.7440    0.6640   -0.5080 c1        1 TRK     -0.112000
     11 O5          2.3090    0.4550    1.0590 os        1 TRK     -0.269000
     12 C6         -1.8060    1.1510    0.4750 c1        1 TRK     -0.110500
     13 O6          4.5870   -0.1920    3.5580 o         1 TRK     -0.279000
     14 C7         -3.0700    1.4630    0.0290 c1        1 TRK     -0.110500
     15 C8         -3.4130    1.3230   -1.4440 c1        1 TRK      0.287000
     16 C9         -4.4020    2.1130   -2.0020 c1        1 TRK     -0.413000
     17 C10        -4.8330    2.0840   -3.3950 c1        1 TRK      0.364000
     18 C11        -6.1620    3.7500   -2.2890 c3        1 TRK     -0.080000
     19 C12        -5.1840    3.1110   -1.3000 c2        1 TRK      0.291000
     20 C13        -0.5670    1.3710   -1.8660 c3        1 TRK     -0.174000
     21 C14         1.7410   -1.4490    2.6800 c3        1 TRK     -0.146000
     22 C15         2.6470   -2.5920    3.4190 c3        1 TRK     -0.222000
     23 C16         2.5480   -0.2530    2.4920 c3        1 TRK     -0.017000
     24 C17         2.8120   -0.8100    0.1500 c3        1 TRK      0.222000
     25 C18         2.7810   -0.4400   -1.1770 c3        1 TRK     -0.208000
     26 C19         4.2470   -1.1440    0.5190 c2        1 TRK     -0.051000
     27 C20         5.2990   -1.3300   -0.5830 c3        1 TRK     -0.192000
     28 C21         4.5440   -1.3170    1.6580 c1        1 TRK     -0.226000
     29 C22         3.9430   -0.6040    2.6190 c1        1 TRK      0.246000
     30 H          -6.5430    2.9840   -4.2720 hn        1 TRK      0.249000
     31 H111       -6.0690    4.7280   -2.2730 h1        1 TRK      0.113000
     32 H112       -7.1010    3.6480   -2.0220 h1        1 TRK      0.113000
     33 H1          0.9980   -2.8780    1.6320 h1        1 TRK      0.119000
     34 H2         -0.2740   -0.3800    1.7930 hc        1 TRK      0.111000
     35 H14         0.9710   -1.2320    3.2490 hc        1 TRK      0.111000
     36 H31C       -2.0720   -1.4720    1.3390 hc        1 TRK      0.081333
     37 H32C       -1.3970   -2.2450    0.0960 hc        1 TRK      0.081333
     38 H33C       -1.1040   -2.7230    1.5950 hc        1 TRK      0.081333
     39 H4          0.7170   -0.6980   -0.8070 ha        1 TRK      0.135000
     40 H6         -1.5870    1.2420    1.4260 ha        1 TRK      0.157000
     41 H131        0.3370    1.7590   -1.9180 hc        1 TRK      0.085000
     42 H132       -0.6860    0.7190   -2.5920 hc        1 TRK      0.085000
     43 H133       -1.2380    2.0870   -1.9550 hc        1 TRK      0.085000
     44 H16         2.3230    0.3880    3.1970 h1        1 TRK      0.145000
     45 H7         -3.7410    1.7710    0.6550 ha        1 TRK      0.157000
     46 H151        3.3030   -2.9520    2.7830 hc        1 TRK      0.088667
     47 H152        3.1180   -2.1920    4.1840 hc        1 TRK      0.088667
     48 H153        2.0660   -3.3160    3.7350 hc        1 TRK      0.088667
     49 H181        2.7110   -1.2380   -1.7360 hc        1 TRK      0.097667
     50 H182        2.0120    0.1360   -1.3360 hc        1 TRK      0.097667
     51 H183        3.6060    0.0470   -1.4010 hc        1 TRK      0.097667
     52 H201        6.1550   -1.6120   -0.1780 hc        1 TRK      0.097000
     53 H202        5.4270   -0.4830   -1.0590 hc        1 TRK      0.097000
     54 H203        4.9950   -2.0150   -1.2130 hc        1 TRK      0.097000
     55 H21         5.2680   -1.9250    1.8850 ha        1 TRK      0.156000
     56 HO4        -3.2680   -0.3080   -2.4260 ho        1 TRK      0.272000
@<TRIPOS>BOND
     1    1   17 1   
     2    1   18 1   
     3    1   30 1   
     4    2    3 1   
     5    2    4 1   
     6    2   21 1   
     7    2   33 1   
     8    3   24 1   
     9    4    6 1   
    10    4    8 1   
    11    4   34 1   
    12    5   17 1   
    13    6   36 1   
    14    6   37 1   
    15    6   38 1   
    16    7   19 1   
    17    8   10 1   
    18    8   39 1   
    19    9   15 1   
    20    9   56 1   
    21   10   20 1   
    22   11   23 1   
    23   11   24 1   
    24   12   14 1   
    25   12   40 1   
    26   13   29 1   
    27   14   45 1   
    28   15   16 1   
    29   16   19 1   
    30   18   19 1   
    31   18   31 1   
    32   18   32 1   
    33   20   41 1   
    34   20   42 1   
    35   20   43 1   
    36   21   22 1   
    37   21   23 1   
    38   21   35 1   
    39   22   46 1   
    40   22   47 1   
    41   22   48 1   
    42   23   29 1   
    43   23   44 1   
    44   24   25 1   
    45   24   26 1   
    46   25   49 1   
    47   25   50 1   
    48   25   51 1   
    49   26   27 1   
    50   26   28 1   
    51   27   52 1   
    52   27   53 1   
    53   27   54 1   
    54   28   55 1   
@<TRIPOS>SUBSTRUCTURE
     1 TRK         1 TEMP              0 ****  ****    0 ROOT
