@<TRIPOS>MOLECULE
TRL
   66    65     1     0     0
SMALL
bcc


@<TRIPOS>ATOM
      1 O1          1.0490   -1.0070    2.3270 o         1 TRL     -0.563100
      2 C28         2.2340   -0.9710    1.9820 c         1 TRL      0.592900
      3 C27         3.0740    0.2620    2.2270 c3        1 TRL     -0.191700
      4 C3          4.5210   -0.1420    2.4680 c3        1 TRL     -0.075400
      5 C4          5.3200    0.9410    3.1460 c3        1 TRL     -0.104100
      6 C8          2.8930    1.3290    1.1320 c3        1 TRL      0.080700
      7 N10         3.2430    0.9150   -0.2350 n         1 TRL     -0.426800
      8 C9          2.1550    1.2420   -1.1610 c3        1 TRL      0.061000
      9 C12         1.1390    2.1130   -0.4090 c3        1 TRL     -0.107400
     10 C14         1.3820    1.7660    1.0700 c3        1 TRL      0.104500
     11 N3          0.9820    2.7830    2.0370 n8        1 TRL     -1.001800
     12 S1         -1.2250    2.4880    2.6160 s4        1 TRL      1.636500
     13 O4         -1.6190    2.1190    1.3730 o         1 TRL     -0.413900
     14 O5         -1.3470    3.7420    3.1070 o         1 TRL     -0.413900
     15 C1         -0.9600    1.3150    3.6710 c3        1 TRL     -0.578800
     16 C2          4.5630    1.0460   -0.6600 c         1 TRL      0.648100
     17 O2          5.4690    1.5150    0.0540 o         1 TRL     -0.568100
     18 C5          4.9380    0.4930   -2.0610 c3        1 TRL      0.065500
     19 C6          5.3960   -0.9820   -1.9750 c3        1 TRL     -0.074700
     20 C13         6.6670   -1.1510   -1.1710 c3        1 TRL     -0.114100
     21 C7          4.2800   -1.8360   -1.4100 c3        1 TRL     -0.114100
     22 N1          6.0260    1.3510   -2.6530 ny        1 TRL     -0.653800
     23 C11         5.4930    2.5180   -3.4490 c         1 TRL      0.645100
     24 O3          4.3370    2.8990   -3.3060 o         1 TRL     -0.468000
     25 O6          6.4500    2.9750   -4.2460 os        1 TRL     -0.417900
     26 C15         6.1820    4.1550   -5.1470 c3        1 TRL      0.209800
     27 C21         7.5300    4.2970   -5.8320 c3        1 TRL     -0.132433
     28 C26         5.0800    3.7840   -6.1130 c3        1 TRL     -0.132433
     29 C25         5.8420    5.3510   -4.2880 c3        1 TRL     -0.132433
     30 H28         2.7410   -1.8350    1.5030 h4        1 TRL      0.041200
     31 H27         2.6960    0.7460    3.1780 hc        1 TRL      0.068700
     32 HC31        5.0080   -0.4210    1.4960 hc        1 TRL      0.058700
     33 HC32        4.5260   -1.0600    3.1170 hc        1 TRL      0.058700
     34 HC41        4.8200    1.2830    4.0850 hc        1 TRL      0.051700
     35 HC42        5.4590    1.8200    2.4690 hc        1 TRL      0.051700
     36 HC43        6.3320    0.5490    3.4150 hc        1 TRL      0.051700
     37 HC8         3.5480    2.2070    1.4280 h1        1 TRL      0.090700
     38 HC91        1.6800    0.2770   -1.4940 h1        1 TRL      0.083200
     39 HC92        2.5280    1.7950   -2.0690 h1        1 TRL      0.083200
     40 H121        1.3180    3.1970   -0.6230 hc        1 TRL      0.093700
     41 H122        0.0920    1.8630   -0.7150 hc        1 TRL      0.093700
     42 H14         0.7420    0.8590    1.3040 h1        1 TRL      0.098700
     43 HN3         1.5650    2.7300    2.8590 hn        1 TRL      0.415800
     44 HC11       -0.4930    1.6250    4.6530 h1        1 TRL      0.210700
     45 HC12       -0.3100    0.4470    3.3170 h1        1 TRL      0.210700
     46 HC13       -1.8950    0.7590    4.0060 h1        1 TRL      0.210700
     47 HC5         4.0510    0.5470   -2.7630 hx        1 TRL      0.130700
     48 HC6         5.5870   -1.3300   -3.0340 hc        1 TRL      0.080700
     49 H131        6.8420   -2.2390   -0.9740 hc        1 TRL      0.063533
     50 H132        6.5960   -0.6250   -0.1860 hc        1 TRL      0.063533
     51 H133        7.5560   -0.7630   -1.7230 hc        1 TRL      0.063533
     52 HC71        4.1880   -1.6930   -0.3060 hc        1 TRL      0.063533
     53 HC72        4.5090   -2.9140   -1.6040 hc        1 TRL      0.063533
     54 HC73        3.3020   -1.5910   -1.8920 hc        1 TRL      0.063533
     55 HN1         6.6230    0.7760   -3.2650 hn        1 TRL      0.486800
     56 H211        8.3350    4.4970   -5.0840 hc        1 TRL      0.076589
     57 H212        7.4710    5.1580   -6.5430 hc        1 TRL      0.076589
     58 H213        7.7850    3.3710   -6.4010 hc        1 TRL      0.076589
     59 H261        4.1070    3.6540   -5.5800 hc        1 TRL      0.076589
     60 H262        5.3320    2.8420   -6.6580 hc        1 TRL      0.076589
     61 H263        4.9660    4.6070   -6.8630 hc        1 TRL      0.076589
     62 H251        4.8620    5.2070   -3.7710 hc        1 TRL      0.076589
     63 H252        5.7660    6.2550   -4.9430 hc        1 TRL      0.076589
     64 H253        6.6390    5.5320   -3.5270 hc        1 TRL      0.076589
     65 H32         1.0730    3.7110    1.6490 hn        1 TRL      0.415800
     66 H12         6.6180    1.7200   -1.8860 hn        1 TRL      0.486800
@<TRIPOS>BOND
     1    1    2 2   
     2    2    3 1   
     3    2   30 1   
     4    3    4 1   
     5    3    6 1   
     6    3   31 1   
     7    4    5 1   
     8    4   32 1   
     9    4   33 1   
    10    5   34 1   
    11    5   35 1   
    12    5   36 1   
    13    6    7 1   
    14    6   10 1   
    15    6   37 1   
    16    7    8 1   
    17    7   16 1   
    18    8    9 1   
    19    8   38 1   
    20    8   39 1   
    21    9   10 1   
    22    9   40 1   
    23    9   41 1   
    24   10   11 1   
    25   10   42 1   
    26   11   43 1   
    27   11   65 1   
    28   12   13 1   
    29   12   14 1   
    30   12   15 1   
    31   15   44 1   
    32   15   45 1   
    33   15   46 1   
    34   16   17 2   
    35   16   18 1   
    36   18   19 1   
    37   18   22 1   
    38   18   47 1   
    39   19   20 1   
    40   19   21 1   
    41   19   48 1   
    42   20   49 1   
    43   20   50 1   
    44   20   51 1   
    45   21   52 1   
    46   21   53 1   
    47   21   54 1   
    48   22   23 1   
    49   22   55 1   
    50   22   66 1   
    51   23   24 2   
    52   23   25 1   
    53   25   26 1   
    54   26   27 1   
    55   26   28 1   
    56   26   29 1   
    57   27   56 1   
    58   27   57 1   
    59   27   58 1   
    60   28   59 1   
    61   28   60 1   
    62   28   61 1   
    63   29   62 1   
    64   29   63 1   
    65   29   64 1   
@<TRIPOS>SUBSTRUCTURE
     1 TRL         1 TEMP              0 ****  ****    0 ROOT
