@<TRIPOS>MOLECULE
TRL
   66    65     1     0     0
SMALL
bcc


@<TRIPOS>ATOM
      1 O1          1.0180   -1.0180    2.2890 o         1 TRL     -0.563100
      2 C28         2.2010   -0.9980    1.9360 c         1 TRL      0.592900
      3 C27         3.0680    0.2110    2.2040 c3        1 TRL     -0.191700
      4 C3          4.5080   -0.2280    2.4250 c3        1 TRL     -0.075400
      5 C4          5.3340    0.8230    3.1220 c3        1 TRL     -0.104100
      6 C8          2.9030    1.3070    1.1340 c3        1 TRL      0.080700
      7 N10         3.2350    0.9170   -0.2440 n         1 TRL     -0.426800
      8 C9          2.1480    1.2880   -1.1550 c3        1 TRL      0.061000
      9 C12         1.1550    2.1620   -0.3750 c3        1 TRL     -0.107400
     10 C14         1.4000    1.7760    1.0930 c3        1 TRL      0.104500
     11 N3          1.0280    2.7780    2.0860 n3        1 TRL     -1.001800
     12 S1         -1.1810    2.5150    2.6740 s4        1 TRL      1.636500
     13 O4         -1.5910    2.1840    1.4260 o         1 TRL     -0.413900
     14 O5         -1.2730    3.7600    3.1940 o         1 TRL     -0.413900
     15 C1         -0.9340    1.3130    3.6990 c3        1 TRL     -0.578800
     16 C2          4.5540    1.0300   -0.6750 c         1 TRL      0.648100
     17 O2          5.4740    1.4630    0.0430 o         1 TRL     -0.568100
     18 C5          4.9070    0.5020   -2.0910 c3        1 TRL      0.065500
     19 C6          5.3350   -0.9850   -2.0420 c3        1 TRL     -0.074700
     20 C13         6.6070   -1.1980   -1.2510 c3        1 TRL     -0.114100
     21 C7          4.2050   -1.8270   -1.4890 c3        1 TRL     -0.114100
     22 N1          6.0100    1.3490   -2.6710 n4        1 TRL     -0.653800
     23 C11         5.4960    2.5450   -3.4370 c         1 TRL      0.645100
     24 O3          4.3500    2.9480   -3.2770 o         1 TRL     -0.468000
     25 O6          6.4580    3.0000   -4.2300 os        1 TRL     -0.417900
     26 C15         6.2080    4.2060   -5.1020 c3        1 TRL      0.209800
     27 C21         7.5550    4.3340   -5.7940 c3        1 TRL     -0.132433
     28 C26         5.0930    3.8800   -6.0680 c3        1 TRL     -0.132433
     29 C25         5.9010    5.3890   -4.2140 c3        1 TRL     -0.132433
     30 H28         2.6870   -1.8620    1.4340 h4        1 TRL      0.041200
     31 H27         2.7070    0.6800    3.1680 hc        1 TRL      0.068700
     32 HC31        4.9830   -0.4950    1.4440 hc        1 TRL      0.058700
     33 HC32        4.4990   -1.1610    3.0530 hc        1 TRL      0.058700
     34 HC41        5.4870    1.7130    2.4640 hc        1 TRL      0.051700
     35 HC42        6.3390    0.4040    3.3740 hc        1 TRL      0.051700
     36 HC43        4.8480    1.1530    4.0710 hc        1 TRL      0.051700
     37 HC8         3.5770    2.1630    1.4460 h1        1 TRL      0.090700
     38 HC91        2.5260    1.8540   -2.0520 h1        1 TRL      0.083200
     39 HC92        1.6500    0.3410   -1.5060 h1        1 TRL      0.083200
     40 H121        0.1010    1.9410   -0.6790 hc        1 TRL      0.093700
     41 H122        1.3550    3.2470   -0.5660 hc        1 TRL      0.093700
     42 H14         0.7430    0.8770    1.3110 h1        1 TRL      0.098700
     43 HN3         1.1360    3.7130    1.7190 hn        1 TRL      0.415800
     44 HC11       -0.3040    0.4410    3.3210 h1        1 TRL      0.210700
     45 HC12       -0.4550    1.5910    4.6850 h1        1 TRL      0.210700
     46 HC13       -1.8790    0.7690    4.0280 h1        1 TRL      0.210700
     47 HC5         4.0170    0.5900   -2.7850 hx        1 TRL      0.130700
     48 HC6         5.5120   -1.3120   -3.1100 hc        1 TRL      0.080700
     49 H131        6.5540   -0.6940   -0.2540 hc        1 TRL      0.063533
     50 H132        7.5010   -0.8170   -1.8010 hc        1 TRL      0.063533
     51 H133        6.7610   -2.2940   -1.0800 hc        1 TRL      0.063533
     52 HC71        3.2290   -1.5510   -1.9580 hc        1 TRL      0.063533
     53 HC72        4.1230   -1.7080   -0.3810 hc        1 TRL      0.063533
     54 HC73        4.4100   -2.9050   -1.7090 hc        1 TRL      0.063533
     55 HN1         6.6140    1.6880   -1.9010 hn        1 TRL      0.486800
     56 H211        7.7860    3.4160   -6.3860 hc        1 TRL      0.076589
     57 H212        8.3690    4.5000   -5.0480 hc        1 TRL      0.076589
     58 H213        7.5100    5.2120   -6.4860 hc        1 TRL      0.076589
     59 H261        5.3200    2.9460   -6.6360 hc        1 TRL      0.076589
     60 H262        4.9900    4.7220   -6.7980 hc        1 TRL      0.076589
     61 H263        4.1200    3.7590   -5.5310 hc        1 TRL      0.076589
     62 H251        5.8400    6.3090   -4.8480 hc        1 TRL      0.076589
     63 H252        6.7070    5.5350   -3.4560 hc        1 TRL      0.076589
     64 H253        4.9220    5.2540   -3.6930 hc        1 TRL      0.076589
     65 H32         1.6150    2.6940    2.9030 hn        1 TRL      0.415800
     66 H12         6.5900    0.7760   -3.3000 hn        1 TRL      0.486800
@<TRIPOS>BOND
     1    1    2 2   
     2    2    3 1   
     3    2   30 1   
     4    3    4 1   
     5    3    6 1   
     6    3   31 1   
     7    4    5 1   
     8    4   32 1   
     9    4   33 1   
    10    5   34 1   
    11    5   35 1   
    12    5   36 1   
    13    6    7 1   
    14    6   10 1   
    15    6   37 1   
    16    7    8 1   
    17    7   16 1   
    18    8    9 1   
    19    8   38 1   
    20    8   39 1   
    21    9   10 1   
    22    9   40 1   
    23    9   41 1   
    24   10   11 1   
    25   10   42 1   
    26   11   43 1   
    27   11   65 1   
    28   12   13 1   
    29   12   14 1   
    30   12   15 1   
    31   15   44 1   
    32   15   45 1   
    33   15   46 1   
    34   16   17 2   
    35   16   18 1   
    36   18   19 1   
    37   18   22 1   
    38   18   47 1   
    39   19   20 1   
    40   19   21 1   
    41   19   48 1   
    42   20   49 1   
    43   20   50 1   
    44   20   51 1   
    45   21   52 1   
    46   21   53 1   
    47   21   54 1   
    48   22   23 1   
    49   22   55 1   
    50   22   66 1   
    51   23   24 2   
    52   23   25 1   
    53   25   26 1   
    54   26   27 1   
    55   26   28 1   
    56   26   29 1   
    57   27   56 1   
    58   27   57 1   
    59   27   58 1   
    60   28   59 1   
    61   28   60 1   
    62   28   61 1   
    63   29   62 1   
    64   29   63 1   
    65   29   64 1   
@<TRIPOS>SUBSTRUCTURE
     1 TRL         1 TEMP              0 ****  ****    0 ROOT
