@<TRIPOS>MOLECULE
TRL
   66    65     1     0     0
SMALL
bcc


@<TRIPOS>ATOM
      1 O1          1.0850   -1.0230    2.3460 o         1 TRL     -0.563100
      2 C28         2.2700   -0.9690    2.0040 c         1 TRL      0.592900
      3 C27         3.0880    0.2810    2.2380 c3        1 TRL     -0.191700
      4 C3          4.5410   -0.0940    2.4870 c3        1 TRL     -0.075400
      5 C4          5.3180    1.0110    3.1560 c3        1 TRL     -0.104100
      6 C8          2.8910    1.3330    1.1310 c3        1 TRL      0.080700
      7 N10         3.2520    0.9110   -0.2310 n         1 TRL     -0.426800
      8 C9          2.1610    1.2080   -1.1630 c3        1 TRL      0.061000
      9 C12         1.1280    2.0690   -0.4230 c3        1 TRL     -0.107400
     10 C14         1.3720    1.7420    1.0600 c3        1 TRL      0.104500
     11 N3          0.9520    2.7620    2.0150 n3        1 TRL     -1.001800
     12 S1         -1.2520    2.4330    2.5910 s4        1 TRL      1.636500
     13 O4         -1.6350    2.0440    1.3520 o         1 TRL     -0.413900
     14 O5         -1.3970    3.6910    3.0680 o         1 TRL     -0.413900
     15 C1         -0.9690    1.2770    3.6590 c3        1 TRL     -0.578800
     16 C2          4.5710    1.0610   -0.6530 c         1 TRL      0.648100
     17 O2          5.4660    1.5530    0.0580 o         1 TRL     -0.568100
     18 C5          4.9590    0.5000   -2.0470 c3        1 TRL      0.065500
     19 C6          5.4430   -0.9660   -1.9440 c3        1 TRL     -0.074700
     20 C13         6.7140   -1.1040   -1.1350 c3        1 TRL     -0.114100
     21 C7          4.3410   -1.8330   -1.3730 c3        1 TRL     -0.114100
     22 N1          6.0340    1.3700   -2.6460 n4        1 TRL     -0.653800
     23 C11         5.4820    2.5190   -3.4550 c         1 TRL      0.645100
     24 O3          4.3200    2.8810   -3.3190 o         1 TRL     -0.468000
     25 O6          6.4340    2.9850   -4.2550 os        1 TRL     -0.417900
     26 C15         6.1460    4.1500   -5.1690 c3        1 TRL      0.209800
     27 C21         7.4940    4.3090   -5.8520 c3        1 TRL     -0.132433
     28 C26         5.0540    3.7500   -6.1330 c3        1 TRL     -0.132433
     29 C25         5.7830    5.3490   -4.3240 c3        1 TRL     -0.132433
     30 H28         2.7940   -1.8290    1.5360 h4        1 TRL      0.041200
     31 H27         2.6990    0.7680    3.1830 hc        1 TRL      0.068700
     32 HC31        4.5610   -1.0050    3.1460 hc        1 TRL      0.058700
     33 HC32        5.0360   -0.3750    1.5200 hc        1 TRL      0.058700
     34 HC41        6.3370    0.6400    3.4320 hc        1 TRL      0.051700
     35 HC42        5.4440    1.8840    2.4700 hc        1 TRL      0.051700
     36 HC43        4.8100    1.3530    4.0890 hc        1 TRL      0.051700
     37 HC8         3.5290    2.2250    1.4190 h1        1 TRL      0.090700
     38 HC91        1.7050    0.2310   -1.4860 h1        1 TRL      0.083200
     39 HC92        2.5270    1.7580   -2.0760 h1        1 TRL      0.083200
     40 H121        0.0860    1.7960   -0.7290 hc        1 TRL      0.093700
     41 H122        1.2870    3.1530   -0.6480 hc        1 TRL      0.093700
     42 H14         0.7480    0.8260    1.3030 h1        1 TRL      0.098700
     43 HN3         1.0270    3.6870    1.6170 hn        1 TRL      0.415800
     44 HC11       -0.3020    0.4170    3.3170 h1        1 TRL      0.210700
     45 HC12       -0.5110    1.6060    4.6390 h1        1 TRL      0.210700
     46 HC13       -1.8950    0.7080    3.9980 h1        1 TRL      0.210700
     47 HC5         4.0730    0.5300   -2.7520 hx        1 TRL      0.130700
     48 HC6         5.6440   -1.3220   -2.9980 hc        1 TRL      0.080700
     49 H131        7.5990   -0.7060   -1.6890 hc        1 TRL      0.063533
     50 H132        6.6310   -0.5690   -0.1570 hc        1 TRL      0.063533
     51 H133        6.9090   -2.1860   -0.9260 hc        1 TRL      0.063533
     52 HC71        4.5900   -2.9100   -1.5550 hc        1 TRL      0.063533
     53 HC72        3.3610   -1.6120   -1.8600 hc        1 TRL      0.063533
     54 HC73        4.2430   -1.6810   -0.2710 hc        1 TRL      0.063533
     55 HN1         6.6420    0.8000   -3.2500 hn        1 TRL      0.486800
     56 H211        7.7670    3.3820   -6.4110 hc        1 TRL      0.076589
     57 H212        8.2930    4.5310   -5.1050 hc        1 TRL      0.076589
     58 H213        7.4220    5.1610   -6.5730 hc        1 TRL      0.076589
     59 H261        4.0820    3.6080   -5.6020 hc        1 TRL      0.076589
     60 H262        5.3240    2.8070   -6.6680 hc        1 TRL      0.076589
     61 H263        4.9270    4.5620   -6.8930 hc        1 TRL      0.076589
     62 H251        5.6940    6.2450   -4.9880 hc        1 TRL      0.076589
     63 H252        6.5750    5.5510   -3.5630 hc        1 TRL      0.076589
     64 H253        4.8050    5.1930   -3.8070 hc        1 TRL      0.076589
     65 H32         1.5330    2.7280    2.8400 hn        1 TRL      0.415800
     66 H12         6.6170    1.7580   -1.8810 hn        1 TRL      0.486800
@<TRIPOS>BOND
     1    1    2 2   
     2    2    3 1   
     3    2   30 1   
     4    3    4 1   
     5    3    6 1   
     6    3   31 1   
     7    4    5 1   
     8    4   32 1   
     9    4   33 1   
    10    5   34 1   
    11    5   35 1   
    12    5   36 1   
    13    6    7 1   
    14    6   10 1   
    15    6   37 1   
    16    7    8 1   
    17    7   16 1   
    18    8    9 1   
    19    8   38 1   
    20    8   39 1   
    21    9   10 1   
    22    9   40 1   
    23    9   41 1   
    24   10   11 1   
    25   10   42 1   
    26   11   43 1   
    27   11   65 1   
    28   12   13 1   
    29   12   14 1   
    30   12   15 1   
    31   15   44 1   
    32   15   45 1   
    33   15   46 1   
    34   16   17 2   
    35   16   18 1   
    36   18   19 1   
    37   18   22 1   
    38   18   47 1   
    39   19   20 1   
    40   19   21 1   
    41   19   48 1   
    42   20   49 1   
    43   20   50 1   
    44   20   51 1   
    45   21   52 1   
    46   21   53 1   
    47   21   54 1   
    48   22   23 1   
    49   22   55 1   
    50   22   66 1   
    51   23   24 2   
    52   23   25 1   
    53   25   26 1   
    54   26   27 1   
    55   26   28 1   
    56   26   29 1   
    57   27   56 1   
    58   27   57 1   
    59   27   58 1   
    60   28   59 1   
    61   28   60 1   
    62   28   61 1   
    63   29   62 1   
    64   29   63 1   
    65   29   64 1   
@<TRIPOS>SUBSTRUCTURE
     1 TRL         1 TEMP              0 ****  ****    0 ROOT
