@<TRIPOS>MOLECULE
TRL
   64    64     1     0     0
SMALL
bcc


@<TRIPOS>ATOM
      1 O1          2.0500   -2.3270    3.2890 o         1 TRL     -0.539100
      2 C28         2.3330   -1.5330    2.3900 c         1 TRL      0.576900
      3 C27         1.7400   -0.1480    2.3290 c3        1 TRL     -0.182700
      4 C3          2.8240    0.8520    1.9600 c3        1 TRL     -0.072400
      5 C4          2.4080    2.2790    2.2150 c3        1 TRL     -0.095100
      6 C8          0.5210   -0.1090    1.3880 c3        1 TRL      0.075700
      7 N10         0.7560   -0.6650    0.0530 n         1 TRL     -0.446800
      8 C9         -0.2140   -1.7150   -0.2440 c3        1 TRL      0.058000
      9 C12        -1.2900   -1.6990    0.8460 c3        1 TRL     -0.113400
     10 C14        -0.6530   -0.9450    2.0330 c3        1 TRL      0.227500
     11 N3         -1.5530   -0.1570    2.8160 n3        1 TRL     -0.913100
     12 S1         -2.0440   -0.5350    4.3150 s6        1 TRL      1.470900
     13 O4         -2.5000   -1.8630    4.3810 o         1 TRL     -0.652800
     14 O5         -2.9380    0.4680    4.7440 o         1 TRL     -0.652800
     15 C1         -0.6190   -0.4280    5.2340 c3        1 TRL     -0.374300
     16 C2          1.1970    0.1810   -0.9680 c         1 TRL      0.620100
     17 O2          1.4510    1.3820   -0.7520 o         1 TRL     -0.597100
     18 C5          1.4470   -0.4280   -2.3740 c3        1 TRL      0.043700
     19 C6          2.9690   -0.6000   -2.6030 c3        1 TRL     -0.058700
     20 C13         3.7120    0.7120   -2.7120 c3        1 TRL     -0.102600
     21 C7          3.5540   -1.4600   -1.5030 c3        1 TRL     -0.102600
     22 N1          0.8300    0.3720   -3.4060 n         1 TRL     -0.516900
     23 C11        -0.5110    0.1590   -3.7050 c         1 TRL      0.740100
     24 O3         -1.1890   -0.8350   -3.3900 o         1 TRL     -0.604000
     25 O6         -1.0330    1.1780   -4.4580 os        1 TRL     -0.439900
     26 C15        -2.3450    1.0160   -5.0650 c3        1 TRL      0.185800
     27 C21        -2.4980    2.3050   -5.8710 c3        1 TRL     -0.114433
     28 C26        -2.3670   -0.1920   -5.9860 c3        1 TRL     -0.114433
     29 C25        -3.4190    0.9270   -3.9950 c3        1 TRL     -0.114433
     30 H28         3.0440   -1.7910    1.5740 h4        1 TRL      0.010200
     31 H27         1.3460    0.1200    3.3550 hc        1 TRL      0.073700
     32 HC31        3.0980    0.7340    0.8780 hc        1 TRL      0.049200
     33 HC32        3.7400    0.6200    2.5680 hc        1 TRL      0.049200
     34 HC41        3.2920    2.9540    2.1150 hc        1 TRL      0.041033
     35 HC42        1.6400    2.6010    1.4680 hc        1 TRL      0.041033
     36 HC43        1.9870    2.3990    3.2420 hc        1 TRL      0.041033
     37 HC8         0.2260    0.9790    1.2870 h1        1 TRL      0.081700
     38 HC91        0.3310   -2.7000   -0.2440 h1        1 TRL      0.071200
     39 HC92       -0.6920   -1.5730   -1.2550 h1        1 TRL      0.071200
     40 H121       -1.5720   -2.7370    1.1450 hc        1 TRL      0.071700
     41 H122       -2.2110   -1.1840    0.4740 hc        1 TRL      0.071700
     42 H14        -0.1930   -1.7200    2.7210 h1        1 TRL      0.079700
     43 HN3        -1.9130    0.6400    2.3440 hn        1 TRL      0.452800
     44 HC11       -0.8340   -0.6700    6.3070 h1        1 TRL      0.120367
     45 HC12        0.1810   -1.1450    4.9150 h1        1 TRL      0.120367
     46 HC13       -0.1600    0.5890    5.2320 h1        1 TRL      0.120367
     47 HC5         0.9910   -1.4640   -2.4350 h1        1 TRL      0.098700
     48 HC6         3.0840   -1.1530   -3.5810 hc        1 TRL      0.065700
     49 H131        4.8140    0.5240   -2.7020 hc        1 TRL      0.044867
     50 H132        3.4610    1.2360   -3.6650 hc        1 TRL      0.044867
     51 H133        3.4590    1.3860   -1.8560 hc        1 TRL      0.044867
     52 HC71        3.5750   -0.9030   -0.5340 hc        1 TRL      0.044867
     53 HC72        2.9530   -2.3910   -1.3640 hc        1 TRL      0.044867
     54 HC73        4.6010   -1.7480   -1.7660 hc        1 TRL      0.044867
     55 HN1         1.1780    1.3010   -3.5140 hn        1 TRL      0.330500
     56 H211       -3.4880    2.2970   -6.3830 hc        1 TRL      0.053256
     57 H212       -2.4380    3.1910   -5.1940 hc        1 TRL      0.053256
     58 H213       -1.6870    2.3820   -6.6330 hc        1 TRL      0.053256
     59 H261       -1.5090   -0.1480   -6.6980 hc        1 TRL      0.053256
     60 H262       -2.2960   -1.1370   -5.3940 hc        1 TRL      0.053256
     61 H263       -3.3200   -0.1980   -6.5650 hc        1 TRL      0.053256
     62 H251       -3.3100    1.7700   -3.2720 hc        1 TRL      0.053256
     63 H252       -4.4250    0.9880   -4.4750 hc        1 TRL      0.053256
     64 H253       -3.3400   -0.0380   -3.4400 hc        1 TRL      0.053256
@<TRIPOS>BOND
     1    1    2 2   
     2    2    3 1   
     3    2   30 1   
     4    3    4 1   
     5    3    6 1   
     6    3   31 1   
     7    4    5 1   
     8    4   32 1   
     9    4   33 1   
    10    5   34 1   
    11    5   35 1   
    12    5   36 1   
    13    6    7 1   
    14    6   10 1   
    15    6   37 1   
    16    7    8 1   
    17    7   16 1   
    18    8    9 1   
    19    8   38 1   
    20    8   39 1   
    21    9   10 1   
    22    9   40 1   
    23    9   41 1   
    24   10   11 1   
    25   10   42 1   
    26   11   12 1   
    27   11   43 1   
    28   12   13 2   
    29   12   14 2   
    30   12   15 1   
    31   15   44 1   
    32   15   45 1   
    33   15   46 1   
    34   16   17 2   
    35   16   18 1   
    36   18   19 1   
    37   18   22 1   
    38   18   47 1   
    39   19   20 1   
    40   19   21 1   
    41   19   48 1   
    42   20   49 1   
    43   20   50 1   
    44   20   51 1   
    45   21   52 1   
    46   21   53 1   
    47   21   54 1   
    48   22   23 1   
    49   22   55 1   
    50   23   24 2   
    51   23   25 1   
    52   25   26 1   
    53   26   27 1   
    54   26   28 1   
    55   26   29 1   
    56   27   56 1   
    57   27   57 1   
    58   27   58 1   
    59   28   59 1   
    60   28   60 1   
    61   28   61 1   
    62   29   62 1   
    63   29   63 1   
    64   29   64 1   
@<TRIPOS>SUBSTRUCTURE
     1 TRL         1 TEMP              0 ****  ****    0 ROOT
