@<TRIPOS>MOLECULE
TRM
   17    18     1     0     0
SMALL
bcc


@<TRIPOS>ATOM
      1 NG          1.1980   -0.0000    0.4180 nc        1 TRM     -0.588100
      2 CD1         0.0780    0.0000    1.1700 cd        1 TRM      0.391800
      3 NE1        -1.0960    0.0000    0.3760 na        1 TRM     -0.275300
      4 CE2        -0.7000   -0.0000   -0.9560 ca        1 TRM     -0.089200
      5 CZ2        -1.3960   -0.0000   -2.1670 ca        1 TRM     -0.144000
      6 CH2        -0.6510   -0.0000   -3.3400 ca        1 TRM     -0.146000
      7 CZ3         0.7520   -0.0000   -3.3200 ca        1 TRM     -0.176000
      8 CE3         1.4670   -0.0000   -2.1290 ca        1 TRM     -0.089000
      9 CD2         0.7620   -0.0000   -0.9210 ca        1 TRM      0.071400
     10 C          -0.0640    0.0000    2.7160 c         1 TRM      0.857300
     11 O          -1.2490    0.0010    3.1460 o         1 TRM     -0.793300
     12 OXT         0.9820   -0.0000    3.4000 o         1 TRM     -0.793300
     13 HE11       -2.0110    0.0000    0.7420 hn        1 TRM      0.313700
     14 HZ21       -2.4930   -0.0000   -2.1920 ha        1 TRM      0.117000
     15 HH21       -1.1720   -0.0000   -4.3080 ha        1 TRM      0.106000
     16 HZ31        1.2960   -0.0000   -4.2750 ha        1 TRM      0.107000
     17 HE31        2.5660   -0.0000   -2.1270 ha        1 TRM      0.130000
@<TRIPOS>BOND
     1    1    2 2   
     2    1    9 1   
     3    2    3 1   
     4    2   10 1   
     5    3    4 1   
     6    3   13 1   
     7    4    5 ar  
     8    4    9 ar  
     9    5    6 ar  
    10    5   14 1   
    11    6    7 ar  
    12    6   15 1   
    13    7    8 ar  
    14    7   16 1   
    15    8    9 ar  
    16    8   17 1   
    17   10   11 1   
    18   10   12 1   
@<TRIPOS>SUBSTRUCTURE
     1 TRM         1 TEMP              0 ****  ****    0 ROOT
