@<TRIPOS>MOLECULE
TRM
   17    13     1     0     0
SMALL
bcc


@<TRIPOS>ATOM
      1 NG         -0.2370    0.0080   -1.6230 ne        1 TRM     -0.469900
      2 CD1         1.1220    0.0010   -1.6260 c1        1 TRM      0.438800
      3 NE1         1.5460   -0.0040   -0.3350 nf        1 TRM     -0.469900
      4 CE2         0.4520   -0.0020    0.4660 ch        1 TRM     -0.004000
      5 CZ2         0.3090   -0.0070    1.8670 c1        1 TRM     -0.081250
      6 CH2        -0.9560   -0.0050    2.4340 c1        1 TRM     -0.081250
      7 CZ3        -2.0790    0.0030    1.6220 c1        1 TRM     -0.081250
      8 CE3        -1.9380    0.0080    0.2440 c1        1 TRM     -0.081250
      9 CD2        -0.6540    0.0060   -0.3330 cg        1 TRM     -0.004000
     10 C           1.7270   -0.0090   -3.0130 c1        1 TRM      0.864000
     11 O           1.8510   -1.0950   -3.6370 o         1 TRM     -0.761000
     12 OXT         2.0940    1.0700   -3.5480 o         1 TRM     -0.761000
     13 HE11        2.4150   -0.0090   -0.0560 DU        1 TRM      0.263000
     14 HZ21        1.1000    0.0040    2.4380 ha        1 TRM      0.057500
     15 HH21       -1.0550   -0.0030    3.4050 ha        1 TRM      0.057500
     16 HZ31       -2.9700    0.0040    2.0220 ha        1 TRM      0.057500
     17 HE31       -2.7290    0.0300   -0.3270 ha        1 TRM      0.057500
@<TRIPOS>BOND
     1    1    2 2   
     2    1    9 1   
     3    2    3 2   
     4    3    4 1   
     5    4    9 3   
     6    5    6 3   
     7    5   14 1   
     8    6   15 1   
     9    7    8 3   
    10    7   16 1   
    11    8   17 1   
    12   10   11 2   
    13   10   12 2   
@<TRIPOS>SUBSTRUCTURE
     1 TRM         1 TEMP              0 ****  ****    0 ROOT
