@<TRIPOS>MOLECULE
TRN
   25    26     1     0     0
SMALL
bcc


@<TRIPOS>ATOM
      1 N           1.9500   -0.2080    2.3320 n3        1 TRN     -0.901800
      2 CA          0.6260    0.3900    2.2120 c3        1 TRN      0.016500
      3 CB         -0.2100   -0.1870    1.0680 c3        1 TRN     -0.012200
      4 CG          0.3110    0.0860   -0.2790 cc        1 TRN     -0.088400
      5 CD1         1.5480    0.6190   -0.6350 cd        1 TRN     -0.098100
      6 CD2        -0.4050   -0.1630   -1.5120 ca        1 TRN     -0.193100
      7 NE1         1.6630    0.7210   -2.0290 na        1 TRN     -0.306100
      8 CE2         0.4780    0.2460   -2.6040 ca        1 TRN      0.412800
      9 CE3        -1.6610   -0.6660   -1.8460 ca        1 TRN     -0.042000
     10 NZ2         0.1550    0.1620   -3.9290 nb        1 TRN     -0.694000
     11 CH2        -1.0640   -0.3350   -4.1750 ca        1 TRN      0.395200
     12 CZ3        -1.9940   -0.7540   -3.1930 ca        1 TRN     -0.297300
     13 C          -0.2320    0.3170    3.5230 c         1 TRN      0.889600
     14 O           0.3320   -0.1000    4.5750 o         1 TRN     -0.840300
     15 OXT        -1.4320    0.6990    3.4580 o         1 TRN     -0.840300
     16 H           1.8560   -1.2080    2.2930 hn        1 TRN      0.334300
     17 H2          2.2900    0.0080    3.2560 hn        1 TRN      0.334300
     18 HA          0.7930    1.4880    2.0090 h1        1 TRN      0.042700
     19 HB2        -0.3160   -1.2990    1.1980 hc        1 TRN      0.063700
     20 HB3        -1.2430    0.2550    1.1660 hc        1 TRN      0.063700
     21 HD1         2.3710    0.9340    0.0130 h4        1 TRN      0.193000
     22 HE1         2.4400    1.0630   -2.5250 hn        1 TRN      0.294700
     23 HE3        -2.3610   -0.9780   -1.0570 ha        1 TRN      0.145000
     24 HH2        -1.3290   -0.4050   -5.2450 h4        1 TRN      0.001100
     25 HZ3        -2.9700   -1.1420   -3.5060 ha        1 TRN      0.127000
@<TRIPOS>BOND
     1    1    2 1   
     2    1   16 1   
     3    1   17 1   
     4    2    3 1   
     5    2   13 1   
     6    2   18 1   
     7    3    4 1   
     8    3   19 1   
     9    3   20 1   
    10    4    5 2   
    11    4    6 1   
    12    5    7 1   
    13    5   21 1   
    14    6    8 ar  
    15    6    9 ar  
    16    7    8 1   
    17    7   22 1   
    18    8   10 ar  
    19    9   12 ar  
    20    9   23 1   
    21   10   11 ar  
    22   11   12 ar  
    23   11   24 1   
    24   12   25 1   
    25   13   14 1   
    26   13   15 1   
@<TRIPOS>SUBSTRUCTURE
     1 TRN         1 TEMP              0 ****  ****    0 ROOT
