@<TRIPOS>MOLECULE
TRO
   27    28     1     0     0
SMALL
bcc


@<TRIPOS>ATOM
      1 N           0.5170    1.5800    1.9860 n3        1 TRO     -0.900800
      2 CA         -0.2220    0.3710    2.2880 c3        1 TRO      0.026500
      3 CB         -0.6730   -0.4850    1.0860 c3        1 TRO     -0.015200
      4 CG          0.0620   -0.2990   -0.1720 cc        1 TRO     -0.220400
      5 CD1         1.4500   -0.2520   -0.3810 cd        1 TRO      0.177000
      6 OD1         2.5060   -0.2560    0.4630 oh        1 TRO     -0.539100
      7 NE1         1.7500   -0.1630   -1.7590 na        1 TRO     -0.209400
      8 CE2         0.5330   -0.0560   -2.4450 ca        1 TRO     -0.065200
      9 CZ2         0.2710    0.0940   -3.8100 ca        1 TRO     -0.145000
     10 CH2        -1.0580    0.1210   -4.2170 ca        1 TRO     -0.147000
     11 CZ3        -2.1070   -0.0020   -3.2960 ca        1 TRO     -0.160000
     12 CE3        -1.8620   -0.1510   -1.9350 ca        1 TRO     -0.103000
     13 CD2        -0.5450   -0.1770   -1.4810 ca        1 TRO     -0.043800
     14 C           0.5270   -0.5690    3.2840 c         1 TRO      0.910600
     15 O           1.7670   -0.7870    3.0900 o         1 TRO     -0.832800
     16 OXT        -0.1330   -1.0820    4.2200 o         1 TRO     -0.832800
     17 H           0.4190    1.8170    1.0160 hn        1 TRO      0.337800
     18 H2          1.4950    1.4290    2.1670 hn        1 TRO      0.337800
     19 HA         -1.1650    0.7090    2.8140 h1        1 TRO      0.054700
     20 HB2        -0.6100   -1.5670    1.3910 hc        1 TRO      0.042700
     21 HB3        -1.7580   -0.2670    0.8860 hc        1 TRO      0.042700
     22 HD1         2.1920   -0.5720    1.3570 ho        1 TRO      0.522000
     23 HE1         2.6270    0.1150   -2.1110 hn        1 TRO      0.289700
     24 HZ2         1.0870    0.1870   -4.5380 ha        1 TRO      0.118000
     25 HH2        -1.2920    0.2400   -5.2850 ha        1 TRO      0.111000
     26 HZ3        -3.1440    0.0220   -3.6600 ha        1 TRO      0.113000
     27 HE3        -2.6910   -0.2480   -1.2200 ha        1 TRO      0.133000
@<TRIPOS>BOND
     1    1    2 1   
     2    1   17 1   
     3    1   18 1   
     4    2    3 1   
     5    2   14 1   
     6    2   19 1   
     7    3    4 1   
     8    3   20 1   
     9    3   21 1   
    10    4    5 2   
    11    4   13 1   
    12    5    6 1   
    13    5    7 1   
    14    6   22 1   
    15    7    8 1   
    16    7   23 1   
    17    8    9 ar  
    18    8   13 ar  
    19    9   10 ar  
    20    9   24 1   
    21   10   11 ar  
    22   10   25 1   
    23   11   12 ar  
    24   11   26 1   
    25   12   13 ar  
    26   12   27 1   
    27   14   15 1   
    28   14   16 1   
@<TRIPOS>SUBSTRUCTURE
     1 TRO         1 TEMP              0 ****  ****    0 ROOT
