@<TRIPOS>MOLECULE
TRP
   26    27     1     0     0
SMALL
bcc


@<TRIPOS>ATOM
      1 N           1.9520   -0.2290    2.3660 n3        1 TRP     -0.901800
      2 CA          0.6320    0.3710    2.2050 c3        1 TRP      0.017500
      3 C          -0.2540    0.3240    3.4970 c         1 TRP      0.888600
      4 O           0.2800   -0.0900    4.5660 o         1 TRP     -0.841300
      5 CB         -0.1780   -0.2230    1.0510 c3        1 TRP     -0.012200
      6 CG          0.3610    0.0490   -0.2890 cc        1 TRP     -0.092400
      7 CD1         1.6190    0.5300   -0.6360 cd        1 TRP     -0.111100
      8 CD2        -0.3680   -0.1490   -1.5320 ca        1 TRP     -0.089800
      9 NE1         1.7540    0.5960   -2.0370 na        1 TRP     -0.205400
     10 CE2         0.5270    0.2380   -2.6040 ca        1 TRP     -0.056200
     11 CE3        -1.6490   -0.5990   -1.8410 ca        1 TRP     -0.075000
     12 CZ2         0.1180    0.1700   -3.9430 ca        1 TRP     -0.160000
     13 CZ3        -2.0410   -0.6590   -3.1730 ca        1 TRP     -0.176000
     14 CH2        -1.1690   -0.2800   -4.2060 ca        1 TRP     -0.128000
     15 OXT        -1.4470    0.7250    3.4040 o         1 TRP     -0.841300
     16 H           2.2660   -0.0070    3.2980 hn        1 TRP      0.333800
     17 H2          1.8580   -1.2290    2.3310 hn        1 TRP      0.333800
     18 HA          0.8080    1.4640    1.9860 h1        1 TRP      0.042700
     19 HB2        -0.2740   -1.3350    1.1860 hc        1 TRP      0.062700
     20 HB3        -1.2170    0.2090    1.1290 hc        1 TRP      0.062700
     21 HD1         2.4540    0.7990    0.0150 h4        1 TRP      0.189000
     22 HE1         2.4280    1.1450   -2.4980 hn        1 TRP      0.275700
     23 HE3        -2.3340   -0.8930   -1.0320 ha        1 TRP      0.141000
     24 HZ2         0.7930    0.4630   -4.7570 ha        1 TRP      0.116000
     25 HZ3        -3.0510   -1.0090   -3.4280 ha        1 TRP      0.116000
     26 HH2        -1.5160   -0.3390   -5.2480 ha        1 TRP      0.111000
@<TRIPOS>BOND
     1    1    2 1   
     2    1   16 1   
     3    1   17 1   
     4    2    3 1   
     5    2    5 1   
     6    2   18 1   
     7    3    4 1   
     8    3   15 1   
     9    5    6 1   
    10    5   19 1   
    11    5   20 1   
    12    6    7 2   
    13    6    8 1   
    14    7    9 1   
    15    7   21 1   
    16    8   10 ar  
    17    8   11 ar  
    18    9   10 1   
    19    9   22 1   
    20   10   12 ar  
    21   11   13 ar  
    22   11   23 1   
    23   12   14 ar  
    24   12   24 1   
    25   13   14 ar  
    26   13   25 1   
    27   14   26 1   
@<TRIPOS>SUBSTRUCTURE
     1 TRP         1 TEMP              0 ****  ****    0 ROOT
