@<TRIPOS>MOLECULE
TRQ
   26    27     1     0     0
SMALL
bcc


@<TRIPOS>ATOM
      1 N           1.9200   -0.0570    3.0750 n3        1 TRQ     -0.903800
      2 CA          0.5640    0.4120    2.8210 c3        1 TRQ      0.014500
      3 C          -0.3750    0.3670    4.0780 c         1 TRQ      0.890600
      4 O           0.1610    0.1500    5.2010 o         1 TRQ     -0.836800
      5 OXT        -1.6060    0.5700    3.8950 o         1 TRQ     -0.836800
      6 CB         -0.1360   -0.3270    1.6790 c3        1 TRQ     -0.017100
      7 CG          0.4140   -0.0610    0.3430 cc        1 TRQ     -0.070300
      8 CD1         1.7050    0.4220    0.0190 cd        1 TRQ     -0.117300
      9 NE1         1.8330    0.5180   -1.3570 na        1 TRQ     -0.128100
     10 CE2         0.6430    0.1050   -1.9440 cd        1 TRQ     -0.233900
     11 CZ2         0.3140    0.0350   -3.3540 c         1 TRQ      0.511700
     12 CH2        -1.0930   -0.4730   -3.6470 c         1 TRQ      0.492300
     13 CZ3        -1.9680   -0.8040   -2.5180 cd        1 TRQ     -0.303200
     14 CE3        -1.5800   -0.7050   -1.2280 cc        1 TRQ      0.034800
     15 CD2        -0.2610   -0.2580   -0.9030 cc        1 TRQ     -0.120800
     16 O6         -1.4610   -0.5920   -4.8220 o         1 TRQ     -0.508100
     17 O7          1.0910    0.3510   -4.2630 o         1 TRQ     -0.524100
     18 H           1.8980   -1.0550    3.1900 hn        1 TRQ      0.335800
     19 H2          2.2010    0.3230    3.9660 hn        1 TRQ      0.335800
     20 HA          0.6510    1.5010    2.5360 h1        1 TRQ      0.044700
     21 HB2        -0.1080   -1.4360    1.8690 hc        1 TRQ      0.068700
     22 HB3        -1.2200   -0.0150    1.7080 hc        1 TRQ      0.068700
     23 HD1         2.5180    0.6970    0.6970 h4        1 TRQ      0.203000
     24 HE1         2.6240    0.8290   -1.8570 hn        1 TRQ      0.301700
     25 HZ3        -2.9780   -1.1440   -2.7910 ha        1 TRQ      0.145000
     26 HE3        -2.2570   -0.9540   -0.3930 ha        1 TRQ      0.153000
@<TRIPOS>BOND
     1    1    2 1   
     2    1   18 1   
     3    1   19 1   
     4    2    3 1   
     5    2    6 1   
     6    2   20 1   
     7    3    4 1   
     8    3    5 1   
     9    6    7 1   
    10    6   21 1   
    11    6   22 1   
    12    7    8 2   
    13    7   15 1   
    14    8    9 1   
    15    8   23 1   
    16    9   10 1   
    17    9   24 1   
    18   10   11 1   
    19   10   15 2   
    20   11   12 1   
    21   11   17 2   
    22   12   13 1   
    23   12   16 2   
    24   13   14 2   
    25   13   25 1   
    26   14   15 1   
    27   14   26 1   
@<TRIPOS>SUBSTRUCTURE
     1 TRQ         1 TEMP              0 ****  ****    0 ROOT
