@<TRIPOS>MOLECULE
TRR
   40    41     1     0     0
SMALL
bcc


@<TRIPOS>ATOM
      1 N1         -0.2370   -1.1400    0.0370 na        1 TRR     -0.375900
      2 C2          0.9070   -0.4760   -0.4560 ca        1 TRR      0.730000
      3 N2          1.2740   -0.6540   -1.7650 nh        1 TRR     -0.498900
      4 N3          1.6670    0.3490    0.3330 nb        1 TRR     -0.814000
      5 C4          1.3070    0.5280    1.6510 ca        1 TRR      0.793200
      6 N4          2.0710    1.3270    2.4250 nh        1 TRR     -0.884500
      7 C5          0.1290   -0.1540    2.2070 ca        1 TRR     -0.266600
      8 C6         -0.5910   -0.9590    1.3590 ca        1 TRR      0.023700
      9 C7         -0.2550   -0.0250    3.6380 c3        1 TRR      0.010200
     10 C11        -0.5050    1.3800    4.0730 ca        1 TRR     -0.074300
     11 C12        -1.4700    2.1540    3.4270 ca        1 TRR     -0.231000
     12 C13        -1.7240    3.4610    3.8660 ca        1 TRR      0.144100
     13 C14        -1.0340    3.9910    4.9800 ca        1 TRR      0.071100
     14 C15        -0.0550    3.1940    5.6140 ca        1 TRR      0.144100
     15 C16         0.2090    1.8950    5.1590 ca        1 TRR     -0.231000
     16 O13        -2.6150    4.3160    3.2610 os        1 TRR     -0.303900
     17 O14        -1.4320    5.2090    5.4850 os        1 TRR     -0.302900
     18 O15         0.6230    3.7940    6.6500 os        1 TRR     -0.303900
     19 C17        -3.5970    3.7150    2.4210 c3        1 TRR      0.110200
     20 C18        -0.4550    6.2480    5.3760 c3        1 TRR      0.112700
     21 C19         1.3060    2.9220    7.5500 c3        1 TRR      0.110200
     22 H1         -0.7870   -1.7380   -0.5440 hn        1 TRR      0.329700
     23 H21         2.0810   -0.1850   -2.1140 hn        1 TRR      0.325700
     24 H22         0.7540   -1.2370   -2.3770 hn        1 TRR      0.325700
     25 H41         2.8620    1.8080    2.0520 hn        1 TRR      0.479300
     26 H42         1.7810    1.5340    3.3590 hn        1 TRR      0.479300
     27 H6         -1.4950   -1.5110    1.6920 h4        1 TRR      0.200000
     28 H71        -1.1880   -0.6260    3.8330 hc        1 TRR      0.079700
     29 H72         0.5610   -0.4860    4.2660 hc        1 TRR      0.079700
     30 H12        -2.0340    1.7370    2.5820 ha        1 TRR      0.139500
     31 H16         0.9430    1.2680    5.6860 ha        1 TRR      0.139500
     32 H171       -4.1280    2.8890    2.9510 h1        1 TRR      0.051367
     33 H172       -3.1240    3.3420    1.4800 h1        1 TRR      0.051367
     34 H173       -4.2960    4.5620    2.2010 h1        1 TRR      0.051367
     35 H181        0.4700    5.9760    5.9390 h1        1 TRR      0.050367
     36 H182       -0.9660    7.1270    5.8440 h1        1 TRR      0.050367
     37 H183       -0.2230    6.4480    4.3030 h1        1 TRR      0.050367
     38 H191        2.2100    2.4910    7.0560 h1        1 TRR      0.051367
     39 H192        0.6300    2.1120    7.9150 h1        1 TRR      0.051367
     40 H193        1.6020    3.6030    8.3890 h1        1 TRR      0.051367
@<TRIPOS>BOND
     1    1    2 1   
     2    1    8 2   
     3    1   22 1   
     4    2    3 1   
     5    2    4 ar  
     6    3   23 1   
     7    3   24 1   
     8    4    5 ar  
     9    5    6 1   
    10    5    7 ar  
    11    6   25 1   
    12    6   26 1   
    13    7    8 ar  
    14    7    9 1   
    15    8   27 1   
    16    9   10 1   
    17    9   28 1   
    18    9   29 1   
    19   10   11 ar  
    20   10   15 ar  
    21   11   12 ar  
    22   11   30 1   
    23   12   13 ar  
    24   12   16 1   
    25   13   14 ar  
    26   13   17 1   
    27   14   15 ar  
    28   14   18 1   
    29   15   31 1   
    30   16   19 1   
    31   17   20 1   
    32   18   21 1   
    33   19   32 1   
    34   19   33 1   
    35   19   34 1   
    36   20   35 1   
    37   20   36 1   
    38   20   37 1   
    39   21   38 1   
    40   21   39 1   
    41   21   40 1   
@<TRIPOS>SUBSTRUCTURE
     1 TRR         1 TEMP              0 ****  ****    0 ROOT
