@<TRIPOS>MOLECULE
TRR
   40    41     1     0     0
SMALL
bcc


@<TRIPOS>ATOM
      1 N1         -0.2140   -1.1620    0.0590 na        1 TRR     -0.375900
      2 C2          0.9250   -0.4920   -0.4400 ca        1 TRR      0.730000
      3 N2          1.2930   -0.6770   -1.7470 nv        1 TRR     -0.498900
      4 N3          1.6780    0.3440    0.3440 nb        1 TRR     -0.814000
      5 C4          1.3170    0.5300    1.6610 ca        1 TRR      0.793200
      6 N4          2.0750    1.3400    2.4290 nv        1 TRR     -0.884500
      7 C5          0.1440   -0.1590    2.2210 ca        1 TRR     -0.266600
      8 C6         -0.5690   -0.9750    1.3790 ca        1 TRR      0.023700
      9 C7         -0.2400   -0.0230    3.6510 c3        1 TRR      0.010200
     10 C11        -0.5020    1.3830    4.0770 ca        1 TRR     -0.074300
     11 C12        -1.4720    2.1450    3.4260 ca        1 TRR     -0.231000
     12 C13        -1.7370    3.4530    3.8570 ca        1 TRR      0.144100
     13 C14        -1.0520    3.9960    4.9670 ca        1 TRR      0.071100
     14 C15        -0.0660    3.2110    5.6060 ca        1 TRR      0.144100
     15 C16         0.2080    1.9110    5.1600 ca        1 TRR     -0.231000
     16 O13        -2.6340    4.2970    3.2450 os        1 TRR     -0.303900
     17 O14        -1.4590    5.2140    5.4640 os        1 TRR     -0.302900
     18 O15         0.6080    3.8230    6.6380 os        1 TRR     -0.303900
     19 C17        -3.6120    3.6830    2.4100 c3        1 TRR      0.110200
     20 C18        -0.4900    6.2600    5.3470 c3        1 TRR      0.112700
     21 C19         1.2970    2.9630    7.5430 c3        1 TRR      0.110200
     22 H1         -0.7580   -1.7680   -0.5190 hn        1 TRR      0.329700
     23 H21         2.0970   -0.2030   -2.0990 hn        1 TRR      0.325700
     24 H22         0.7780   -1.2670   -2.3550 hn        1 TRR      0.325700
     25 H41         2.8610    1.8240    2.0530 hn        1 TRR      0.479300
     26 H42         1.7830    1.5500    3.3620 hn        1 TRR      0.479300
     27 H6         -1.4690   -1.5310    1.7160 h4        1 TRR      0.200000
     28 H71         0.5790   -0.4730    4.2820 hc        1 TRR      0.079700
     29 H72        -1.1690   -0.6290    3.8510 hc        1 TRR      0.079700
     30 H12        -2.0330    1.7180    2.5840 ha        1 TRR      0.139500
     31 H16         0.9470    1.2930    5.6910 ha        1 TRR      0.139500
     32 H171       -4.1370    2.8560    2.9460 h1        1 TRR      0.051367
     33 H172       -3.1360    3.3060    1.4720 h1        1 TRR      0.051367
     34 H173       -4.3180    4.5230    2.1840 h1        1 TRR      0.051367
     35 H181       -1.0070    7.1380    5.8100 h1        1 TRR      0.050367
     36 H182       -0.2600    6.4550    4.2720 h1        1 TRR      0.050367
     37 H183        0.4380    5.9990    5.9110 h1        1 TRR      0.050367
     38 H191        1.5870    3.6510    8.3780 h1        1 TRR      0.051367
     39 H192        0.6270    2.1510    7.9140 h1        1 TRR      0.051367
     40 H193        2.2050    2.5350    7.0520 h1        1 TRR      0.051367
@<TRIPOS>BOND
     1    1    2 1   
     2    1    8 2   
     3    1   22 1   
     4    2    3 1   
     5    2    4 ar  
     6    3   23 1   
     7    3   24 1   
     8    4    5 ar  
     9    5    6 1   
    10    5    7 ar  
    11    6   25 1   
    12    6   26 1   
    13    7    8 ar  
    14    7    9 1   
    15    8   27 1   
    16    9   10 1   
    17    9   28 1   
    18    9   29 1   
    19   10   11 ar  
    20   10   15 ar  
    21   11   12 ar  
    22   11   30 1   
    23   12   13 ar  
    24   12   16 1   
    25   13   14 ar  
    26   13   17 1   
    27   14   15 ar  
    28   14   18 1   
    29   15   31 1   
    30   16   19 1   
    31   17   20 1   
    32   18   21 1   
    33   19   32 1   
    34   19   33 1   
    35   19   34 1   
    36   20   35 1   
    37   20   36 1   
    38   20   37 1   
    39   21   38 1   
    40   21   39 1   
    41   21   40 1   
@<TRIPOS>SUBSTRUCTURE
     1 TRR         1 TEMP              0 ****  ****    0 ROOT
