@<TRIPOS>MOLECULE
TRR
   40    41     1     0     0
SMALL
bcc


@<TRIPOS>ATOM
      1 N1         -0.2310   -1.1520    0.0490 na        1 TRR     -0.375900
      2 C2          0.9160   -0.4910   -0.4430 ca        1 TRR      0.730000
      3 N2          1.2880   -0.6750   -1.7500 nh        1 TRR     -0.498900
      4 N3          1.6740    0.3360    0.3460 nb        1 TRR     -0.814000
      5 C4          1.3100    0.5200    1.6620 ca        1 TRR      0.793200
      6 N4          2.0720    1.3210    2.4360 nh        1 TRR     -0.884500
      7 C5          0.1280   -0.1590    2.2160 ca        1 TRR     -0.266600
      8 C6         -0.5900   -0.9660    1.3680 ca        1 TRR      0.023700
      9 C7         -0.2600   -0.0240    3.6450 c3        1 TRR      0.010200
     10 C11        -0.5110    1.3830    4.0740 ca        1 TRR     -0.074300
     11 C12        -1.4710    2.1560    3.4220 ca        1 TRR     -0.231000
     12 C13        -1.7260    3.4650    3.8550 ca        1 TRR      0.144100
     13 C14        -1.0400    3.9980    4.9700 ca        1 TRR      0.071100
     14 C15        -0.0640    3.2030    5.6100 ca        1 TRR      0.144100
     15 C16         0.2000    1.9010    5.1610 ca        1 TRR     -0.231000
     16 O13        -2.6130    4.3190    3.2440 os        1 TRR     -0.303900
     17 O14        -1.4380    5.2180    5.4690 os        1 TRR     -0.302900
     18 O15         0.6110    3.8050    6.6470 os        1 TRR     -0.303900
     19 C17        -3.5930    3.7160    2.4020 c3        1 TRR      0.110200
     20 C18        -0.4590    6.2560    5.3590 c3        1 TRR      0.112700
     21 C19         1.2900    2.9360    7.5520 c3        1 TRR      0.110200
     22 H1         -0.7790   -1.7500   -0.5330 hn        1 TRR      0.329700
     23 H21         2.0970   -0.2070   -2.0970 hn        1 TRR      0.325700
     24 H22         0.7690   -1.2580   -2.3610 hn        1 TRR      0.325700
     25 H41         2.8650    1.7990    2.0640 hn        1 TRR      0.479300
     26 H42         1.7790    1.5310    3.3680 hn        1 TRR      0.479300
     27 H6         -1.4960   -1.5140    1.7000 h4        1 TRR      0.200000
     28 H71         0.5520   -0.4830    4.2780 hc        1 TRR      0.079700
     29 H72        -1.1950   -0.6220    3.8390 hc        1 TRR      0.079700
     30 H12        -2.0330    1.7370    2.5760 ha        1 TRR      0.139500
     31 H16         0.9310    1.2750    5.6930 ha        1 TRR      0.139500
     32 H171       -4.1270    2.8930    2.9330 h1        1 TRR      0.051367
     33 H172       -3.1170    3.3390    1.4640 h1        1 TRR      0.051367
     34 H173       -4.2900    4.5640    2.1760 h1        1 TRR      0.051367
     35 H181       -0.9700    7.1370    5.8230 h1        1 TRR      0.050367
     36 H182       -0.2230    6.4520    4.2860 h1        1 TRR      0.050367
     37 H183        0.4640    5.9850    5.9260 h1        1 TRR      0.050367
     38 H191        1.5830    3.6190    8.3900 h1        1 TRR      0.051367
     39 H192        0.6110    2.1280    7.9180 h1        1 TRR      0.051367
     40 H193        2.1950    2.5020    7.0630 h1        1 TRR      0.051367
@<TRIPOS>BOND
     1    1    2 1   
     2    1    8 2   
     3    1   22 1   
     4    2    3 1   
     5    2    4 ar  
     6    3   23 1   
     7    3   24 1   
     8    4    5 ar  
     9    5    6 1   
    10    5    7 ar  
    11    6   25 1   
    12    6   26 1   
    13    7    8 ar  
    14    7    9 1   
    15    8   27 1   
    16    9   10 1   
    17    9   28 1   
    18    9   29 1   
    19   10   11 ar  
    20   10   15 ar  
    21   11   12 ar  
    22   11   30 1   
    23   12   13 ar  
    24   12   16 1   
    25   13   14 ar  
    26   13   17 1   
    27   14   15 ar  
    28   14   18 1   
    29   15   31 1   
    30   16   19 1   
    31   17   20 1   
    32   18   21 1   
    33   19   32 1   
    34   19   33 1   
    35   19   34 1   
    36   20   35 1   
    37   20   36 1   
    38   20   37 1   
    39   21   38 1   
    40   21   39 1   
    41   21   40 1   
@<TRIPOS>SUBSTRUCTURE
     1 TRR         1 TEMP              0 ****  ****    0 ROOT
