@<TRIPOS>MOLECULE
TRR
   40    41     1     0     0
SMALL
bcc


@<TRIPOS>ATOM
      1 N1          4.2130    1.6230   -0.4930 na        1 TRR     -0.375900
      2 C2          4.5190    0.8940    0.6770 ca        1 TRR      0.730000
      3 N2          5.6100    1.2520    1.4250 nh        1 TRR     -0.498900
      4 N3          3.7540   -0.1640    1.0960 nb        1 TRR     -0.814000
      5 C4          2.6580   -0.5340    0.3460 ca        1 TRR      0.793200
      6 N4          1.9230   -1.5890    0.7550 nh        1 TRR     -0.884500
      7 C5          2.3130    0.1930   -0.8860 ca        1 TRR     -0.266600
      8 C6          3.1170    1.2470   -1.2420 ca        1 TRR      0.023700
      9 C7          1.1710   -0.2140   -1.7480 c3        1 TRR      0.010200
     10 C11        -0.1450   -0.2280   -1.0450 ca        1 TRR     -0.074300
     11 C12        -0.6330    0.9340   -0.4450 ca        1 TRR     -0.231500
     12 C13        -1.8930    0.9250    0.1700 ca        1 TRR      0.144600
     13 C14        -2.6770   -0.2500    0.1840 ca        1 TRR      0.071100
     14 C15        -2.1540   -1.4210   -0.4100 ca        1 TRR      0.144600
     15 C16        -0.8980   -1.4050   -1.0310 ca        1 TRR     -0.231500
     16 O13        -2.4370    2.0100    0.8190 os        1 TRR     -0.303900
     17 O14        -3.9780   -0.2600    0.6350 os        1 TRR     -0.301900
     18 O15        -2.9400   -2.5430   -0.2990 os        1 TRR     -0.303900
     19 C17        -1.8610    3.2800    0.5240 c3        1 TRR      0.109700
     20 C18        -4.1180   -0.1070    2.0510 c3        1 TRR      0.112700
     21 C19        -2.6810   -3.5910   -1.2320 c3        1 TRR      0.109700
     22 H1          4.7750    2.3930   -0.7900 hn        1 TRR      0.329700
     23 H21         6.1930    2.0120    1.1660 hn        1 TRR      0.325700
     24 H22         5.8260    0.7380    2.2520 hn        1 TRR      0.325700
     25 H41         2.1410   -2.0760    1.5970 hn        1 TRR      0.479800
     26 H42         1.0810   -1.8220    0.2700 hn        1 TRR      0.479800
     27 H6          2.9300    1.8520   -2.1540 h4        1 TRR      0.200000
     28 H71         1.3940   -1.2350   -2.1720 hc        1 TRR      0.079700
     29 H72         1.0940    0.4880   -2.6260 hc        1 TRR      0.079700
     30 H12        -0.0390    1.8570   -0.4730 ha        1 TRR      0.140000
     31 H16        -0.5250   -2.3080   -1.5360 ha        1 TRR      0.140000
     32 H171       -0.8420    3.3560    0.9750 h1        1 TRR      0.051700
     33 H172       -1.8210    3.4560   -0.5780 h1        1 TRR      0.051700
     34 H173       -2.5650    4.0000    1.0160 h1        1 TRR      0.051700
     35 H181       -5.2270   -0.1300    2.2000 h1        1 TRR      0.050033
     36 H182       -3.6280   -0.9580    2.5820 h1        1 TRR      0.050033
     37 H183       -3.6900    0.8690    2.3830 h1        1 TRR      0.050033
     38 H191       -3.5500   -4.2830   -1.0850 h1        1 TRR      0.051700
     39 H192       -2.6560   -3.2020   -2.2780 h1        1 TRR      0.051700
     40 H193       -1.7220   -4.1040   -0.9780 h1        1 TRR      0.051700
@<TRIPOS>BOND
     1    1    2 1   
     2    1    8 2   
     3    1   22 1   
     4    2    3 1   
     5    2    4 ar  
     6    3   23 1   
     7    3   24 1   
     8    4    5 ar  
     9    5    6 1   
    10    5    7 ar  
    11    6   25 1   
    12    6   26 1   
    13    7    8 ar  
    14    7    9 1   
    15    8   27 1   
    16    9   10 1   
    17    9   28 1   
    18    9   29 1   
    19   10   11 ar  
    20   10   15 ar  
    21   11   12 ar  
    22   11   30 1   
    23   12   13 ar  
    24   12   16 1   
    25   13   14 ar  
    26   13   17 1   
    27   14   15 ar  
    28   14   18 1   
    29   15   31 1   
    30   16   19 1   
    31   17   20 1   
    32   18   21 1   
    33   19   32 1   
    34   19   33 1   
    35   19   34 1   
    36   20   35 1   
    37   20   36 1   
    38   20   37 1   
    39   21   38 1   
    40   21   39 1   
    41   21   40 1   
@<TRIPOS>SUBSTRUCTURE
     1 TRR         1 TEMP              0 ****  ****    0 ROOT
