@<TRIPOS>MOLECULE
TRS
   20    19     1     0     0
SMALL
bcc


@<TRIPOS>ATOM
      1 C          -0.0440    0.0000   -0.0090 c3        1 TRS      0.085200
      2 C1          1.5080   -0.0390   -0.0340 c3        1 TRS      0.117400
      3 C2         -0.5340    0.0120    1.4570 c3        1 TRS      0.117400
      4 C3         -0.6120   -1.2610   -0.7150 c3        1 TRS      0.117400
      5 N          -0.5200    1.2390   -0.7330 nz        1 TRS     -0.827600
      6 O1          1.8610   -1.2970    0.5070 oh        1 TRS     -0.615467
      7 O2         -0.2300    1.2880    1.9890 oh        1 TRS     -0.615467
      8 O3         -0.3140   -1.1850   -2.0900 oh        1 TRS     -0.615467
      9 H11         1.8830    0.0300   -1.0910 h1        1 TRS      0.080533
     10 H12         1.9200    0.8000    0.5880 h1        1 TRS      0.080533
     11 H21        -1.6440   -0.1580    1.5050 h1        1 TRS      0.080533
     12 H22         0.0040   -0.8100    2.0030 h1        1 TRS      0.080533
     13 H31        -0.1690   -2.1650   -0.2180 h1        1 TRS      0.080533
     14 H32        -1.7330   -1.2870   -0.6300 h1        1 TRS      0.080533
     15 HN1        -0.0930    2.0660   -0.3040 hn        1 TRS      0.468467
     16 HN2        -0.2620    1.1630   -1.7240 hn        1 TRS      0.468467
     17 HN3        -1.5380    1.3030   -0.6500 hn        1 TRS      0.468467
     18 HO1         2.8010   -1.2580    0.7350 ho        1 TRS      0.450000
     19 HO2        -0.1890    1.2060    2.9520 ho        1 TRS      0.450000
     20 HO3         0.4000   -1.8070   -2.2840 ho        1 TRS      0.450000
@<TRIPOS>BOND
     1    1    2 1   
     2    1    3 1   
     3    1    4 1   
     4    1    5 1   
     5    2    6 1   
     6    2    9 1   
     7    2   10 1   
     8    3    7 1   
     9    3   11 1   
    10    3   12 1   
    11    4    8 1   
    12    4   13 1   
    13    4   14 1   
    14    5   15 1   
    15    5   16 1   
    16    5   17 1   
    17    6   18 1   
    18    7   19 1   
    19    8   20 1   
@<TRIPOS>SUBSTRUCTURE
     1 TRS         1 TEMP              0 ****  ****    0 ROOT
