@<TRIPOS>MOLECULE
TRS
   20    19     1     0     0
SMALL
bcc


@<TRIPOS>ATOM
      1 C          -0.0450   -0.0000   -0.0090 c3        1 TRS      0.085200
      2 C1          1.5070   -0.0370   -0.0360 c3        1 TRS      0.117400
      3 C2         -0.5320    0.0120    1.4580 c3        1 TRS      0.117400
      4 C3         -0.6110   -1.2630   -0.7130 c3        1 TRS      0.117400
      5 N          -0.5230    1.2370   -0.7340 n4        1 TRS     -0.827600
      6 O1          1.8630   -1.2940    0.5060 oh        1 TRS     -0.615467
      7 O2         -0.2300    1.2900    1.9880 oh        1 TRS     -0.615467
      8 O3         -0.3160   -1.1880   -2.0880 oh        1 TRS     -0.615467
      9 H11         1.8810    0.0320   -1.0940 h1        1 TRS      0.080533
     10 H12         1.9200    0.8030    0.5850 h1        1 TRS      0.080533
     11 H21        -1.6420   -0.1590    1.5080 h1        1 TRS      0.080533
     12 H22         0.0080   -0.8080    2.0040 h1        1 TRS      0.080533
     13 H31        -0.1670   -2.1660   -0.2150 h1        1 TRS      0.080533
     14 H32        -1.7320   -1.2900   -0.6270 h1        1 TRS      0.080533
     15 HN1        -0.0960    2.0660   -0.3060 hn        1 TRS      0.468467
     16 HN2        -0.2660    1.1610   -1.7250 hn        1 TRS      0.468467
     17 HN3        -1.5410    1.3000   -0.6490 hn        1 TRS      0.468467
     18 HO1         2.8030   -1.2530    0.7320 ho        1 TRS      0.450000
     19 HO2        -0.1870    1.2080    2.9510 ho        1 TRS      0.450000
     20 HO3         0.4000   -1.8090   -2.2820 ho        1 TRS      0.450000
@<TRIPOS>BOND
     1    1    2 1   
     2    1    3 1   
     3    1    4 1   
     4    1    5 1   
     5    2    6 1   
     6    2    9 1   
     7    2   10 1   
     8    3    7 1   
     9    3   11 1   
    10    3   12 1   
    11    4    8 1   
    12    4   13 1   
    13    4   14 1   
    14    5   15 1   
    15    5   16 1   
    16    5   17 1   
    17    6   18 1   
    18    7   19 1   
    19    8   20 1   
@<TRIPOS>SUBSTRUCTURE
     1 TRS         1 TEMP              0 ****  ****    0 ROOT
