@<TRIPOS>MOLECULE
TRS
   20    19     1     0     0
SMALL
bcc


@<TRIPOS>ATOM
      1 C           0.0060   -0.3310   -0.0110 c3        1 TRS      0.085200
      2 C1         -0.0900    0.9740    0.8260 c3        1 TRS      0.117400
      3 C2          1.2820   -0.2870   -0.8840 c3        1 TRS      0.117400
      4 C3         -1.2310   -0.4500   -0.9400 c3        1 TRS      0.117400
      5 N           0.0490   -1.5170    0.9250 n4        1 TRS     -0.827600
      6 O1         -0.2950    2.0090   -0.1150 oh        1 TRS     -0.615467
      7 O2          2.3880   -0.4490   -0.0150 oh        1 TRS     -0.615467
      8 O3         -2.3760   -0.6660   -0.1480 oh        1 TRS     -0.615467
      9 H11        -0.9710    0.9250    1.5240 h1        1 TRS      0.080533
     10 H12         0.8620    1.1300    1.4000 h1        1 TRS      0.080533
     11 H21         1.2740   -1.1210   -1.6370 h1        1 TRS      0.080533
     12 H22         1.3010    0.7060   -1.4090 h1        1 TRS      0.080533
     13 H31        -1.2930    0.4850   -1.5580 h1        1 TRS      0.080533
     14 H32        -1.1330   -1.3470   -1.6110 h1        1 TRS      0.080533
     15 HN1        -0.8450   -1.5770    1.4260 hn        1 TRS      0.468467
     16 HN2         0.8300   -1.4040    1.5800 hn        1 TRS      0.468467
     17 HN3         0.1900   -2.3690    0.3770 hn        1 TRS      0.468467
     18 HO1        -0.1140    2.8460    0.3360 ho        1 TRS      0.450000
     19 HO2         3.1660   -0.0770   -0.4540 ho        1 TRS      0.450000
     20 HO3        -2.8900    0.1530   -0.1230 ho        1 TRS      0.450000
@<TRIPOS>BOND
     1    1    2 1   
     2    1    3 1   
     3    1    4 1   
     4    1    5 1   
     5    2    6 1   
     6    2    9 1   
     7    2   10 1   
     8    3    7 1   
     9    3   11 1   
    10    3   12 1   
    11    4    8 1   
    12    4   13 1   
    13    4   14 1   
    14    5   15 1   
    15    5   16 1   
    16    5   17 1   
    17    6   18 1   
    18    7   19 1   
    19    8   20 1   
@<TRIPOS>SUBSTRUCTURE
     1 TRS         1 TEMP              0 ****  ****    0 ROOT
