@<TRIPOS>MOLECULE
TRS
   20    19     1     0     0
SMALL
bcc


@<TRIPOS>ATOM
      1 C          -0.0450   -0.0010   -0.0090 c3        1 TRS      0.085200
      2 C1          1.5070   -0.0350   -0.0360 c3        1 TRS      0.117400
      3 C2         -0.5330    0.0110    1.4580 c3        1 TRS      0.117400
      4 C3         -0.6090   -1.2640   -0.7130 c3        1 TRS      0.117400
      5 N          -0.5260    1.2360   -0.7330 n4        1 TRS     -0.827600
      6 O1          1.8650   -1.2910    0.5060 oh        1 TRS     -0.615467
      7 O2         -0.2320    1.2880    1.9890 oh        1 TRS     -0.615467
      8 O3         -0.3140   -1.1880   -2.0890 oh        1 TRS     -0.615467
      9 H11         1.8800    0.0350   -1.0940 h1        1 TRS      0.080533
     10 H12         1.9180    0.8060    0.5850 h1        1 TRS      0.080533
     11 H21         0.0090   -0.8090    2.0040 h1        1 TRS      0.080533
     12 H22        -1.6420   -0.1630    1.5080 h1        1 TRS      0.080533
     13 H31        -0.1630   -2.1660   -0.2160 h1        1 TRS      0.080533
     14 H32        -1.7300   -1.2930   -0.6270 h1        1 TRS      0.080533
     15 HN1        -0.2680    1.1610   -1.7240 hn        1 TRS      0.468467
     16 HN2        -0.1000    2.0650   -0.3060 hn        1 TRS      0.468467
     17 HN3        -1.5430    1.2970   -0.6480 hn        1 TRS      0.468467
     18 HO1         2.8060   -1.2480    0.7320 ho        1 TRS      0.450000
     19 HO2        -0.1890    1.2060    2.9510 ho        1 TRS      0.450000
     20 HO3         0.4020   -1.8080   -2.2830 ho        1 TRS      0.450000
@<TRIPOS>BOND
     1    1    2 1   
     2    1    3 1   
     3    1    4 1   
     4    1    5 1   
     5    2    6 1   
     6    2    9 1   
     7    2   10 1   
     8    3    7 1   
     9    3   11 1   
    10    3   12 1   
    11    4    8 1   
    12    4   13 1   
    13    4   14 1   
    14    5   15 1   
    15    5   16 1   
    16    5   17 1   
    17    6   18 1   
    18    7   19 1   
    19    8   20 1   
@<TRIPOS>SUBSTRUCTURE
     1 TRS         1 TEMP              0 ****  ****    0 ROOT
