@<TRIPOS>MOLECULE
TRT
   61    61     1     0     0
SMALL
bcc


@<TRIPOS>ATOM
      1 C25         3.2440   -1.1230   -9.9930 c3        1 TRT      0.118700
      2 O24         2.8500   -0.2000   -8.9920 os        1 TRT     -0.424600
      3 C23         1.7320   -0.6630   -8.2370 c3        1 TRT      0.125400
      4 C22         1.4450    0.4260   -7.2080 c3        1 TRT      0.128400
      5 O21         0.2730    0.0040   -6.5140 os        1 TRT     -0.430600
      6 C20        -0.1250    0.9440   -5.5170 c3        1 TRT      0.128400
      7 C19        -1.2830    0.3040   -4.7600 c3        1 TRT      0.127400
      8 O18        -0.7720   -0.0710   -3.4820 os        1 TRT     -0.427600
      9 C17        -1.7080   -0.8390   -2.7300 c3        1 TRT      0.126400
     10 C16        -1.1190   -0.9870   -1.3300 c3        1 TRT      0.124400
     11 O15        -1.9180   -0.1510   -0.4840 os        1 TRT     -0.333900
     12 C12        -1.5070   -0.0590    0.8310 ca        1 TRT      0.124100
     13 C13        -2.2590    0.8240    1.6280 ca        1 TRT     -0.180000
     14 C14        -1.9300    0.9800    2.9660 ca        1 TRT     -0.098500
     15 C11        -0.4460   -0.7750    1.3910 ca        1 TRT     -0.180000
     16 C10        -0.1330   -0.5990    2.7400 ca        1 TRT     -0.098500
     17 C9         -0.8540    0.2840    3.5480 ca        1 TRT     -0.101300
     18 C6         -0.5520    0.5020    5.0200 c3        1 TRT      0.010300
     19 C8         -0.4060    1.9970    5.2760 c3        1 TRT     -0.087100
     20 C7         -1.7440   -0.0380    5.8100 c3        1 TRT     -0.087100
     21 C5          0.7370   -0.2410    5.3950 c3        1 TRT     -0.064400
     22 C1          1.4310   -0.0570    6.7510 c3        1 TRT     -0.047000
     23 C2          0.4840   -0.0640    7.9370 c3        1 TRT     -0.088100
     24 C4          2.3860   -1.2460    6.9100 c3        1 TRT     -0.088100
     25 C3          2.2750    1.2100    6.7800 c3        1 TRT     -0.088100
     26 H251        4.1150   -0.6340  -10.4950 h1        1 TRT      0.033700
     27 H252        3.5510   -2.0950   -9.5330 h1        1 TRT      0.033700
     28 H253        2.4140   -1.2930  -10.7220 h1        1 TRT      0.033700
     29 H231        0.8490   -0.8150   -8.9120 h1        1 TRT      0.039700
     30 H232        1.9830   -1.6320   -7.7320 h1        1 TRT      0.039700
     31 H221        2.3010    0.5310   -6.4920 h1        1 TRT      0.041200
     32 H222        1.2610    1.4100   -7.7140 h1        1 TRT      0.041200
     33 H201        0.7320    1.1630   -4.8260 h1        1 TRT      0.045700
     34 H202       -0.4590    1.8910   -6.0170 h1        1 TRT      0.045700
     35 H191       -2.1160    1.0430   -4.6200 h1        1 TRT      0.044700
     36 H192       -1.6660   -0.5990   -5.3060 h1        1 TRT      0.044700
     37 H171       -2.7020   -0.3170   -2.6920 h1        1 TRT      0.046700
     38 H172       -1.8290   -1.8460   -3.2100 h1        1 TRT      0.046700
     39 H161       -1.1970   -2.0480   -0.9800 h1        1 TRT      0.055200
     40 H162       -0.0500   -0.6470   -1.3080 h1        1 TRT      0.055200
     41 H13        -3.0970    1.3760    1.1790 ha        1 TRT      0.141500
     42 H14        -2.5380    1.6640    3.5790 ha        1 TRT      0.134000
     43 H11         0.1470   -1.4760    0.7880 ha        1 TRT      0.141500
     44 H10         0.7030   -1.1920    3.1430 ha        1 TRT      0.134000
     45 H8C1        0.5170    2.3830    4.7810 hc        1 TRT      0.037033
     46 H8C2       -1.2830    2.5630    4.8810 hc        1 TRT      0.037033
     47 H8C3       -0.3440    2.1960    6.3730 hc        1 TRT      0.037033
     48 H7C1       -1.7060   -1.1520    5.8620 hc        1 TRT      0.037033
     49 H7C2       -1.7550    0.3700    6.8480 hc        1 TRT      0.037033
     50 H7C3       -2.7040    0.2590    5.3200 hc        1 TRT      0.037033
     51 H5C1        0.5100   -1.3390    5.2910 hc        1 TRT      0.041200
     52 H5C2        1.5100    0.0260    4.6220 hc        1 TRT      0.041200
     53 H2C1        1.0650   -0.1620    8.8870 hc        1 TRT      0.034256
     54 H2C2       -0.1000    0.8870    7.9900 hc        1 TRT      0.034256
     55 H2C3       -0.2240   -0.9240    7.8650 hc        1 TRT      0.034256
     56 H4C1        1.8120   -2.2000    6.9810 hc        1 TRT      0.034256
     57 H4C2        3.0790   -1.3060    6.0370 hc        1 TRT      0.034256
     58 H4C3        2.9950   -1.1300    7.8390 hc        1 TRT      0.034256
     59 H3C1        1.6400    2.1260    6.7780 hc        1 TRT      0.034256
     60 H3C2        2.9010    1.2270    7.7070 hc        1 TRT      0.034256
     61 H3C3        2.9540    1.2460    5.8950 hc        1 TRT      0.034256
@<TRIPOS>BOND
     1    1    2 1   
     2    1   26 1   
     3    1   27 1   
     4    1   28 1   
     5    2    3 1   
     6    3    4 1   
     7    3   29 1   
     8    3   30 1   
     9    4    5 1   
    10    4   31 1   
    11    4   32 1   
    12    5    6 1   
    13    6    7 1   
    14    6   33 1   
    15    6   34 1   
    16    7    8 1   
    17    7   35 1   
    18    7   36 1   
    19    8    9 1   
    20    9   10 1   
    21    9   37 1   
    22    9   38 1   
    23   10   11 1   
    24   10   39 1   
    25   10   40 1   
    26   11   12 1   
    27   12   13 ar  
    28   12   15 ar  
    29   13   14 ar  
    30   13   41 1   
    31   14   17 ar  
    32   14   42 1   
    33   15   16 ar  
    34   15   43 1   
    35   16   17 ar  
    36   16   44 1   
    37   17   18 1   
    38   18   19 1   
    39   18   20 1   
    40   18   21 1   
    41   19   45 1   
    42   19   46 1   
    43   19   47 1   
    44   20   48 1   
    45   20   49 1   
    46   20   50 1   
    47   21   22 1   
    48   21   51 1   
    49   21   52 1   
    50   22   23 1   
    51   22   24 1   
    52   22   25 1   
    53   23   53 1   
    54   23   54 1   
    55   23   55 1   
    56   24   56 1   
    57   24   57 1   
    58   24   58 1   
    59   25   59 1   
    60   25   60 1   
    61   25   61 1   
@<TRIPOS>SUBSTRUCTURE
     1 TRT         1 TEMP              0 ****  ****    0 ROOT
