@<TRIPOS>MOLECULE
TRT
   61    61     1     0     0
SMALL
bcc


@<TRIPOS>ATOM
      1 C25         1.7600   -2.9910   -1.5400 c3        1 TRT      0.117700
      2 O24         1.8820   -2.1910   -0.3770 os        1 TRT     -0.424600
      3 C23         1.6810   -0.8040   -0.6430 c3        1 TRT      0.123400
      4 C22         1.9960   -0.0650    0.6530 c3        1 TRT      0.127400
      5 O21         3.2090    0.6510    0.4260 os        1 TRT     -0.429600
      6 C20         3.7110    1.2540    1.6160 c3        1 TRT      0.127400
      7 C19         4.8960    2.1180    1.1980 c3        1 TRT      0.127400
      8 O18         4.4500    3.4720    1.2590 os        1 TRT     -0.427600
      9 C17         5.4130    4.3820    0.7330 c3        1 TRT      0.126400
     10 C16         4.8970    5.7840    1.0430 c3        1 TRT      0.125400
     11 O15         5.7510    6.2910    2.0760 os        1 TRT     -0.333900
     12 C12         5.4120    7.5300    2.5820 ca        1 TRT      0.124100
     13 C13         6.2170    7.9760    3.6470 ca        1 TRT     -0.180500
     14 C14         5.9610    9.2140    4.2190 ca        1 TRT     -0.098500
     15 C11         4.3730    8.3330    2.1060 ca        1 TRT     -0.180500
     16 C10         4.1340    9.5740    2.7000 ca        1 TRT     -0.098500
     17 C9          4.9090   10.0320    3.7680 ca        1 TRT     -0.101300
     18 C6          4.6890   11.3760    4.4410 c3        1 TRT      0.010300
     19 C8          4.5760   11.1610    5.9450 c3        1 TRT     -0.087100
     20 C7          5.9140   12.2380    4.1380 c3        1 TRT     -0.087100
     21 C5          3.4110   12.0240    3.8880 c3        1 TRT     -0.064400
     22 C1          2.7930   13.2850    4.5030 c3        1 TRT     -0.047000
     23 C2          3.8010   14.3690    4.8370 c3        1 TRT     -0.088100
     24 C4          1.8320   13.8510    3.4500 c3        1 TRT     -0.088100
     25 C3          1.9680   12.9590    5.7410 c3        1 TRT     -0.088100
     26 H251        1.9320   -4.0360   -1.1800 h1        1 TRT      0.032700
     27 H252        2.5310   -2.7070   -2.2980 h1        1 TRT      0.032700
     28 H253        0.7380   -2.8920   -1.9820 h1        1 TRT      0.032700
     29 H231        0.6120   -0.6380   -0.9400 h1        1 TRT      0.042700
     30 H232        2.3590   -0.4650   -1.4710 h1        1 TRT      0.042700
     31 H221        2.1240   -0.7870    1.5020 h1        1 TRT      0.044200
     32 H222        1.1800    0.6650    0.8980 h1        1 TRT      0.044200
     33 H201        2.9140    1.8780    2.1020 h1        1 TRT      0.044700
     34 H202        4.0450    0.4500    2.3240 h1        1 TRT      0.044700
     35 H191        5.2260    1.8650    0.1560 h1        1 TRT      0.044700
     36 H192        5.7510    1.9800    1.9100 h1        1 TRT      0.044700
     37 H171        6.4140    4.2100    1.2100 h1        1 TRT      0.046200
     38 H172        5.4920    4.2340   -0.3770 h1        1 TRT      0.046200
     39 H161        3.8350    5.7490    1.4040 h1        1 TRT      0.055200
     40 H162        4.9790    6.4420    0.1400 h1        1 TRT      0.055200
     41 H13         7.0370    7.3400    4.0080 ha        1 TRT      0.141000
     42 H14         6.6100    9.5540    5.0410 ha        1 TRT      0.134000
     43 H11         3.7390    8.0060    1.2700 ha        1 TRT      0.141000
     44 H10         3.3130   10.1790    2.2860 ha        1 TRT      0.134000
     45 H8C1        5.4380   10.5700    6.3350 hc        1 TRT      0.037033
     46 H8C2        4.5740   12.1440    6.4760 hc        1 TRT      0.037033
     47 H8C3        3.6320   10.6150    6.1860 hc        1 TRT      0.037033
     48 H7C1        6.8490   11.6360    4.2400 hc        1 TRT      0.037033
     49 H7C2        5.9840   13.0970    4.8470 hc        1 TRT      0.037033
     50 H7C3        5.8640   12.6360    3.0960 hc        1 TRT      0.037033
     51 H5C1        3.6180   12.2550    2.8060 hc        1 TRT      0.041200
     52 H5C2        2.6010   11.2420    3.9250 hc        1 TRT      0.041200
     53 H2C1        4.3990   14.0970    5.7390 hc        1 TRT      0.034256
     54 H2C2        4.4930   14.5350    3.9760 hc        1 TRT      0.034256
     55 H2C3        3.2700   15.3290    5.0540 hc        1 TRT      0.034256
     56 H4C1        2.3960   14.1880    2.5490 hc        1 TRT      0.034256
     57 H4C2        1.0930   13.0720    3.1430 hc        1 TRT      0.034256
     58 H4C3        1.2750   14.7240    3.8660 hc        1 TRT      0.034256
     59 H3C1        1.2430   12.1380    5.5210 hc        1 TRT      0.034256
     60 H3C2        2.6140   12.6420    6.5920 hc        1 TRT      0.034256
     61 H3C3        1.3930   13.8620    6.0620 hc        1 TRT      0.034256
@<TRIPOS>BOND
     1    1    2 1   
     2    1   26 1   
     3    1   27 1   
     4    1   28 1   
     5    2    3 1   
     6    3    4 1   
     7    3   29 1   
     8    3   30 1   
     9    4    5 1   
    10    4   31 1   
    11    4   32 1   
    12    5    6 1   
    13    6    7 1   
    14    6   33 1   
    15    6   34 1   
    16    7    8 1   
    17    7   35 1   
    18    7   36 1   
    19    8    9 1   
    20    9   10 1   
    21    9   37 1   
    22    9   38 1   
    23   10   11 1   
    24   10   39 1   
    25   10   40 1   
    26   11   12 1   
    27   12   13 ar  
    28   12   15 ar  
    29   13   14 ar  
    30   13   41 1   
    31   14   17 ar  
    32   14   42 1   
    33   15   16 ar  
    34   15   43 1   
    35   16   17 ar  
    36   16   44 1   
    37   17   18 1   
    38   18   19 1   
    39   18   20 1   
    40   18   21 1   
    41   19   45 1   
    42   19   46 1   
    43   19   47 1   
    44   20   48 1   
    45   20   49 1   
    46   20   50 1   
    47   21   22 1   
    48   21   51 1   
    49   21   52 1   
    50   22   23 1   
    51   22   24 1   
    52   22   25 1   
    53   23   53 1   
    54   23   54 1   
    55   23   55 1   
    56   24   56 1   
    57   24   57 1   
    58   24   58 1   
    59   25   59 1   
    60   25   60 1   
    61   25   61 1   
@<TRIPOS>SUBSTRUCTURE
     1 TRT         1 TEMP              0 ****  ****    0 ROOT
