@<TRIPOS>MOLECULE
TRT
   61    59     1     0     0
SMALL
bcc


@<TRIPOS>ATOM
      1 C25         3.2300  -11.1710   -2.9810 c3        1 TRT     -0.072000
      2 O24         2.8440  -10.0320   -2.3200 os        1 TRT     -0.281000
      3 C23         1.9390   -9.2380   -3.0500 c3        1 TRT     -0.027000
      4 C22         1.1000   -8.4040   -2.0940 c3        1 TRT     -0.022000
      5 O21         0.5840   -7.2300   -2.8000 os        1 TRT     -0.286000
      6 C20        -0.0070   -6.2600   -1.9470 c3        1 TRT     -0.022000
      7 C19         0.1010   -4.8650   -2.5930 c3        1 TRT     -0.020000
      8 O18        -0.2270   -3.8910   -1.6480 os        1 TRT     -0.286000
      9 C17         0.3700   -2.5860   -1.9120 c3        1 TRT     -0.022000
     10 C16         0.0450   -1.6440   -0.7670 c3        1 TRT     -0.024000
     11 O15         0.9380   -0.5890   -0.7680 os        1 TRT     -0.217000
     12 C12         0.4120    0.6150   -0.2060 c2        1 TRT      0.078000
     13 C13         0.6000    0.8920    1.1580 c2        1 TRT     -0.201000
     14 C14         0.1550    2.1070    1.6910 c1        1 TRT     -0.096000
     15 C11        -0.2200    1.5540   -1.0300 c1        1 TRT     -0.157000
     16 C10        -0.6640    2.7700   -0.4920 c1        1 TRT     -0.098000
     17 C9         -0.4770    3.0450    0.8690 c1        1 TRT     -0.098000
     18 C6         -1.1170    4.3110    1.4980 c3        1 TRT      0.001000
     19 C8         -1.8550    5.1320    0.3870 c3        1 TRT     -0.205000
     20 C7         -2.1120    3.8870    2.5730 c3        1 TRT     -0.205000
     21 C5          0.0110    5.2030    2.1450 c3        1 TRT     -0.140000
     22 C1         -0.5630    6.5940    2.4910 c3        1 TRT     -0.048000
     23 C2         -1.9660    6.4350    3.1290 c3        1 TRT     -0.205333
     24 C4          0.3880    7.2920    3.4840 c3        1 TRT     -0.205333
     25 C3         -0.6770    7.4460    1.2020 c3        1 TRT     -0.205333
     26 H251        3.4380  -10.9540   -3.8960 h1        1 TRT      0.072667
     27 H252        4.0380  -11.5580   -2.5390 h1        1 TRT      0.072667
     28 H253        2.4840  -11.8400   -2.9570 h1        1 TRT      0.072667
     29 H231        1.3540   -9.8150   -3.5790 h1        1 TRT      0.082500
     30 H232        2.4290   -8.6530   -3.6380 h1        1 TRT      0.082500
     31 H221        0.3200   -8.9620   -1.7480 h1        1 TRT      0.084500
     32 H222        1.6630   -8.1100   -1.3280 h1        1 TRT      0.084500
     33 H201        0.4820   -6.2530   -1.0500 h1        1 TRT      0.080500
     34 H202       -0.9270   -6.4780   -1.8080 h1        1 TRT      0.080500
     35 H191       -0.5320   -4.8010   -3.3730 h1        1 TRT      0.082500
     36 H192        1.0250   -4.7200   -2.9070 h1        1 TRT      0.082500
     37 H171       -0.0020   -2.2130   -2.7710 h1        1 TRT      0.084000
     38 H172        1.3290   -2.6810   -1.9890 h1        1 TRT      0.084000
     39 H161       -0.8530   -1.3060   -0.8720 h1        1 TRT      0.092000
     40 H162        0.1120   -2.1190    0.0640 h1        1 TRT      0.092000
     41 H13         1.0450    0.2310    1.7410 ha        1 TRT      0.138000
     42 H14         0.2900    2.3070    2.6740 ha        1 TRT      0.134000
     43 H11        -0.3490    1.3650   -1.9700 ha        1 TRT      0.147000
     44 H10        -1.1170    3.4430   -1.0800 ha        1 TRT      0.137000
     45 H8C1       -2.3000    5.8950    0.7890 hc        1 TRT      0.076500
     46 H8C2       -1.2110    5.4400   -0.2630 hc        1 TRT      0.076500
     47 H8C3       -2.5290    4.5530   -0.0630 hc        1 TRT      0.076500
     48 H7C1       -2.3770    2.9100    2.4220 hc        1 TRT      0.076500
     49 H7C2       -1.6990    3.9800    3.4530 hc        1 TRT      0.076500
     50 H7C3       -2.9280    4.4670    2.5240 hc        1 TRT      0.076500
     51 H5C1        0.7500    5.3040    1.5100 hc        1 TRT      0.081000
     52 H5C2        0.3330    4.7850    2.9410 hc        1 TRT      0.081000
     53 H2C1       -2.2190    7.2760    3.5810 hc        1 TRT      0.073222
     54 H2C2       -2.6140    6.2330    2.4370 hc        1 TRT      0.073222
     55 H2C3       -1.9490    5.7080    3.7800 hc        1 TRT      0.073222
     56 H4C1        0.4110    6.7800    4.3350 hc        1 TRT      0.073222
     57 H4C2        1.2690    7.3230    3.1080 hc        1 TRT      0.073222
     58 H4C3        0.0690    8.2200    3.6610 hc        1 TRT      0.073222
     59 H3C1       -0.4560    8.3740    1.4070 hc        1 TRT      0.073222
     60 H3C2       -0.0460    7.0970    0.5200 hc        1 TRT      0.073222
     61 H3C3       -1.5630    7.3990    0.8660 hc        1 TRT      0.073222
@<TRIPOS>BOND
     1    1    2 1   
     2    1   26 1   
     3    1   27 1   
     4    1   28 1   
     5    2    3 1   
     6    3    4 1   
     7    3   29 1   
     8    3   30 1   
     9    4    5 1   
    10    4   31 1   
    11    4   32 1   
    12    5    6 1   
    13    6    7 1   
    14    6   33 1   
    15    6   34 1   
    16    7    8 1   
    17    7   35 1   
    18    7   36 1   
    19    8    9 1   
    20    9   10 1   
    21    9   37 1   
    22    9   38 1   
    23   10   11 1   
    24   10   39 1   
    25   10   40 1   
    26   11   12 1   
    27   12   13 1   
    28   12   15 1   
    29   13   14 1   
    30   13   41 1   
    31   14   42 1   
    32   15   43 1   
    33   16   17 1   
    34   16   44 1   
    35   17   18 1   
    36   18   19 1   
    37   18   20 1   
    38   18   21 1   
    39   19   45 1   
    40   19   46 1   
    41   19   47 1   
    42   20   48 1   
    43   20   49 1   
    44   20   50 1   
    45   21   22 1   
    46   21   51 1   
    47   21   52 1   
    48   22   23 1   
    49   22   24 1   
    50   22   25 1   
    51   23   53 1   
    52   23   54 1   
    53   23   55 1   
    54   24   56 1   
    55   24   57 1   
    56   24   58 1   
    57   25   59 1   
    58   25   60 1   
    59   25   61 1   
@<TRIPOS>SUBSTRUCTURE
     1 TRT         1 TEMP              0 ****  ****    0 ROOT
