@<TRIPOS>MOLECULE
TRT
   61    61     1     0     0
SMALL
bcc


@<TRIPOS>ATOM
      1 C25         1.7320   -2.9480   -1.6270 c3        1 TRT      0.117700
      2 O24         1.8390   -2.1530   -0.4590 os        1 TRT     -0.424600
      3 C23         1.6610   -0.7630   -0.7250 c3        1 TRT      0.123400
      4 C22         1.9580   -0.0310    0.5800 c3        1 TRT      0.127400
      5 O21         3.1840    0.6700    0.3800 os        1 TRT     -0.429600
      6 C20         3.6690    1.2630    1.5830 c3        1 TRT      0.127400
      7 C19         4.8710    2.1160    1.1920 c3        1 TRT      0.127400
      8 O18         4.4410    3.4740    1.2500 os        1 TRT     -0.427600
      9 C17         5.4250    4.3750    0.7490 c3        1 TRT      0.126400
     10 C16         4.9180    5.7820    1.0550 c3        1 TRT      0.125400
     11 O15         5.7540    6.2720    2.1100 os        1 TRT     -0.332900
     12 C12         5.4170    7.5120    2.6160 ca        1 TRT      0.124100
     13 C13         6.2000    7.9420    3.7040 ca        1 TRT     -0.180500
     14 C14         5.9450    9.1790    4.2770 ca        1 TRT     -0.098500
     15 C11         4.3990    8.3310    2.1200 ca        1 TRT     -0.180500
     16 C10         4.1610    9.5710    2.7160 ca        1 TRT     -0.098500
     17 C9          4.9140   10.0130    3.8070 ca        1 TRT     -0.101300
     18 C6          4.6930   11.3550    4.4820 c3        1 TRT      0.010300
     19 C8          4.5400   11.1310    5.9820 c3        1 TRT     -0.087100
     20 C7          5.9350   12.2040    4.2160 c3        1 TRT     -0.087100
     21 C5          3.4380   12.0210    3.9030 c3        1 TRT     -0.064400
     22 C1          2.8190   13.2860    4.5110 c3        1 TRT     -0.047000
     23 C2          3.8320   14.3550    4.8770 c3        1 TRT     -0.088100
     24 C4          1.8910   13.8700    3.4380 c3        1 TRT     -0.088100
     25 C3          1.9590   12.9610    5.7250 c3        1 TRT     -0.088100
     26 H251        1.8820   -3.9960   -1.2660 h1        1 TRT      0.032700
     27 H252        2.5220   -2.6710   -2.3680 h1        1 TRT      0.032700
     28 H253        0.7200   -2.8340   -2.0900 h1        1 TRT      0.032700
     29 H231        0.6020   -0.5820   -1.0440 h1        1 TRT      0.042700
     30 H232        2.3610   -0.4300   -1.5370 h1        1 TRT      0.042700
     31 H221        2.0600   -0.7580    1.4290 h1        1 TRT      0.044200
     32 H222        1.1460    0.7070    0.8110 h1        1 TRT      0.044200
     33 H201        2.8700    1.8940    2.0550 h1        1 TRT      0.044700
     34 H202        3.9800    0.4530    2.2940 h1        1 TRT      0.044700
     35 H191        5.2190    1.8630    0.1560 h1        1 TRT      0.044700
     36 H192        5.7110    1.9650    1.9210 h1        1 TRT      0.044700
     37 H171        6.4140    4.1890    1.2460 h1        1 TRT      0.046200
     38 H172        5.5260    4.2310   -0.3590 h1        1 TRT      0.046200
     39 H161        3.8480    5.7570    1.3900 h1        1 TRT      0.055200
     40 H162        5.0300    6.4440    0.1580 h1        1 TRT      0.055200
     41 H13         7.0030    7.2940    4.0810 ha        1 TRT      0.141000
     42 H14         6.5770    9.5060    5.1180 ha        1 TRT      0.134000
     43 H11         3.7830    8.0170    1.2660 ha        1 TRT      0.141000
     44 H10         3.3580   10.1880    2.2860 ha        1 TRT      0.134000
     45 H8C1        5.3850   10.5270    6.3890 hc        1 TRT      0.037033
     46 H8C2        4.5370   12.1100    6.5190 hc        1 TRT      0.037033
     47 H8C3        3.5850   10.5940    6.1950 hc        1 TRT      0.037033
     48 H7C1        6.8610   11.5900    4.3370 hc        1 TRT      0.037033
     49 H7C2        5.9980   13.0570    4.9330 hc        1 TRT      0.037033
     50 H7C3        5.9160   12.6090    3.1760 hc        1 TRT      0.037033
     51 H5C1        3.6740   12.2570    2.8270 hc        1 TRT      0.041200
     52 H5C2        2.6180   11.2490    3.9140 hc        1 TRT      0.041200
     53 H2C1        4.4030   14.0700    5.7920 hc        1 TRT      0.034256
     54 H2C2        4.5460   14.5190    4.0350 hc        1 TRT      0.034256
     55 H2C3        3.3070   15.3200    5.0880 hc        1 TRT      0.034256
     56 H4C1        2.4820   14.2060    2.5530 hc        1 TRT      0.034256
     57 H4C2        1.1520   13.1020    3.1070 hc        1 TRT      0.034256
     58 H4C3        1.3350   14.7470    3.8460 hc        1 TRT      0.034256
     59 H3C1        1.2310   12.1510    5.4810 hc        1 TRT      0.034256
     60 H3C2        2.5800   12.6310    6.5900 hc        1 TRT      0.034256
     61 H3C3        1.3870   13.8690    6.0380 hc        1 TRT      0.034256
@<TRIPOS>BOND
     1    1    2 1   
     2    1   26 1   
     3    1   27 1   
     4    1   28 1   
     5    2    3 1   
     6    3    4 1   
     7    3   29 1   
     8    3   30 1   
     9    4    5 1   
    10    4   31 1   
    11    4   32 1   
    12    5    6 1   
    13    6    7 1   
    14    6   33 1   
    15    6   34 1   
    16    7    8 1   
    17    7   35 1   
    18    7   36 1   
    19    8    9 1   
    20    9   10 1   
    21    9   37 1   
    22    9   38 1   
    23   10   11 1   
    24   10   39 1   
    25   10   40 1   
    26   11   12 1   
    27   12   13 ar  
    28   12   15 ar  
    29   13   14 ar  
    30   13   41 1   
    31   14   17 ar  
    32   14   42 1   
    33   15   16 ar  
    34   15   43 1   
    35   16   17 ar  
    36   16   44 1   
    37   17   18 1   
    38   18   19 1   
    39   18   20 1   
    40   18   21 1   
    41   19   45 1   
    42   19   46 1   
    43   19   47 1   
    44   20   48 1   
    45   20   49 1   
    46   20   50 1   
    47   21   22 1   
    48   21   51 1   
    49   21   52 1   
    50   22   23 1   
    51   22   24 1   
    52   22   25 1   
    53   23   53 1   
    54   23   54 1   
    55   23   55 1   
    56   24   56 1   
    57   24   57 1   
    58   24   58 1   
    59   25   59 1   
    60   25   60 1   
    61   25   61 1   
@<TRIPOS>SUBSTRUCTURE
     1 TRT         1 TEMP              0 ****  ****    0 ROOT
