@<TRIPOS>MOLECULE
TRU
   29    30     1     0     0
SMALL
bcc


@<TRIPOS>ATOM
      1 S1         -0.2900   -0.2690    0.2650 sy        1 TRU      1.530200
      2 O17        -0.5590   -1.4950    0.8750 o         1 TRU     -0.620800
      3 O16        -0.9900    0.0640   -0.8940 o         1 TRU     -0.620800
      4 N10         1.3080   -0.0550    0.0750 n3        1 TRU     -0.912100
      5 C9          2.2130    0.0470    1.1910 c3        1 TRU      0.511700
      6 C18         2.5590   -1.3750    1.7740 c3        1 TRU      0.078100
      7 CL20        3.3570   -2.2980    0.5310 cl        1 TRU     -0.099900
      8 CL19        3.5650   -1.2150    3.1960 cl        1 TRU     -0.099900
      9 N8          1.7100    0.9320    2.2580 nh        1 TRU     -0.733600
     10 C3          0.4310    1.3550    2.3690 ca        1 TRU      0.388600
     11 C4          0.0540    2.2530    3.4290 ca        1 TRU     -0.225000
     12 C5         -1.2180    2.7580    3.4880 ca        1 TRU      0.200400
     13 CL11       -1.6290    3.7610    4.7950 cl        1 TRU     -0.040400
     14 C6         -2.2180    2.4560    2.5130 ca        1 TRU     -0.640500
     15 S12        -3.6500    3.1420    2.3930 sy        1 TRU      1.503200
     16 N15        -4.4420    2.4060    3.9810 n4        1 TRU     -0.785500
     17 O14        -4.4660    2.5730    1.4340 o         1 TRU     -0.566800
     18 O13        -3.7480    4.4820    2.6840 o         1 TRU     -0.566800
     19 C7         -1.8400    1.5070    1.5310 ca        1 TRU      0.175000
     20 C2         -0.5870    0.9400    1.4480 ca        1 TRU     -0.451500
     21 H10         1.7450    0.0670   -0.8110 hn        1 TRU      0.490800
     22 H9          3.1920    0.5150    0.8370 h2        1 TRU      0.118700
     23 H18         1.6390   -1.9410    2.0740 h2        1 TRU      0.137700
     24 HN8         2.3850    1.2020    2.9460 hn        1 TRU      0.485800
     25 H4          0.8000    2.5320    4.1950 ha        1 TRU      0.184000
     26 H151       -3.8040    1.8010    4.4880 hn        1 TRU      0.455467
     27 H152       -5.2680    1.8610    3.7410 hn        1 TRU      0.455467
     28 H7         -2.5990    1.2120    0.7670 ha        1 TRU      0.193000
     29 H153       -4.7320    3.1530    4.6100 hn        1 TRU      0.455467
@<TRIPOS>BOND
     1    1    2 2   
     2    1    3 2   
     3    1    4 1   
     4    1   20 1   
     5    4    5 1   
     6    4   21 1   
     7    5    6 1   
     8    5    9 1   
     9    5   22 1   
    10    6    7 1   
    11    6    8 1   
    12    6   23 1   
    13    9   10 1   
    14    9   24 1   
    15   10   11 ar  
    16   10   20 ar  
    17   11   12 ar  
    18   11   25 1   
    19   12   13 1   
    20   12   14 ar  
    21   14   15 1   
    22   14   19 ar  
    23   15   16 1   
    24   15   17 2   
    25   15   18 2   
    26   16   26 1   
    27   16   27 1   
    28   16   29 1   
    29   19   20 ar  
    30   19   28 1   
@<TRIPOS>SUBSTRUCTURE
     1 TRU         1 TEMP              0 ****  ****    0 ROOT
