@<TRIPOS>MOLECULE
TRU
   28    29     1     0     0
SMALL
bcc


@<TRIPOS>ATOM
      1 S1         -1.2830    1.7360   -0.0290 sy        1 TRU      1.539200
      2 O17        -1.7300    1.6830    1.3000 o         1 TRU     -0.642300
      3 O16        -0.9110    2.9950   -0.5160 o         1 TRU     -0.642300
      4 N10        -2.4170    1.0850   -1.0110 n3        1 TRU     -0.909100
      5 C9         -2.7260   -0.3220   -1.0070 c3        1 TRU      0.534700
      6 C18        -3.7210   -0.6630    0.1680 c3        1 TRU      0.089100
      7 CL20       -5.2120    0.2130   -0.0850 cl        1 TRU     -0.133400
      8 CL19       -4.0180   -2.3900    0.2360 cl        1 TRU     -0.133400
      9 N8         -1.5400   -1.1730   -0.9430 nh        1 TRU     -0.793600
     10 C3         -0.2850   -0.7330   -0.6040 ca        1 TRU      0.356600
     11 C4          0.8100   -1.6430   -0.6470 ca        1 TRU     -0.249000
     12 C5          2.0880   -1.1980   -0.3620 ca        1 TRU      0.214400
     13 CL11        3.3510   -2.3350   -0.4140 cl        1 TRU     -0.067400
     14 C6          2.3620    0.1460   -0.0370 ca        1 TRU     -0.434500
     15 S12         3.9180    0.7850    0.2450 sy        1 TRU      1.531200
     16 N15         4.4510   -0.0660    1.4860 n3        1 TRU     -1.026700
     17 O14         3.7420    2.1300    0.6360 o         1 TRU     -0.651300
     18 O13         4.7240    0.5480   -0.8820 o         1 TRU     -0.651300
     19 C7          1.2720    1.0140    0.0220 ca        1 TRU      0.136000
     20 C2         -0.0440    0.6170   -0.2260 ca        1 TRU     -0.485500
     21 H10        -2.9030    1.6040   -1.7020 hn        1 TRU      0.473800
     22 H9         -3.2610   -0.5910   -1.9770 h2        1 TRU      0.091700
     23 H18        -3.3150   -0.3520    1.1650 h2        1 TRU      0.135700
     24 HN8        -1.6850   -2.1410   -1.1230 hn        1 TRU      0.467800
     25 H4          0.6380   -2.6990   -0.9120 ha        1 TRU      0.159000
     26 H151        4.2950    0.1870    2.4300 hn        1 TRU      0.451800
     27 H152        4.9910   -0.8900    1.3950 hn        1 TRU      0.451800
     28 H7          1.4590    2.0830    0.2750 ha        1 TRU      0.189000
@<TRIPOS>BOND
     1    1    2 2   
     2    1    3 2   
     3    1    4 1   
     4    1   20 1   
     5    4    5 1   
     6    4   21 1   
     7    5    6 1   
     8    5    9 1   
     9    5   22 1   
    10    6    7 1   
    11    6    8 1   
    12    6   23 1   
    13    9   10 1   
    14    9   24 1   
    15   10   11 ar  
    16   10   20 ar  
    17   11   12 ar  
    18   11   25 1   
    19   12   13 1   
    20   12   14 ar  
    21   14   15 1   
    22   14   19 ar  
    23   15   16 1   
    24   15   17 2   
    25   15   18 2   
    26   16   26 1   
    27   16   27 1   
    28   19   20 ar  
    29   19   28 1   
@<TRIPOS>SUBSTRUCTURE
     1 TRU         1 TEMP              0 ****  ****    0 ROOT
