@<TRIPOS>MOLECULE
TRU
   29    30     1     0     0
SMALL
bcc


@<TRIPOS>ATOM
      1 S1         -0.2940   -0.2610    0.2590 sy        1 TRU      1.530200
      2 O17        -0.5620   -1.4900    0.8650 o         1 TRU     -0.620800
      3 O16        -0.9970    0.0760   -0.8970 o         1 TRU     -0.620800
      4 N10         1.3030   -0.0460    0.0660 n7        1 TRU     -0.912100
      5 C9          2.2110    0.0510    1.1800 c3        1 TRU      0.511700
      6 C18         2.5580   -1.3730    1.7570 c3        1 TRU      0.078100
      7 Cl20        3.3540   -2.2910    0.5080 cl        1 TRU     -0.099900
      8 Cl19        3.5680   -1.2190    3.1770 cl        1 TRU     -0.099900
      9 N8          1.7100    0.9320    2.2520 nu        1 TRU     -0.733600
     10 C3          0.4310    1.3540    2.3680 ca        1 TRU      0.388600
     11 C4          0.0570    2.2480    3.4320 ca        1 TRU     -0.225000
     12 C5         -1.2150    2.7520    3.4960 ca        1 TRU      0.200400
     13 Cl11       -1.6230    3.7500    4.8090 cl        1 TRU     -0.040400
     14 C6         -2.2180    2.4540    2.5220 ca        1 TRU     -0.640500
     15 S12        -3.6500    3.1400    2.4080 sy        1 TRU      1.503200
     16 N15        -4.4380    2.3980    3.9950 nz        1 TRU     -0.785500
     17 O14        -4.4680    2.5750    1.4500 o         1 TRU     -0.566800
     18 O13        -3.7480    4.4790    2.7050 o         1 TRU     -0.566800
     19 C7         -1.8410    1.5090    1.5360 ca        1 TRU      0.175000
     20 C2         -0.5890    0.9430    1.4470 ca        1 TRU     -0.451500
     21 H10         1.7380    0.0790   -0.8200 hn        1 TRU      0.490800
     22 H9          3.1890    0.5210    0.8260 h2        1 TRU      0.118700
     23 H18         1.6390   -1.9400    2.0570 h2        1 TRU      0.137700
     24 HN8         2.3870    1.1990    2.9390 hn        1 TRU      0.485800
     25 H4          0.8040    2.5230    4.1970 ha        1 TRU      0.184000
     26 H151       -4.7270    3.1420    4.6280 hn        1 TRU      0.455467
     27 H152       -5.2640    1.8530    3.7550 hn        1 TRU      0.455467
     28 H7         -2.6020    1.2170    0.7730 ha        1 TRU      0.193000
     29 H153       -3.7980    1.7910    4.4980 hn        1 TRU      0.455467
@<TRIPOS>BOND
     1    1    2 2   
     2    1    3 2   
     3    1    4 1   
     4    1   20 1   
     5    4    5 1   
     6    4   21 1   
     7    5    6 1   
     8    5    9 1   
     9    5   22 1   
    10    6    7 1   
    11    6    8 1   
    12    6   23 1   
    13    9   10 1   
    14    9   24 1   
    15   10   11 ar  
    16   10   20 ar  
    17   11   12 ar  
    18   11   25 1   
    19   12   13 1   
    20   12   14 ar  
    21   14   15 1   
    22   14   19 ar  
    23   15   16 1   
    24   15   17 2   
    25   15   18 2   
    26   16   26 1   
    27   16   27 1   
    28   16   29 1   
    29   19   20 ar  
    30   19   28 1   
@<TRIPOS>SUBSTRUCTURE
     1 TRU         1 TEMP              0 ****  ****    0 ROOT
