@<TRIPOS>MOLECULE
TRU
   29    30     1     0     0
SMALL
bcc


@<TRIPOS>ATOM
      1 S1         -0.2940   -0.2680    0.2650 sy        1 TRU      1.530200
      2 O17        -0.5680   -1.4940    0.8730 o         1 TRU     -0.620800
      3 O16        -0.9910    0.0680   -0.8950 o         1 TRU     -0.620800
      4 N10         1.3060   -0.0610    0.0760 n3        1 TRU     -0.912100
      5 C9          2.2100    0.0360    1.1930 c3        1 TRU      0.511700
      6 C18         2.5490   -1.3870    1.7750 c3        1 TRU      0.078100
      7 CL20        3.3450   -2.3120    0.5320 cl        1 TRU     -0.099900
      8 CL19        3.5550   -1.2320    3.1980 cl        1 TRU     -0.099900
      9 N8          1.7090    0.9230    2.2600 nh        1 TRU     -0.733600
     10 C3          0.4320    1.3510    2.3700 ca        1 TRU      0.388600
     11 C4          0.0570    2.2500    3.4300 ca        1 TRU     -0.225000
     12 C5         -1.2120    2.7600    3.4890 ca        1 TRU      0.200400
     13 CL11       -1.6210    3.7630    4.7960 cl        1 TRU     -0.040400
     14 C6         -2.2130    2.4620    2.5120 ca        1 TRU     -0.640500
     15 S12        -3.6430    3.1530    2.3910 sy        1 TRU      1.503200
     16 N15        -4.4380    2.4200    3.9780 n4        1 TRU     -0.785500
     17 O14        -4.4600    2.5890    1.4320 o         1 TRU     -0.566800
     18 O13        -3.7360    4.4940    2.6830 o         1 TRU     -0.566800
     19 C7         -1.8370    1.5120    1.5300 ca        1 TRU      0.175000
     20 C2         -0.5870    0.9410    1.4480 ca        1 TRU     -0.451500
     21 H10         1.7440    0.0600   -0.8090 hn        1 TRU      0.490800
     22 H9          3.1910    0.5010    0.8410 h2        1 TRU      0.118700
     23 H18         1.6270   -1.9490    2.0740 h2        1 TRU      0.137700
     24 HN8         2.3840    1.1900    2.9490 hn        1 TRU      0.485800
     25 H4          0.8030    2.5250    4.1970 ha        1 TRU      0.184000
     26 H151       -5.2660    1.8780    3.7380 hn        1 TRU      0.455467
     27 H152       -4.7260    3.1670    4.6080 hn        1 TRU      0.455467
     28 H7         -2.5970    1.2210    0.7650 ha        1 TRU      0.193000
     29 H153       -3.8030    1.8120    4.4850 hn        1 TRU      0.455467
@<TRIPOS>BOND
     1    1    2 2   
     2    1    3 2   
     3    1    4 1   
     4    1   20 1   
     5    4    5 1   
     6    4   21 1   
     7    5    6 1   
     8    5    9 1   
     9    5   22 1   
    10    6    7 1   
    11    6    8 1   
    12    6   23 1   
    13    9   10 1   
    14    9   24 1   
    15   10   11 ar  
    16   10   20 ar  
    17   11   12 ar  
    18   11   25 1   
    19   12   13 1   
    20   12   14 ar  
    21   14   15 1   
    22   14   19 ar  
    23   15   16 1   
    24   15   17 2   
    25   15   18 2   
    26   16   26 1   
    27   16   27 1   
    28   16   29 1   
    29   19   20 ar  
    30   19   28 1   
@<TRIPOS>SUBSTRUCTURE
     1 TRU         1 TEMP              0 ****  ****    0 ROOT
