@<TRIPOS>MOLECULE
TRU
   28    24     1     0     0
SMALL
bcc


@<TRIPOS>ATOM
      1 S1          0.4490    1.2330   -1.7750 ss        1 TRU      2.877000
      2 O17        -0.0080    2.6140   -1.5920 o         1 TRU     -0.918000
      3 O16        -0.0440    0.7330   -3.0230 o         1 TRU     -0.918000
      4 N10         1.9470    1.2150   -1.8020 n2        1 TRU     -0.885000
      5 C9          2.6300    1.1560   -0.5770 c3        1 TRU      0.151000
      6 C18         4.1320    1.0280   -0.8830 c3        1 TRU     -0.084000
      7 CL20        4.4290   -0.4460   -1.7600 cl        1 TRU     -0.043000
      8 CL19        4.6430    2.3990   -1.8550 cl        1 TRU     -0.043000
      9 N8          2.2640    0.0730    0.3570 n3        1 TRU     -0.333000
     10 C3          0.7430   -0.3400    0.4600 c2        1 TRU      0.254000
     11 C4          0.2830   -1.2210    1.4520 c2        1 TRU     -0.239000
     12 C5         -1.0870   -1.5300    1.5370 c1        1 TRU      0.131000
     13 CL11       -1.6520   -2.6990    2.7320 cl        1 TRU      0.011000
     14 C6         -2.0060   -0.9530    0.6210 c2        1 TRU     -0.871000
     15 S12        -3.7290   -1.3990    0.6940 s4        1 TRU      2.085800
     16 N15        -4.4680   -0.6200    1.9560 n2        1 TRU     -0.953000
     17 O14        -3.8990   -2.8560    0.7920 o         1 TRU     -0.537900
     18 O13        -4.4020   -1.1190   -0.5670 o         1 TRU     -0.537900
     19 C7         -1.5440   -0.0610   -0.3850 c1        1 TRU      0.129000
     20 C2         -0.1940    0.2480   -0.4730 c1        1 TRU     -0.912000
     21 H10         2.4020    1.4680   -2.5780 hn        1 TRU      0.266000
     22 H9          2.4940    1.9730   -0.1350 h2        1 TRU      0.146000
     23 H18         4.6450    1.0160   -0.0280 h2        1 TRU      0.151000
     24 HN8         2.5900    0.2800    1.2200 hn        1 TRU      0.235000
     25 H4          0.9260   -1.6950    2.0190 ha        1 TRU      0.159000
     26 H151       -4.6590    0.2640    1.8930 hn        1 TRU      0.247000
     27 H152       -4.7160   -1.0910    2.7060 hn        1 TRU      0.247000
     28 H7         -2.1720    0.3320   -1.0080 ha        1 TRU      0.187000
@<TRIPOS>BOND
     1    1    2 1   
     2    1    3 1   
     3    4    5 1   
     4    4   21 1   
     5    5    6 1   
     6    5    9 1   
     7    5   22 1   
     8    6    7 1   
     9    6    8 1   
    10    6   23 1   
    11    9   10 1   
    12    9   24 1   
    13   10   11 1   
    14   10   20 1   
    15   11   12 1   
    16   11   25 1   
    17   12   14 1   
    18   14   15 1   
    19   14   19 1   
    20   15   17 1   
    21   15   18 1   
    22   16   26 1   
    23   16   27 1   
    24   19   28 1   
@<TRIPOS>SUBSTRUCTURE
     1 TRU         1 TEMP              0 ****  ****    0 ROOT
