@<TRIPOS>MOLECULE
TRW
   41    43     1     0     0
SMALL
bcc


@<TRIPOS>ATOM
      1 N          -0.1450   -2.1240    4.5510 n3        1 TRW     -0.895800
      2 CA          0.9170   -1.1780    4.2880 c3        1 TRW      0.053500
      3 CB          0.4840    0.2990    4.1340 c3        1 TRW     -0.040200
      4 CG         -0.4820    0.4790    3.0470 cc        1 TRW     -0.140400
      5 CD2        -0.1740    0.8110    1.6700 ca        1 TRW     -0.094800
      6 CE2        -1.4400    0.8950    0.9820 ca        1 TRW     -0.038200
      7 CE3         1.0020    1.0440    0.9570 ca        1 TRW     -0.078000
      8 CD1        -1.8730    0.3750    3.1390 cd        1 TRW     -0.109100
      9 NE1        -2.4600    0.6470    1.9000 na        1 TRW     -0.177400
     10 CZ2        -1.4970    1.1940   -0.3900 ca        1 TRW      0.023100
     11 CZ3         0.9420    1.3390   -0.3950 ca        1 TRW     -0.139000
     12 CH2        -0.2930    1.4150   -1.0920 ca        1 TRW      0.096600
     13 N6         -0.3720    1.8390   -2.4640 nh        1 TRW     -0.451400
     14 O7         -2.7250    1.1820   -1.0300 oh        1 TRW     -0.520100
     15 C           2.0020   -1.1980    5.3560 c         1 TRW      0.569900
     16 O           1.7840   -1.3950    6.5490 o         1 TRW     -0.521100
     17 N1          0.7100    1.5440   -3.2610 nh        1 TRW     -0.469400
     18 C1          0.6430    0.4360   -4.1680 ca        1 TRW      0.074600
     19 C2          1.3380    0.5070   -5.3960 ca        1 TRW     -0.163000
     20 C3          1.3810   -0.5970   -6.2400 ca        1 TRW     -0.104000
     21 C4          0.7290   -1.7800   -5.8950 ca        1 TRW     -0.152000
     22 C5          0.0350   -1.8560   -4.6890 ca        1 TRW     -0.104000
     23 C6         -0.0140   -0.7630   -3.8270 ca        1 TRW     -0.163000
     24 H          -0.4250   -2.0840    5.5130 hn        1 TRW      0.357800
     25 H2         -0.9340   -1.9230    3.9660 hn        1 TRW      0.357800
     26 HA          1.3880   -1.5000    3.3090 h1        1 TRW      0.080700
     27 HB2         0.0450    0.6560    5.1040 hc        1 TRW      0.056200
     28 HB3         1.4010    0.9140    3.9260 hc        1 TRW      0.056200
     29 HE3         1.9730    0.9920    1.4700 ha        1 TRW      0.136000
     30 HD1        -2.4930    0.1500    4.0080 h4        1 TRW      0.167000
     31 HE1        -3.4110    0.5320    1.6670 hn        1 TRW      0.307700
     32 HZ3         1.8820    1.5150   -0.9410 ha        1 TRW      0.155000
     33 HN6        -1.2380    1.4700   -2.8540 hn        1 TRW      0.373800
     34 HO7        -2.9610    2.1120   -1.1780 ho        1 TRW      0.415000
     35 HC          3.0250   -0.9930    4.9690 h4        1 TRW      0.000200
     36 HN1         0.9370    2.3950   -3.7630 hn        1 TRW      0.401800
     37 HC2         1.8590    1.4320   -5.6890 ha        1 TRW      0.138500
     38 HC3         1.9320   -0.5310   -7.1900 ha        1 TRW      0.134000
     39 HC4         0.7640   -2.6480   -6.5690 ha        1 TRW      0.134000
     40 HC5        -0.4800   -2.7870   -4.4090 ha        1 TRW      0.134000
     41 HC6        -0.5560   -0.8590   -2.8730 ha        1 TRW      0.138500
@<TRIPOS>BOND
     1    1    2 1   
     2    1   24 1   
     3    1   25 1   
     4    2    3 1   
     5    2   15 1   
     6    2   26 1   
     7    3    4 1   
     8    3   27 1   
     9    3   28 1   
    10    4    5 1   
    11    4    8 2   
    12    5    6 ar  
    13    5    7 ar  
    14    6    9 1   
    15    6   10 ar  
    16    7   11 ar  
    17    7   29 1   
    18    8    9 1   
    19    8   30 1   
    20    9   31 1   
    21   10   12 ar  
    22   10   14 1   
    23   11   12 ar  
    24   11   32 1   
    25   12   13 1   
    26   13   17 1   
    27   13   33 1   
    28   14   34 1   
    29   15   16 2   
    30   15   35 1   
    31   17   18 1   
    32   17   36 1   
    33   18   19 ar  
    34   18   23 ar  
    35   19   20 ar  
    36   19   37 1   
    37   20   21 ar  
    38   20   38 1   
    39   21   22 ar  
    40   21   39 1   
    41   22   23 ar  
    42   22   40 1   
    43   23   41 1   
@<TRIPOS>SUBSTRUCTURE
     1 TRW         1 TEMP              0 ****  ****    0 ROOT
