@<TRIPOS>MOLECULE
TRX
   27    28     1     0     0
SMALL
bcc


@<TRIPOS>ATOM
      1 N           1.8490    1.5280    0.8570 n3        1 TRX     -0.886800
      2 CA          2.3330    0.2120    0.4580 c3        1 TRX      0.023500
      3 C           3.8650    0.1640    0.1310 c         1 TRX      0.885600
      4 O           4.5400    1.2190    0.2980 o         1 TRX     -0.842300
      5 CB          1.5690   -0.3710   -0.7380 c3        1 TRX     -0.014200
      6 CG          0.2500   -0.9170   -0.3820 cc        1 TRX     -0.057400
      7 CD1        -0.0410   -2.2500   -0.1190 cd        1 TRX     -0.156100
      8 CD2        -1.0020   -0.1850   -0.2640 ca        1 TRX     -0.105800
      9 NE1        -1.4280   -2.4280    0.0910 na        1 TRX     -0.195400
     10 CE2        -2.0190   -1.1580    0.0740 ca        1 TRX     -0.029200
     11 CE3        -1.3470    1.1570   -0.3930 ca        1 TRX     -0.020000
     12 CZ2        -3.3530   -0.7800    0.2710 ca        1 TRX     -0.193000
     13 CZ3        -2.6690    1.5390   -0.2010 ca        1 TRX     -0.251000
     14 CH2        -3.6490    0.5780    0.1240 ca        1 TRX      0.122100
     15 OH2        -4.9710    0.9350    0.3190 oh        1 TRX     -0.517100
     16 OXT         4.3430   -0.9370   -0.2600 o         1 TRX     -0.842300
     17 H           2.4780    1.8710    1.5650 hn        1 TRX      0.329300
     18 H2          1.9490    2.1510    0.0740 hn        1 TRX      0.329300
     19 HA          2.1790   -0.4720    1.3420 h1        1 TRX      0.045700
     20 HB2         1.4450    0.4090   -1.5370 hc        1 TRX      0.058700
     21 HB3         2.2120   -1.1940   -1.1610 hc        1 TRX      0.058700
     22 HD1         0.6320   -3.1080   -0.1020 h4        1 TRX      0.168000
     23 HE1        -1.7920   -3.1710    0.6290 hn        1 TRX      0.271700
     24 HE3        -0.5700    1.9010   -0.6260 ha        1 TRX      0.153000
     25 HZ2        -4.1380   -1.5000    0.5270 ha        1 TRX      0.137000
     26 HZ3        -2.9580    2.5940   -0.2930 ha        1 TRX      0.119000
     27 HH2        -5.0240    1.8970    0.2390 ho        1 TRX      0.409000
@<TRIPOS>BOND
     1    1    2 1   
     2    1   17 1   
     3    1   18 1   
     4    2    3 1   
     5    2    5 1   
     6    2   19 1   
     7    3    4 1   
     8    3   16 1   
     9    5    6 1   
    10    5   20 1   
    11    5   21 1   
    12    6    7 2   
    13    6    8 1   
    14    7    9 1   
    15    7   22 1   
    16    8   10 ar  
    17    8   11 ar  
    18    9   10 1   
    19    9   23 1   
    20   10   12 ar  
    21   11   13 ar  
    22   11   24 1   
    23   12   14 ar  
    24   12   25 1   
    25   13   14 ar  
    26   13   26 1   
    27   14   15 1   
    28   15   27 1   
@<TRIPOS>SUBSTRUCTURE
     1 TRX         1 TEMP              0 ****  ****    0 ROOT
