@<TRIPOS>MOLECULE
TRY
   24    25     1     0     0
SMALL
bcc


@<TRIPOS>ATOM
      1 CD2         1.5190   -0.2330   -0.0780 ca        1 TRY     -0.089800
      2 CE3         1.9130   -1.5500    0.1260 ca        1 TRY     -0.070000
      3 CZ3         3.2680   -1.8320    0.2760 ca        1 TRY     -0.180000
      4 CH2         4.2320   -0.8160    0.2180 ca        1 TRY     -0.125000
      5 CZ2         3.8770    0.5110    0.0030 ca        1 TRY     -0.164000
      6 CE2         2.5180    0.8100   -0.1510 ca        1 TRY     -0.057200
      7 NE1         1.8780    2.0220   -0.4570 na        1 TRY     -0.187400
      8 CD1         0.4810    1.7710   -0.4390 cc        1 TRY     -0.201100
      9 CG          0.2180    0.4140   -0.2540 cd        1 TRY      0.009800
     10 CB         -1.0240   -0.2820   -0.2360 cf        1 TRY     -0.266000
     11 CA2        -2.2550    0.2310    0.0470 ce        1 TRY      0.053800
     12 N2         -2.5130    1.5710    0.3110 nh        1 TRY     -0.813600
     13 C2         -3.4730   -0.7280    0.0870 c         1 TRY      0.907800
     14 O2         -3.3970   -1.8080   -0.5520 o         1 TRY     -0.820300
     15 OXT        -4.4590   -0.3620    0.7890 o         1 TRY     -0.820300
     16 HE3         1.1570   -2.3480    0.1680 ha        1 TRY      0.146000
     17 HZ3         3.5920   -2.8690    0.4430 ha        1 TRY      0.116000
     18 HH2         5.2930   -1.0750    0.3450 ha        1 TRY      0.110000
     19 HZ2         4.6400    1.2980   -0.0480 ha        1 TRY      0.116000
     20 HE1         2.2410    2.8810   -0.1300 hn        1 TRY      0.257700
     21 HD1        -0.2050    2.5880   -0.6630 h4        1 TRY      0.167000
     22 HB2        -0.9820   -1.3600   -0.4740 ha        1 TRY      0.154000
     23 H21N       -1.7760    2.0500    0.7830 hn        1 TRY      0.377800
     24 H22N       -3.4060    1.7000    0.7480 hn        1 TRY      0.377800
@<TRIPOS>BOND
     1    1    2 ar  
     2    1    6 ar  
     3    1    9 1   
     4    2    3 ar  
     5    2   16 1   
     6    3    4 ar  
     7    3   17 1   
     8    4    5 ar  
     9    4   18 1   
    10    5    6 ar  
    11    5   19 1   
    12    6    7 1   
    13    7    8 1   
    14    7   20 1   
    15    8    9 2   
    16    8   21 1   
    17    9   10 1   
    18   10   11 2   
    19   10   22 1   
    20   11   12 1   
    21   11   13 1   
    22   12   23 1   
    23   12   24 1   
    24   13   14 1   
    25   13   15 1   
@<TRIPOS>SUBSTRUCTURE
     1 TRY         1 TEMP              0 ****  ****    0 ROOT
