@<TRIPOS>MOLECULE
TRY
   24    16     1     0     0
SMALL
bcc


@<TRIPOS>ATOM
      1 CD2         0.4300    0.3750    0.7670 c1        1 TRY     -0.046500
      2 CE3         1.8350    0.3980    0.7340 c1        1 TRY     -0.136250
      3 CZ3         2.5570    0.4040    1.9180 c1        1 TRY     -0.136250
      4 CH2         1.8920    0.3860    3.1370 c1        1 TRY     -0.136250
      5 CZ2         0.5050    0.3630    3.1710 c1        1 TRY     -0.136250
      6 CE2        -0.2270    0.3580    1.9710 c1        1 TRY     -0.046500
      7 NE1        -1.5860    0.3180    1.7160 n1        1 TRY     -0.213000
      8 CD1        -1.7630    0.3110    0.3600 c1        1 TRY     -0.154000
      9 CG         -0.5170    0.3460   -0.2330 c1        1 TRY      0.001000
     10 CB         -0.6960    0.5620   -1.7200 c1        1 TRY     -0.297000
     11 CA2        -0.7040   -0.4930   -2.5580 c1        1 TRY      0.009000
     12 N2         -0.5440   -1.8070   -2.0460 n2        1 TRY     -0.333000
     13 C2         -0.8830   -0.2770   -4.0450 c2        1 TRY      0.361000
     14 O2          0.1190   -0.0540   -4.7740 o         1 TRY     -0.557000
     15 OXT        -2.0320   -0.3380   -4.5560 o         1 TRY     -0.557000
     16 HE3         2.3020    0.4250   -0.1230 ha        1 TRY      0.122750
     17 HZ3         3.5320    0.4200    1.8950 ha        1 TRY      0.122750
     18 HH2         2.4010    0.3840    3.9700 ha        1 TRY      0.122750
     19 HZ2         0.0380    0.3500    4.0280 ha        1 TRY      0.122750
     20 HE1        -2.2480    0.2980    2.3430 DU        1 TRY      0.187000
     21 HD1        -2.6200    0.2690   -0.1060 DU        1 TRY      0.187000
     22 HB2        -0.8060    1.4660   -2.0720 ha        1 TRY      0.153000
     23 H21N        0.2900   -2.1750   -1.9850 hn        1 TRY      0.180500
     24 H22N       -1.2760   -2.2890   -1.7880 hn        1 TRY      0.180500
@<TRIPOS>BOND
     1    1    6 1   
     2    2    3 1   
     3    2   16 1   
     4    3   17 1   
     5    4    5 1   
     6    4   18 1   
     7    5   19 1   
     8    7    8 1   
     9    8    9 1   
    10   10   11 1   
    11   10   22 1   
    12   11   13 1   
    13   12   23 1   
    14   12   24 1   
    15   13   14 1   
    16   13   15 1   
@<TRIPOS>SUBSTRUCTURE
     1 TRY         1 TEMP              0 ****  ****    0 ROOT
