@<TRIPOS>MOLECULE
TRZ
   50    51     1     0     0
SMALL
bcc


@<TRIPOS>ATOM
      1 C1         -0.0450   -0.2740   -0.0470 ca        1 TRZ     -0.033300
      2 C2          1.3480   -0.0900   -0.0640 ca        1 TRZ     -0.138000
      3 C3          2.0500   -0.0600    1.1290 ca        1 TRZ     -0.071300
      4 C4          1.3810   -0.2280    2.3600 ca        1 TRZ     -0.099300
      5 C5          0.0020   -0.3680    2.3850 ca        1 TRZ     -0.080000
      6 C          -0.7170   -0.4000    1.1790 ca        1 TRZ     -0.161600
      7 C9          3.5250    0.1660    1.3270 c3        1 TRZ     -0.003700
      8 C10         3.6920    0.2590    2.8740 c3        1 TRZ     -0.057700
      9 C11         2.3320   -0.1440    3.5140 c3        1 TRZ     -0.010400
     10 C13         2.4720   -1.4400    4.3160 c3        1 TRZ     -0.055700
     11 C12         3.3110   -1.1970    5.5580 c3        1 TRZ     -0.094100
     12 C14         1.1340   -2.0170    4.7250 c3        1 TRZ     -0.094100
     13 C15         4.1200    1.6180    3.3720 c3        1 TRZ     -0.087100
     14 C16         3.9800    1.4140    0.5940 c3        1 TRZ     -0.079600
     15 C17         4.3090   -1.0290    0.7980 c3        1 TRZ     -0.079600
     16 C7         -0.7840   -0.3290   -1.3310 c3        1 TRZ     -0.057800
     17 C8         -2.8740    0.1510    2.3680 c3        1 TRZ     -0.162400
     18 C18        -4.3400    0.4280    2.1490 c3        1 TRZ     -0.193400
     19 C19        -5.0150    0.8460    3.4700 c         1 TRZ      0.909600
     20 O2         -4.5310    0.4120    4.5570 o         1 TRZ     -0.849800
     21 O3         -6.0280    1.5970    3.3980 o         1 TRZ     -0.849800
     22 C6         -2.2000   -0.5590    1.2360 c         1 TRZ      0.575700
     23 O          -2.7940   -1.2500    0.3980 o         1 TRZ     -0.556100
     24 H2          1.8730    0.0320   -1.0230 ha        1 TRZ      0.125000
     25 H5         -0.5370   -0.4460    3.3440 ha        1 TRZ      0.156000
     26 H10         4.4810   -0.4820    3.1800 hc        1 TRZ      0.046700
     27 H11         1.9830    0.6630    4.2160 hc        1 TRZ      0.064700
     28 H13         2.9990   -2.1970    3.6670 hc        1 TRZ      0.044700
     29 H121        4.2930   -0.7350    5.2960 hc        1 TRZ      0.035700
     30 H122        3.5020   -2.1620    6.0850 hc        1 TRZ      0.035700
     31 H123        2.7760   -0.5110    6.2590 hc        1 TRZ      0.035700
     32 H141        1.2860   -2.8820    5.4160 hc        1 TRZ      0.035700
     33 H142        0.5710   -2.3780    3.8310 hc        1 TRZ      0.035700
     34 H143        0.5150   -1.2500    5.2510 hc        1 TRZ      0.035700
     35 H151        5.1020    1.9140    2.9300 hc        1 TRZ      0.033367
     36 H152        4.2320    1.5890    4.4850 hc        1 TRZ      0.033367
     37 H153        3.3630    2.3980    3.1190 hc        1 TRZ      0.033367
     38 H161        3.8100    1.2890   -0.5030 hc        1 TRZ      0.033867
     39 H162        5.0680    1.5930    0.7650 hc        1 TRZ      0.033867
     40 H163        3.4070    2.3090    0.9360 hc        1 TRZ      0.033867
     41 H171        5.4030   -0.8680    0.9470 hc        1 TRZ      0.033867
     42 H172        4.1090   -1.1630   -0.2920 hc        1 TRZ      0.033867
     43 H173        4.0050   -1.9610    1.3330 hc        1 TRZ      0.033867
     44 H71        -0.1410   -0.0130   -2.1870 hc        1 TRZ      0.049700
     45 H72        -1.1450   -1.3740   -1.5120 hc        1 TRZ      0.049700
     46 H73        -1.6870    0.3320   -1.2920 hc        1 TRZ      0.049700
     47 H81        -2.3360    1.1130    2.5770 hc        1 TRZ      0.078200
     48 H82        -2.7810   -0.4880    3.2950 hc        1 TRZ      0.078200
     49 H181       -4.4800    1.2370    1.3900 hc        1 TRZ      0.035200
     50 H182       -4.8540   -0.4910    1.7700 hc        1 TRZ      0.035200
@<TRIPOS>BOND
     1    1    2 ar  
     2    1    6 ar  
     3    1   16 1   
     4    2    3 ar  
     5    2   24 1   
     6    3    4 ar  
     7    3    7 1   
     8    4    5 ar  
     9    4    9 1   
    10    5    6 ar  
    11    5   25 1   
    12    6   22 1   
    13    7    8 1   
    14    7   14 1   
    15    7   15 1   
    16    8    9 1   
    17    8   13 1   
    18    8   26 1   
    19    9   10 1   
    20    9   27 1   
    21   10   11 1   
    22   10   12 1   
    23   10   28 1   
    24   11   29 1   
    25   11   30 1   
    26   11   31 1   
    27   12   32 1   
    28   12   33 1   
    29   12   34 1   
    30   13   35 1   
    31   13   36 1   
    32   13   37 1   
    33   14   38 1   
    34   14   39 1   
    35   14   40 1   
    36   15   41 1   
    37   15   42 1   
    38   15   43 1   
    39   16   44 1   
    40   16   45 1   
    41   16   46 1   
    42   17   18 1   
    43   17   22 1   
    44   17   47 1   
    45   17   48 1   
    46   18   19 1   
    47   18   49 1   
    48   18   50 1   
    49   19   20 1   
    50   19   21 1   
    51   22   23 2   
@<TRIPOS>SUBSTRUCTURE
     1 TRZ         1 TEMP              0 ****  ****    0 ROOT
