@<TRIPOS>MOLECULE
TRZ
   50    51     1     0     0
SMALL
bcc


@<TRIPOS>ATOM
      1 C1         -2.2310   -0.5570    0.0350 ca        1 TRZ     -0.033300
      2 C2         -2.2200   -0.3180   -1.3510 ca        1 TRZ     -0.138000
      3 C3         -1.0180   -0.0740   -1.9940 ca        1 TRZ     -0.071300
      4 C4          0.1960   -0.0790   -1.2760 ca        1 TRZ     -0.099300
      5 C5          0.1870   -0.2730    0.0970 ca        1 TRZ     -0.080000
      6 C          -1.0280   -0.5200    0.7580 ca        1 TRZ     -0.161600
      7 C9         -0.7970    0.2420   -3.4490 c3        1 TRZ     -0.003700
      8 C10         0.7210    0.5800   -3.5410 c3        1 TRZ     -0.057700
      9 C11         1.3610    0.2230   -2.1670 c3        1 TRZ     -0.010400
     10 C13         2.3590   -0.9270   -2.3170 c3        1 TRZ     -0.055700
     11 C12         3.5820   -0.4590   -3.0870 c3        1 TRZ     -0.094100
     12 C14         2.7990   -1.4910   -0.9830 c3        1 TRZ     -0.094100
     13 C15         1.0180    2.0170   -3.8950 c3        1 TRZ     -0.087100
     14 C16        -1.6970    1.3810   -3.8930 c3        1 TRZ     -0.079600
     15 C17        -1.1010   -0.9850   -4.2990 c3        1 TRZ     -0.079600
     16 C7         -3.5190   -0.8400    0.7100 c3        1 TRZ     -0.057800
     17 C8         -0.0270    0.1120    2.9860 c3        1 TRZ     -0.162400
     18 C18        -0.3440    0.2890    4.4500 c3        1 TRZ     -0.193400
     19 C19         0.8690    0.8740    5.2000 c         1 TRZ      0.909600
     20 O2          2.0280    0.6330    4.7510 o         1 TRZ     -0.849800
     21 O3          0.6400    1.5590    6.2360 o         1 TRZ     -0.849800
     22 C6         -1.0070   -0.7320    2.2360 c         1 TRZ      0.575700
     23 O          -1.7520   -1.5690    2.7640 o         1 TRZ     -0.556100
     24 H2         -3.1630   -0.3230   -1.9150 ha        1 TRZ      0.125000
     25 H5          1.1230   -0.2250    0.6770 ha        1 TRZ      0.156000
     26 H10         1.1710   -0.0700   -4.3410 hc        1 TRZ      0.046700
     27 H11         1.9130    1.1130   -1.7570 hc        1 TRZ      0.064700
     28 H13         1.8590   -1.7510   -2.9010 hc        1 TRZ      0.044700
     29 H121        4.2610   -1.3220   -3.2880 hc        1 TRZ      0.035700
     30 H122        3.2910   -0.0010   -4.0620 hc        1 TRZ      0.035700
     31 H123        4.1450    0.3020   -2.4950 hc        1 TRZ      0.035700
     32 H141        3.1730   -0.6800   -0.3120 hc        1 TRZ      0.035700
     33 H142        1.9500   -2.0100   -0.4760 hc        1 TRZ      0.035700
     34 H143        3.6220   -2.2320   -1.1330 hc        1 TRZ      0.035700
     35 H151        2.1260    2.1650   -3.9560 hc        1 TRZ      0.033367
     36 H152        0.5750    2.2830   -4.8850 hc        1 TRZ      0.033367
     37 H153        0.6150    2.7160   -3.1230 hc        1 TRZ      0.033367
     38 H161       -2.7680    1.0800   -3.7800 hc        1 TRZ      0.033867
     39 H162       -1.5230    2.2920   -3.2730 hc        1 TRZ      0.033867
     40 H163       -1.5120    1.6300   -4.9650 hc        1 TRZ      0.033867
     41 H171       -2.1640   -1.2940   -4.1570 hc        1 TRZ      0.033867
     42 H172       -0.9340   -0.7570   -5.3790 hc        1 TRZ      0.033867
     43 H173       -0.4400   -1.8350   -4.0050 hc        1 TRZ      0.033867
     44 H71        -3.5500   -1.9150    1.0240 hc        1 TRZ      0.049700
     45 H72        -3.6200   -0.2200    1.6360 hc        1 TRZ      0.049700
     46 H73        -4.3860   -0.6330    0.0390 hc        1 TRZ      0.049700
     47 H81         0.9910   -0.3720    2.9120 hc        1 TRZ      0.078200
     48 H82         0.0520    1.1170    2.4940 hc        1 TRZ      0.078200
     49 H181       -1.2240    0.9640    4.5850 hc        1 TRZ      0.035200
     50 H182       -0.5960   -0.6990    4.9120 hc        1 TRZ      0.035200
@<TRIPOS>BOND
     1    1    2 ar  
     2    1    6 ar  
     3    1   16 1   
     4    2    3 ar  
     5    2   24 1   
     6    3    4 ar  
     7    3    7 1   
     8    4    5 ar  
     9    4    9 1   
    10    5    6 ar  
    11    5   25 1   
    12    6   22 1   
    13    7    8 1   
    14    7   14 1   
    15    7   15 1   
    16    8    9 1   
    17    8   13 1   
    18    8   26 1   
    19    9   10 1   
    20    9   27 1   
    21   10   11 1   
    22   10   12 1   
    23   10   28 1   
    24   11   29 1   
    25   11   30 1   
    26   11   31 1   
    27   12   32 1   
    28   12   33 1   
    29   12   34 1   
    30   13   35 1   
    31   13   36 1   
    32   13   37 1   
    33   14   38 1   
    34   14   39 1   
    35   14   40 1   
    36   15   41 1   
    37   15   42 1   
    38   15   43 1   
    39   16   44 1   
    40   16   45 1   
    41   16   46 1   
    42   17   18 1   
    43   17   22 1   
    44   17   47 1   
    45   17   48 1   
    46   18   19 1   
    47   18   49 1   
    48   18   50 1   
    49   19   20 1   
    50   19   21 1   
    51   22   23 2   
@<TRIPOS>SUBSTRUCTURE
     1 TRZ         1 TEMP              0 ****  ****    0 ROOT
