@<TRIPOS>MOLECULE
TRZ
   50    51     1     0     0
SMALL
bcc


@<TRIPOS>ATOM
      1 C1         -0.0530   -0.2780   -0.0440 ca        1 TRZ     -0.033300
      2 C2          1.3400   -0.0940   -0.0660 ca        1 TRZ     -0.138000
      3 C3          2.0460   -0.0620    1.1250 ca        1 TRZ     -0.071300
      4 C4          1.3820   -0.2270    2.3590 ca        1 TRZ     -0.099300
      5 C5          0.0030   -0.3670    2.3890 ca        1 TRZ     -0.080000
      6 C          -0.7210   -0.4010    1.1850 ca        1 TRZ     -0.161600
      7 C9          3.5220    0.1640    1.3180 c3        1 TRZ     -0.003700
      8 C10         3.6940    0.2610    2.8630 c3        1 TRZ     -0.057700
      9 C11         2.3360   -0.1410    3.5090 c3        1 TRZ     -0.010400
     10 C13         2.4790   -1.4350    4.3130 c3        1 TRZ     -0.055700
     11 C12         3.3220   -1.1890    5.5520 c3        1 TRZ     -0.094100
     12 C14         1.1420   -2.0110    4.7280 c3        1 TRZ     -0.094100
     13 C15         4.1240    1.6210    3.3570 c3        1 TRZ     -0.087100
     14 C16         3.9750    1.4110    0.5800 c3        1 TRZ     -0.079600
     15 C17         4.3030   -1.0320    0.7890 c3        1 TRZ     -0.079600
     16 C7         -0.7970   -0.3360   -1.3250 c3        1 TRZ     -0.057800
     17 C8         -2.8740    0.1500    2.3810 c3        1 TRZ     -0.162400
     18 C18        -4.3410    0.4260    2.1680 c3        1 TRZ     -0.193400
     19 C19        -5.0110    0.8440    3.4920 c         1 TRZ      0.909600
     20 O2         -4.5210    0.4110    4.5770 o         1 TRZ     -0.849800
     21 O3         -6.0250    1.5930    3.4230 o         1 TRZ     -0.849800
     22 C6         -2.2040   -0.5600    1.2480 c         1 TRZ      0.575700
     23 O          -2.8000   -1.2520    0.4120 o         1 TRZ     -0.556100
     24 H2          1.8620    0.0250   -1.0260 ha        1 TRZ      0.125000
     25 H5         -0.5330   -0.4430    3.3490 ha        1 TRZ      0.156000
     26 H10         4.4840   -0.4790    3.1680 hc        1 TRZ      0.046700
     27 H11         1.9900    0.6680    4.2100 hc        1 TRZ      0.064700
     28 H13         3.0040   -2.1930    3.6640 hc        1 TRZ      0.044700
     29 H121        3.5150   -2.1530    6.0810 hc        1 TRZ      0.035700
     30 H122        2.7890   -0.5020    6.2530 hc        1 TRZ      0.035700
     31 H123        4.3030   -0.7270    5.2860 hc        1 TRZ      0.035700
     32 H141        1.2970   -2.8750    5.4200 hc        1 TRZ      0.035700
     33 H142        0.5770   -2.3740    3.8360 hc        1 TRZ      0.035700
     34 H143        0.5250   -1.2440    5.2540 hc        1 TRZ      0.035700
     35 H151        4.2400    1.5950    4.4690 hc        1 TRZ      0.033367
     36 H152        3.3660    2.4010    3.1040 hc        1 TRZ      0.033367
     37 H153        5.1040    1.9160    2.9110 hc        1 TRZ      0.033367
     38 H161        5.0640    1.5890    0.7470 hc        1 TRZ      0.033867
     39 H162        3.8010    1.2820   -0.5170 hc        1 TRZ      0.033867
     40 H163        3.4030    2.3070    0.9210 hc        1 TRZ      0.033867
     41 H171        4.0020   -1.9620    1.3270 hc        1 TRZ      0.033867
     42 H172        4.1010   -1.1690   -0.3000 hc        1 TRZ      0.033867
     43 H173        5.3990   -0.8710    0.9340 hc        1 TRZ      0.033867
     44 H71        -0.1560   -0.0210   -2.1830 hc        1 TRZ      0.049700
     45 H72        -1.1580   -1.3810   -1.5030 hc        1 TRZ      0.049700
     46 H73        -1.6990    0.3260   -1.2840 hc        1 TRZ      0.049700
     47 H81        -2.7760   -0.4870    3.3080 hc        1 TRZ      0.078200
     48 H82        -2.3350    1.1130    2.5870 hc        1 TRZ      0.078200
     49 H181       -4.4850    1.2340    1.4090 hc        1 TRZ      0.035200
     50 H182       -4.8550   -0.4940    1.7920 hc        1 TRZ      0.035200
@<TRIPOS>BOND
     1    1    2 ar  
     2    1    6 ar  
     3    1   16 1   
     4    2    3 ar  
     5    2   24 1   
     6    3    4 ar  
     7    3    7 1   
     8    4    5 ar  
     9    4    9 1   
    10    5    6 ar  
    11    5   25 1   
    12    6   22 1   
    13    7    8 1   
    14    7   14 1   
    15    7   15 1   
    16    8    9 1   
    17    8   13 1   
    18    8   26 1   
    19    9   10 1   
    20    9   27 1   
    21   10   11 1   
    22   10   12 1   
    23   10   28 1   
    24   11   29 1   
    25   11   30 1   
    26   11   31 1   
    27   12   32 1   
    28   12   33 1   
    29   12   34 1   
    30   13   35 1   
    31   13   36 1   
    32   13   37 1   
    33   14   38 1   
    34   14   39 1   
    35   14   40 1   
    36   15   41 1   
    37   15   42 1   
    38   15   43 1   
    39   16   44 1   
    40   16   45 1   
    41   16   46 1   
    42   17   18 1   
    43   17   22 1   
    44   17   47 1   
    45   17   48 1   
    46   18   19 1   
    47   18   49 1   
    48   18   50 1   
    49   19   20 1   
    50   19   21 1   
    51   22   23 2   
@<TRIPOS>SUBSTRUCTURE
     1 TRZ         1 TEMP              0 ****  ****    0 ROOT
