@<TRIPOS>MOLECULE
TS
   36    37     1     0     0
SMALL
bcc


@<TRIPOS>ATOM
      1 P           0.6050   -0.3260   -3.7080 p5        1 TS       1.266200
      2 OP1         2.0410   -1.0120   -3.6590 oh        1 TS      -0.735400
      3 S2P         0.3180    1.3230   -4.5150 s         1 TS      -0.539000
      4 OP3        -0.1900   -1.5950   -4.2310 oh        1 TS      -0.735400
      5 O5'         0.3640   -0.4390   -2.1310 os        1 TS      -0.577200
      6 C5'        -0.4110    0.5240   -1.4470 c3        1 TS       0.137400
      7 C4'        -1.6750   -0.1190   -0.8760 c3        1 TS       0.122100
      8 O4'        -1.3330   -1.0240    0.1800 os        1 TS      -0.413600
      9 C3'        -2.6180    0.9580   -0.2980 c3        1 TS       0.123100
     10 O3'        -3.8260    0.8860   -1.0320 oh        1 TS      -0.590800
     11 C2'        -2.8310    0.5740    1.1710 c3        1 TS      -0.136400
     12 C1'        -1.8350   -0.5680    1.4460 c3        1 TS       0.314500
     13 N1         -0.7360   -0.2440    2.3560 n         1 TS      -0.383000
     14 C2         -0.0060    0.9690    2.2360 c         1 TS       0.811500
     15 O2         -0.3420    1.8670    1.4300 o         1 TS      -0.664500
     16 N3          1.1040    1.1710    3.0680 n         1 TS      -0.584500
     17 C4          1.5860    0.1970    3.9610 c         1 TS       0.714700
     18 O4          2.5830    0.4620    4.6500 o         1 TS      -0.600500
     19 C5          0.8450   -1.0780    3.9880 cc        1 TS      -0.245400
     20 C5M         1.3400   -2.1230    4.9040 c3        1 TS      -0.032900
     21 C6         -0.2420   -1.2460    3.1870 cd        1 TS       0.037600
     22 HOP1        2.4800   -1.0880   -2.8110 ho        1 TS       0.498500
     23 HOP3        0.2060   -2.4540   -4.0790 ho        1 TS       0.498500
     24 H5'        -0.6810    1.3570   -2.1610 h1        1 TS       0.092700
     25 H5''        0.2230    0.9190   -0.6020 h1        1 TS       0.092700
     26 H4'        -2.2020   -0.7470   -1.6470 h1        1 TS       0.098700
     27 H3'        -2.1590    1.9820   -0.3760 h1        1 TS       0.080700
     28 HO3'       -4.3090    1.7040   -0.8600 ho        1 TS       0.413000
     29 H2'        -3.8710    0.1910    1.3230 hc        1 TS       0.083200
     30 H2''       -2.6710    1.4540    1.8390 hc        1 TS       0.083200
     31 H1'        -2.3630   -1.4680    1.8870 h2        1 TS       0.087700
     32 HN3         1.5740    2.0480    2.9910 hn        1 TS       0.354500
     33 HM51        1.2630   -1.7690    5.9630 hc        1 TS       0.053700
     34 HM52        0.7550   -3.0690    4.7960 hc        1 TS       0.053700
     35 HM53        2.4180   -2.3370    4.6930 hc        1 TS       0.053700
     36 H6         -0.8040   -2.2000    3.1720 h4        1 TS       0.167000
@<TRIPOS>BOND
     1    1    2 1   
     2    1    3 2   
     3    1    4 1   
     4    1    5 1   
     5    2   22 1   
     6    4   23 1   
     7    5    6 1   
     8    6    7 1   
     9    6   24 1   
    10    6   25 1   
    11    7    8 1   
    12    7    9 1   
    13    7   26 1   
    14    8   12 1   
    15    9   10 1   
    16    9   11 1   
    17    9   27 1   
    18   10   28 1   
    19   11   12 1   
    20   11   29 1   
    21   11   30 1   
    22   12   13 1   
    23   12   31 1   
    24   13   14 1   
    25   13   21 1   
    26   14   15 2   
    27   14   16 1   
    28   16   17 1   
    29   16   32 1   
    30   17   18 2   
    31   17   19 1   
    32   19   20 1   
    33   19   21 2   
    34   20   33 1   
    35   20   34 1   
    36   20   35 1   
    37   21   36 1   
@<TRIPOS>SUBSTRUCTURE
     1 TS          1 TEMP              0 ****  ****    0 ROOT
