@<TRIPOS>MOLECULE
TS0
   51    52     1     0     0
SMALL
bcc


@<TRIPOS>ATOM
      1 O2          0.7830   -0.7800   -0.1420 o         1 TS0     -0.461000
      2 C2          2.0050   -0.9250    0.1390 cc        1 TS0      0.415000
      3 N3          2.3580   -0.6600    1.4940 ns        1 TS0     -0.611500
      4 N1          2.9500   -1.3250   -0.8100 nd        1 TS0     -0.476600
      5 C8          4.2120   -1.4540   -0.3470 cd        1 TS0      0.322200
      6 C9          4.6260   -1.2030    1.0070 cc        1 TS0     -0.405600
      7 C4          3.6690   -0.7730    1.9840 c         1 TS0      0.750700
      8 O4          3.8900   -0.4930    3.1920 o         1 TS0     -0.751500
      9 N7          5.3480   -1.9370   -1.0730 n         1 TS0     -0.337000
     10 C10         5.6240   -1.5890   -2.4470 c3        1 TS0      0.033000
     11 C11         4.5020   -1.9340   -3.4500 c3        1 TS0      0.130100
     12 C12         3.7590   -0.6520   -3.8740 c3        1 TS0      0.092100
     13 C13         2.3340   -0.9550   -4.3660 c3        1 TS0      0.108100
     14 C14         1.5350    0.3390   -4.5540 c3        1 TS0      0.108400
     15 O26         1.9450    1.0680   -5.6960 oh        1 TS0     -0.635800
     16 O23         2.3290   -1.7020   -5.5700 oh        1 TS0     -0.603800
     17 O21         4.4550   -0.0370   -4.9500 oh        1 TS0     -0.676800
     18 O19         5.0850   -2.5850   -4.5690 oh        1 TS0     -0.612800
     19 C6          6.4630   -1.8930   -0.1410 c         1 TS0      0.745500
     20 O6          7.6080   -2.2930   -0.4270 o         1 TS0     -0.651500
     21 N5          6.0110   -1.5220    1.1890 n         1 TS0     -0.242000
     22 C15         6.8300   -0.5730    1.9220 c3        1 TS0      0.061000
     23 C16         7.6510    0.4360    1.1200 c3        1 TS0     -0.106400
     24 C17         6.8090    1.3870    0.3020 c3        1 TS0     -0.109400
     25 C18         7.6950    2.3020   -0.5400 c3        1 TS0      0.200400
     26 O27         6.9260    3.0590   -1.4220 os        1 TS0     -0.586200
     27 P           7.1970    2.8080   -3.0330 p5        1 TS0      1.455800
     28 O33         8.6360    2.9720   -3.3040 o         1 TS0     -0.857000
     29 O31         6.3730    1.6430   -3.4400 o         1 TS0     -0.857000
     30 O32         6.3480    4.1010   -3.5420 oh        1 TS0     -0.769400
     31 H3          1.6430   -0.3570    2.1110 hn        1 TS0      0.305500
     32 H1          5.4120    3.9570   -3.4750 ho        1 TS0      0.426000
     33 H101        5.8730   -0.4870   -2.5420 h1        1 TS0      0.082700
     34 H102        6.5450   -2.1760   -2.7370 h1        1 TS0      0.082700
     35 H11         3.7780   -2.6870   -3.0340 h1        1 TS0      0.100700
     36 H12         3.6960    0.0510   -2.9970 h1        1 TS0      0.088700
     37 H13         1.8180   -1.6090   -3.6070 h1        1 TS0      0.103700
     38 H141        0.4560    0.0970   -4.7480 h1        1 TS0      0.045200
     39 H142        1.6210    0.9770   -3.6350 h1        1 TS0      0.045200
     40 H26         2.9010    1.2010   -5.6220 ho        1 TS0      0.425000
     41 H23         2.9040   -1.2300   -6.1860 ho        1 TS0      0.409000
     42 H21         5.1830    0.4820   -4.5610 ho        1 TS0      0.484000
     43 H19         5.5070   -1.9030   -5.1090 ho        1 TS0      0.406000
     44 H151        6.1550   -0.0250    2.6410 h1        1 TS0      0.056200
     45 H152        7.5550   -1.1990    2.5200 h1        1 TS0      0.056200
     46 H161        8.3560   -0.1170    0.4420 hc        1 TS0      0.039200
     47 H162        8.2740    1.0190    1.8480 hc        1 TS0      0.039200
     48 H171        6.1220    0.8110   -0.3730 hc        1 TS0      0.054700
     49 H172        6.1610    2.0100    0.9700 hc        1 TS0      0.054700
     50 H181        8.4570    1.7000   -1.1100 h1        1 TS0      0.012200
     51 H182        8.2440    3.0090    0.1470 h1        1 TS0      0.012200
@<TRIPOS>BOND
     1    1    2 1   
     2    2    3 1   
     3    2    4 2   
     4    3    7 1   
     5    3   31 1   
     6    4    5 1   
     7    5    6 2   
     8    5    9 1   
     9    6    7 1   
    10    6   21 1   
    11    7    8 2   
    12    9   10 1   
    13    9   19 1   
    14   10   11 1   
    15   10   33 1   
    16   10   34 1   
    17   11   12 1   
    18   11   18 1   
    19   11   35 1   
    20   12   13 1   
    21   12   17 1   
    22   12   36 1   
    23   13   14 1   
    24   13   16 1   
    25   13   37 1   
    26   14   15 1   
    27   14   38 1   
    28   14   39 1   
    29   15   40 1   
    30   16   41 1   
    31   17   42 1   
    32   18   43 1   
    33   19   20 2   
    34   19   21 1   
    35   21   22 1   
    36   22   23 1   
    37   22   44 1   
    38   22   45 1   
    39   23   24 1   
    40   23   46 1   
    41   23   47 1   
    42   24   25 1   
    43   24   48 1   
    44   24   49 1   
    45   25   26 1   
    46   25   50 1   
    47   25   51 1   
    48   26   27 1   
    49   27   28 1   
    50   27   29 1   
    51   27   30 1   
    52   30   32 1   
@<TRIPOS>SUBSTRUCTURE
     1 TS0         1 TEMP              0 ****  ****    0 ROOT
