@<TRIPOS>MOLECULE
TS0
   51    45     1     0     0
SMALL
bcc


@<TRIPOS>ATOM
      1 O2         -4.9680    0.0390    1.6160 o         1 TS0     -0.459000
      2 C2         -3.7100    0.0420    1.6280 c1        1 TS0      0.369500
      3 N3         -3.0320    0.0200    2.8270 n2        1 TS0     -0.369500
      4 N1         -3.0210    0.0520    0.4590 n2        1 TS0     -0.369500
      5 C8         -1.6390    0.0400    0.4720 c1        1 TS0     -0.096000
      6 C9         -0.9810    0.0180    1.6390 c1        1 TS0     -0.096000
      7 C4         -1.6890    0.0080    2.8400 c1        1 TS0      0.369500
      8 O4         -1.0790    0.0490    3.9180 o         1 TS0     -0.459000
      9 N7         -0.7230    0.0430   -0.5220 n1        1 TS0     -0.201500
     10 C10        -1.0090    0.1420   -1.9490 c2        1 TS0     -0.048000
     11 C11        -1.0510   -1.2810   -2.5720 c3        1 TS0     -0.016000
     12 C12        -1.5410   -1.1940   -4.0020 c3        1 TS0      0.045000
     13 C13        -2.2120   -2.5500   -4.4040 c3        1 TS0     -0.042000
     14 C14        -3.2710   -2.3020   -5.4190 c3        1 TS0     -0.042000
     15 O26        -3.9430   -3.4920   -5.6850 oh        1 TS0     -0.367000
     16 O23        -1.2600   -3.4020   -4.9340 oh        1 TS0     -0.338000
     17 O21        -0.4790   -0.9350   -4.8390 oh        1 TS0     -0.336000
     18 O19         0.2250   -1.8390   -2.5500 oh        1 TS0     -0.344000
     19 C6          0.5030    0.0230    0.0400 c2        1 TS0      0.344000
     20 O6          1.6070   -0.0290   -0.5830 o         1 TS0     -0.397000
     21 N5          0.3480    0.0070    1.3710 n1        1 TS0     -0.201500
     22 C15         1.4390   -0.0650    2.3780 c2        1 TS0     -0.038000
     23 C16         2.1190    1.3340    2.5270 c3        1 TS0     -0.185000
     24 C17         3.3450    1.2130    3.4900 c3        1 TS0     -0.176000
     25 C18         3.9820    2.6100    3.6910 c3        1 TS0      0.044000
     26 O27         5.0500    2.5190    4.6590 os        1 TS0     -0.743000
     27 P           5.8260    3.8450    5.0560 p5        1 TS0      1.574500
     28 O33         6.8200    3.5360    6.1230 o         1 TS0     -0.728167
     29 O31         6.5320    4.3860    3.8620 o         1 TS0     -0.728167
     30 O32         4.8470    4.8650    5.5630 o         1 TS0     -0.728167
     31 H3         -3.5040    0.0040    3.6280 hn        1 TS0      0.224000
     32 H1         -3.4870    0.1470   -0.3650 hn        1 TS0      0.224000
     33 H101       -0.2980    0.6760   -2.3910 ha        1 TS0      0.111500
     34 H102       -1.8940    0.5910   -2.0830 ha        1 TS0      0.111500
     35 H11        -1.6670   -1.8510   -2.0470 h1        1 TS0      0.102000
     36 H12        -2.1930   -0.4770   -4.0770 h1        1 TS0      0.115000
     37 H13        -2.6090   -2.9590   -3.6160 h1        1 TS0      0.121000
     38 H141       -2.8660   -1.9710   -6.2320 h1        1 TS0      0.088000
     39 H142       -3.8930   -1.6500   -5.0810 h1        1 TS0      0.088000
     40 H26        -4.4680   -3.3830   -6.3870 ho        1 TS0      0.247000
     41 H23        -1.5400   -4.2640   -4.8380 ho        1 TS0      0.212000
     42 H21        -0.5330   -0.0700   -5.1420 ho        1 TS0      0.228000
     43 H19         0.1720   -2.6900   -2.2870 ho        1 TS0      0.233000
     44 H151        1.0570   -0.3460    3.2630 ha        1 TS0      0.098500
     45 H152        2.0940   -0.7110    2.0950 ha        1 TS0      0.098500
     46 H161        1.4740    1.9760    2.8980 hc        1 TS0      0.085000
     47 H162        2.4190    1.6420    1.6600 hc        1 TS0      0.085000
     48 H171        4.0100    0.6000    3.1000 hc        1 TS0      0.087500
     49 H172        3.0480    0.8630    4.3510 hc        1 TS0      0.087500
     50 H181        3.2980    3.2380    4.0150 h1        1 TS0      0.057500
     51 H182        4.3430    2.9310    2.8350 h1        1 TS0      0.057500
@<TRIPOS>BOND
     1    1    2 1   
     2    2    4 1   
     3    3    7 1   
     4    3   31 1   
     5    4   32 1   
     6    5    6 1   
     7    7    8 1   
     8    9   19 1   
     9   10   11 1   
    10   10   33 1   
    11   10   34 1   
    12   11   12 1   
    13   11   18 1   
    14   11   35 1   
    15   12   13 1   
    16   12   17 1   
    17   12   36 1   
    18   13   14 1   
    19   13   16 1   
    20   13   37 1   
    21   14   15 1   
    22   14   38 1   
    23   14   39 1   
    24   15   40 1   
    25   16   41 1   
    26   17   42 1   
    27   18   43 1   
    28   19   20 1   
    29   19   21 1   
    30   22   23 1   
    31   22   44 1   
    32   22   45 1   
    33   23   24 1   
    34   23   46 1   
    35   23   47 1   
    36   24   25 1   
    37   24   48 1   
    38   24   49 1   
    39   25   26 1   
    40   25   50 1   
    41   25   51 1   
    42   26   27 1   
    43   27   28 1   
    44   27   29 1   
    45   27   30 1   
@<TRIPOS>SUBSTRUCTURE
     1 TS0         1 TEMP              0 ****  ****    0 ROOT
