@<TRIPOS>MOLECULE
TS0
   51    52     1     0     0
SMALL
bcc


@<TRIPOS>ATOM
      1 O2          1.6290   -3.1080    1.9550 o         1 TS0     -0.455000
      2 C2          2.7740   -2.6680    1.6590 cc        1 TS0      0.417000
      3 N3          3.4120   -1.8850    2.6660 n         1 TS0     -0.610500
      4 N1          3.3850   -2.9360    0.4300 nd        1 TS0     -0.489600
      5 C8          4.6210   -2.4090    0.2860 cd        1 TS0      0.313200
      6 C9          5.3060   -1.5960    1.2500 cc        1 TS0     -0.378600
      7 C4          4.6860   -1.3130    2.5130 c         1 TS0      0.750700
      8 O4          5.1630   -0.6300    3.4550 o         1 TS0     -0.738500
      9 N7          5.5020   -2.5920   -0.8210 n         1 TS0     -0.359000
     10 C10         5.0510   -2.8800   -2.1490 c3        1 TS0      0.068000
     11 C11         4.0690   -1.8540   -2.7720 c3        1 TS0      0.095100
     12 C12         4.5280   -1.4360   -4.1830 c3        1 TS0      0.156100
     13 C13         4.0140   -0.0350   -4.5600 c3        1 TS0      0.069100
     14 C14         4.8970    0.5710   -5.6590 c3        1 TS0      0.108400
     15 O26         4.2940    1.7360   -6.1810 oh        1 TS0     -0.639800
     16 O23         2.6790   -0.1840   -5.0280 oh        1 TS0     -0.610800
     17 O21         4.1480   -2.3910   -5.1530 oh        1 TS0     -0.608800
     18 O19         2.7930   -2.4580   -2.9170 oh        1 TS0     -0.616800
     19 C6          6.6710   -1.7780   -0.5630 c         1 TS0      0.753500
     20 O6          7.6400   -1.7150   -1.3470 o         1 TS0     -0.672500
     21 N5          6.6140   -1.2630    0.7770 n         1 TS0     -0.258000
     22 C15         7.2000    0.0180    1.0980 c3        1 TS0      0.078000
     23 C16         7.2670    1.0880    0.0110 c3        1 TS0     -0.106400
     24 C17         5.9550    1.7940   -0.2460 c3        1 TS0     -0.097400
     25 C18         6.1990    3.0740   -1.0420 c3        1 TS0      0.194400
     26 O27         4.9930    3.7410   -1.2570 os        1 TS0     -0.581200
     27 P           4.7720    4.4250   -2.7380 p5        1 TS0      1.426800
     28 O33         3.6270    5.3490   -2.6310 o         1 TS0     -0.837000
     29 O31         6.0960    4.7110   -3.3260 o         1 TS0     -0.837000
     30 O32         4.1460    3.1120   -3.5040 oh        1 TS0     -0.797400
     31 H3          2.9140   -1.7150    3.5070 hn        1 TS0      0.308500
     32 H1          3.2180    3.0100   -3.3250 ho        1 TS0      0.427000
     33 H101        4.5300   -3.8810   -2.1210 h1        1 TS0      0.072200
     34 H102        5.9690   -2.9700   -2.7970 h1        1 TS0      0.072200
     35 H11         3.9830   -0.9360   -2.1250 h1        1 TS0      0.062700
     36 H12         5.6550   -1.4200   -4.2170 h1        1 TS0      0.075700
     37 H13         4.0140    0.6530   -3.6670 h1        1 TS0      0.081700
     38 H141        5.9160    0.7950   -5.2500 h1        1 TS0      0.048700
     39 H142        4.9730   -0.1370   -6.5270 h1        1 TS0      0.048700
     40 H26         4.3290    2.4120   -5.4850 ho        1 TS0      0.448000
     41 H23         2.4670    0.6330   -5.5000 ho        1 TS0      0.413000
     42 H21         3.1800   -2.4240   -5.1430 ho        1 TS0      0.429000
     43 H19         2.4620   -2.6230   -2.0240 ho        1 TS0      0.434000
     44 H151        8.2640   -0.2120    1.4040 h1        1 TS0      0.059200
     45 H152        6.6550    0.4270    1.9980 h1        1 TS0      0.059200
     46 H161        7.6490    0.6420   -0.9460 hc        1 TS0      0.045700
     47 H162        8.0280    1.8430    0.3500 hc        1 TS0      0.045700
     48 H171        5.4510    2.0550    0.7210 hc        1 TS0      0.048200
     49 H172        5.2550    1.1280   -0.8120 hc        1 TS0      0.048200
     50 H181        6.6940    2.8420   -2.0260 h1        1 TS0      0.018200
     51 H182        6.8850    3.7430   -0.4440 h1        1 TS0      0.018200
@<TRIPOS>BOND
     1    1    2 1   
     2    2    3 1   
     3    2    4 2   
     4    3    7 1   
     5    3   31 1   
     6    4    5 1   
     7    5    6 2   
     8    5    9 1   
     9    6    7 1   
    10    6   21 1   
    11    7    8 2   
    12    9   10 1   
    13    9   19 1   
    14   10   11 1   
    15   10   33 1   
    16   10   34 1   
    17   11   12 1   
    18   11   18 1   
    19   11   35 1   
    20   12   13 1   
    21   12   17 1   
    22   12   36 1   
    23   13   14 1   
    24   13   16 1   
    25   13   37 1   
    26   14   15 1   
    27   14   38 1   
    28   14   39 1   
    29   15   40 1   
    30   16   41 1   
    31   17   42 1   
    32   18   43 1   
    33   19   20 2   
    34   19   21 1   
    35   21   22 1   
    36   22   23 1   
    37   22   44 1   
    38   22   45 1   
    39   23   24 1   
    40   23   46 1   
    41   23   47 1   
    42   24   25 1   
    43   24   48 1   
    44   24   49 1   
    45   25   26 1   
    46   25   50 1   
    47   25   51 1   
    48   26   27 1   
    49   27   28 1   
    50   27   29 1   
    51   27   30 1   
    52   30   32 1   
@<TRIPOS>SUBSTRUCTURE
     1 TS0         1 TEMP              0 ****  ****    0 ROOT
