@<TRIPOS>MOLECULE
TS0
   51    52     1     0     0
SMALL
bcc


@<TRIPOS>ATOM
      1 O2          5.4590   -0.4670    0.4420 o         1 TS0     -0.462000
      2 C2          4.3220   -0.9580    0.1970 cc        1 TS0      0.415000
      3 N3          4.2480   -1.7760   -0.9680 n         1 TS0     -0.613500
      4 N1          3.2090   -0.7230    1.0110 nd        1 TS0     -0.465600
      5 C8          2.0750   -1.3400    0.6190 cd        1 TS0      0.323200
      6 C9          1.9380   -2.1740   -0.5440 cc        1 TS0     -0.405600
      7 C4          3.0670   -2.4070   -1.3950 c         1 TS0      0.748700
      8 O4          3.0950   -3.0880   -2.4540 o         1 TS0     -0.752500
      9 N7          0.8190   -1.3370    1.3110 n         1 TS0     -0.330000
     10 C10         0.2980   -0.1280    1.9000 c3        1 TS0      0.044000
     11 C11        -0.2050   -0.2780    3.3500 c3        1 TS0      0.123100
     12 C12        -0.9970    1.0040    3.7050 c3        1 TS0      0.090100
     13 C13        -0.9810    1.2390    5.2230 c3        1 TS0      0.108100
     14 C14        -1.7760    2.5020    5.5740 c3        1 TS0      0.110400
     15 O26        -1.9080    2.6620    6.9760 oh        1 TS0     -0.628800
     16 O23        -1.5300    0.1570    5.9610 oh        1 TS0     -0.636800
     17 O21        -2.3480    0.8140    3.3210 oh        1 TS0     -0.645800
     18 O19        -1.0270   -1.4080    3.5590 oh        1 TS0     -0.609800
     19 C6         -0.0830   -2.1390    0.4990 c         1 TS0      0.751500
     20 O6         -1.2570   -2.3850    0.8320 o         1 TS0     -0.647500
     21 N5          0.6220   -2.7400   -0.6230 n         1 TS0     -0.239000
     22 C15        -0.0570   -2.6930   -1.9070 c3        1 TS0      0.058000
     23 C16        -0.9360   -1.4790   -2.2070 c3        1 TS0     -0.105400
     24 C17        -0.1500   -0.2150   -2.4730 c3        1 TS0     -0.085400
     25 C18        -1.0070    1.0290   -2.2860 c3        1 TS0      0.177400
     26 O27        -1.2110    1.2580   -0.9210 os        1 TS0     -0.580200
     27 P          -2.1320    2.5740   -0.5850 p5        1 TS0      1.441800
     28 O33        -3.2200    2.7050   -1.5720 o         1 TS0     -0.850000
     29 O31        -2.2520    2.5450    0.8940 o         1 TS0     -0.850000
     30 O32        -1.0040    3.7200   -0.8700 oh        1 TS0     -0.783400
     31 H3          5.0700   -1.8900   -1.5100 hn        1 TS0      0.303500
     32 H1         -0.4060    3.8240   -0.1400 ho        1 TS0      0.426000
     33 H101       -0.5700    0.2480    1.2770 h1        1 TS0      0.084700
     34 H102        1.1000    0.6640    1.9030 h1        1 TS0      0.084700
     35 H11         0.6560   -0.4190    4.0590 h1        1 TS0      0.070700
     36 H12        -0.5530    1.8980    3.1890 h1        1 TS0      0.071700
     37 H13         0.0820    1.3440    5.5820 h1        1 TS0      0.051700
     38 H141       -2.7930    2.4490    5.1020 h1        1 TS0      0.053700
     39 H142       -1.2370    3.4180    5.2190 h1        1 TS0      0.053700
     40 H26        -2.1470    1.7960    7.3320 ho        1 TS0      0.410000
     41 H23        -1.9670   -0.4350    5.3300 ho        1 TS0      0.443000
     42 H21        -2.4840    1.3040    2.4890 ho        1 TS0      0.482000
     43 H19        -1.6530   -1.4480    2.8190 ho        1 TS0      0.434000
     44 H151        0.7310   -2.8000   -2.7060 h1        1 TS0      0.055700
     45 H152       -0.7200   -3.6060   -1.9280 h1        1 TS0      0.055700
     46 H161       -1.5640   -1.7250   -3.1030 hc        1 TS0      0.047700
     47 H162       -1.6380   -1.2970   -1.3470 hc        1 TS0      0.047700
     48 H171        0.7250   -0.1590   -1.7710 hc        1 TS0      0.044700
     49 H172        0.2520   -0.2260   -3.5180 hc        1 TS0      0.044700
     50 H181       -0.4880    1.9290   -2.7190 h1        1 TS0      0.019200
     51 H182       -2.0080    0.9170   -2.7870 h1        1 TS0      0.019200
@<TRIPOS>BOND
     1    1    2 1   
     2    2    3 1   
     3    2    4 2   
     4    3    7 1   
     5    3   31 1   
     6    4    5 1   
     7    5    6 2   
     8    5    9 1   
     9    6    7 1   
    10    6   21 1   
    11    7    8 2   
    12    9   10 1   
    13    9   19 1   
    14   10   11 1   
    15   10   33 1   
    16   10   34 1   
    17   11   12 1   
    18   11   18 1   
    19   11   35 1   
    20   12   13 1   
    21   12   17 1   
    22   12   36 1   
    23   13   14 1   
    24   13   16 1   
    25   13   37 1   
    26   14   15 1   
    27   14   38 1   
    28   14   39 1   
    29   15   40 1   
    30   16   41 1   
    31   17   42 1   
    32   18   43 1   
    33   19   20 2   
    34   19   21 1   
    35   21   22 1   
    36   22   23 1   
    37   22   44 1   
    38   22   45 1   
    39   23   24 1   
    40   23   46 1   
    41   23   47 1   
    42   24   25 1   
    43   24   48 1   
    44   24   49 1   
    45   25   26 1   
    46   25   50 1   
    47   25   51 1   
    48   26   27 1   
    49   27   28 1   
    50   27   29 1   
    51   27   30 1   
    52   30   32 1   
@<TRIPOS>SUBSTRUCTURE
     1 TS0         1 TEMP              0 ****  ****    0 ROOT
