@<TRIPOS>MOLECULE
TS1
   51    52     1     0     0
SMALL
bcc


@<TRIPOS>ATOM
      1 O2          4.2690    1.8070    1.1950 o         1 TS1     -0.663500
      2 C2          3.6270    0.7850    0.8610 c         1 TS1      0.806500
      3 N3          4.2380   -0.1250   -0.0280 n         1 TS1     -0.601500
      4 N1          2.3680    0.4920    1.4570 n         1 TS1     -0.387100
      5 C8          1.7570   -0.6900    1.0410 cc        1 TS1      0.241200
      6 C9          2.3280   -1.5650    0.0840 cd        1 TS1     -0.334600
      7 C4          3.6060   -1.2830   -0.5230 c         1 TS1      0.768700
      8 O4          4.1900   -1.9530   -1.4010 o         1 TS1     -0.686500
      9 N7          0.5690   -1.2590    1.5520 n         1 TS1     -0.306000
     10 C10        -0.5500   -0.4710    2.0100 c3        1 TS1     -0.017000
     11 C11        -0.6800   -0.3020    3.5300 c3        1 TS1      0.125100
     12 C12        -1.5230    0.9590    3.8180 c3        1 TS1      0.045100
     13 C13        -3.0360    0.6830    3.7580 c3        1 TS1      0.118100
     14 C14        -3.8170    1.9890    3.9730 c3        1 TS1      0.130400
     15 O26        -4.1950    2.6310    2.7830 oh        1 TS1     -0.648800
     16 O23        -3.4000    0.0600    2.5500 oh        1 TS1     -0.639800
     17 O21        -1.1670    1.4830    5.0900 oh        1 TS1     -0.608800
     18 O19         0.5530   -0.1910    4.2210 oh        1 TS1     -0.618800
     19 C6          0.3470   -2.4620    0.7670 c         1 TS1      0.748500
     20 O6         -0.5810   -3.2620    0.9650 o         1 TS1     -0.615500
     21 N5          1.4680   -2.6910   -0.1510 n         1 TS1     -0.239000
     22 C15         1.0760   -2.9060   -1.5400 c3        1 TS1      0.050000
     23 C16         0.6860   -1.6770   -2.3660 c3        1 TS1     -0.099400
     24 C17        -0.6170   -1.0310   -1.9510 c3        1 TS1     -0.111400
     25 C18        -0.5830    0.5010   -2.0840 c3        1 TS1      0.219400
     26 O27        -1.5400    1.0710   -1.2740 os        1 TS1     -0.580200
     27 P          -1.0200    2.2930   -0.2030 p5        1 TS1      1.384900
     28 O33        -1.9440    2.0610    0.9810 o         1 TS1     -0.938500
     29 O31         0.3650    1.8110    0.1910 o         1 TS1     -0.938500
     30 O32        -1.1250    3.5550   -0.9850 o         1 TS1     -0.938500
     31 H3          5.0960    0.1620   -0.4410 hn        1 TS1      0.326500
     32 H1          1.7280    1.3040    1.4980 hn        1 TS1      0.427500
     33 H101       -1.5020   -0.9670    1.6540 h1        1 TS1      0.145200
     34 H102       -0.5170    0.5670    1.5120 h1        1 TS1      0.145200
     35 H11        -1.1620   -1.2120    3.9870 h1        1 TS1      0.055700
     36 H12        -1.2880    1.7860    3.0760 h1        1 TS1      0.163700
     37 H13        -3.3150   -0.0540    4.5630 h1        1 TS1      0.023700
     38 H141       -3.2070    2.6870    4.6090 h1        1 TS1      0.014200
     39 H142       -4.7840    1.7640    4.5000 h1        1 TS1      0.014200
     40 H26        -3.4320    2.6330    2.1660 ho        1 TS1      0.488000
     41 H23        -3.1190    0.6460    1.8120 ho        1 TS1      0.488000
     42 H21        -1.0560    0.7330    5.6860 ho        1 TS1      0.383000
     43 H19         0.9920    0.6010    3.8860 ho        1 TS1      0.412000
     44 H151        1.9740   -3.3850   -2.0260 h1        1 TS1      0.055200
     45 H152        0.2220   -3.6400   -1.5300 h1        1 TS1      0.055200
     46 H161        1.5230   -0.9280   -2.3070 hc        1 TS1      0.039200
     47 H162        0.6190   -2.0090   -3.4360 hc        1 TS1      0.039200
     48 H171       -1.4550   -1.4350   -2.5750 hc        1 TS1      0.031200
     49 H172       -0.8720   -1.2800   -0.8880 hc        1 TS1      0.031200
     50 H181        0.4430    0.8880   -1.8220 h1        1 TS1     -0.000800
     51 H182       -0.7960    0.7520   -3.1660 h1        1 TS1     -0.000800
@<TRIPOS>BOND
     1    1    2 2   
     2    2    3 1   
     3    2    4 1   
     4    3    7 1   
     5    3   31 1   
     6    4    5 1   
     7    4   32 1   
     8    5    6 2   
     9    5    9 1   
    10    6    7 1   
    11    6   21 1   
    12    7    8 2   
    13    9   10 1   
    14    9   19 1   
    15   10   11 1   
    16   10   33 1   
    17   10   34 1   
    18   11   12 1   
    19   11   18 1   
    20   11   35 1   
    21   12   13 1   
    22   12   17 1   
    23   12   36 1   
    24   13   14 1   
    25   13   16 1   
    26   13   37 1   
    27   14   15 1   
    28   14   38 1   
    29   14   39 1   
    30   15   40 1   
    31   16   41 1   
    32   17   42 1   
    33   18   43 1   
    34   19   20 2   
    35   19   21 1   
    36   21   22 1   
    37   22   23 1   
    38   22   44 1   
    39   22   45 1   
    40   23   24 1   
    41   23   46 1   
    42   23   47 1   
    43   24   25 1   
    44   24   48 1   
    45   24   49 1   
    46   25   26 1   
    47   25   50 1   
    48   25   51 1   
    49   26   27 1   
    50   27   28 1   
    51   27   29 1   
    52   27   30 1   
@<TRIPOS>SUBSTRUCTURE
     1 TS1         1 TEMP              0 ****  ****    0 ROOT
