@<TRIPOS>MOLECULE
TS1
   51    52     1     0     0
SMALL
bcc


@<TRIPOS>ATOM
      1 O2          1.1850    2.1550    1.5100 o         1 TS1     -0.668500
      2 C2          2.0260    1.2440    1.3290 c         1 TS1      0.804500
      3 N3          2.5790    0.6130    2.4640 n         1 TS1     -0.601500
      4 N1          2.3190    0.7770    0.0180 n         1 TS1     -0.385100
      5 C8          3.2560   -0.2540   -0.0660 cc        1 TS1      0.242200
      6 C9          3.8840   -0.8300    1.0660 cd        1 TS1     -0.323600
      7 C4          3.5790   -0.3790    2.4020 c         1 TS1      0.767700
      8 O4          4.0830   -0.7850    3.4720 o         1 TS1     -0.686500
      9 N7          3.6460   -0.9560   -1.2280 n         1 TS1     -0.307000
     10 C10         3.5470   -0.3320   -2.5300 c3        1 TS1      0.002000
     11 C11         3.9330   -1.2000   -3.7300 c3        1 TS1      0.108100
     12 C12         4.0030   -0.2920   -4.9820 c3        1 TS1      0.061100
     13 C13         5.2360   -0.5760   -5.8490 c3        1 TS1      0.075100
     14 C14         6.5280   -0.1170   -5.1560 c3        1 TS1      0.134400
     15 O26         6.8900    1.1570   -5.6290 oh        1 TS1     -0.657800
     16 O23         5.2940   -1.9420   -6.2430 oh        1 TS1     -0.633800
     17 O21         2.8200   -0.4760   -5.7470 oh        1 TS1     -0.618800
     18 O19         3.0110   -2.2570   -3.9590 oh        1 TS1     -0.621800
     19 C6          4.7050   -1.8500   -0.8040 c         1 TS1      0.758500
     20 O6          5.3210   -2.6400   -1.5390 o         1 TS1     -0.629500
     21 N5          4.7950   -1.8580    0.6580 n         1 TS1     -0.249000
     22 C15         6.1370   -1.8130    1.2150 c3        1 TS1      0.059000
     23 C16         6.8270   -0.4500    1.3000 c3        1 TS1     -0.097400
     24 C17         7.1520    0.1670   -0.0420 c3        1 TS1     -0.115400
     25 C18         6.7730    1.6560   -0.1000 c3        1 TS1      0.218400
     26 O27         6.8190    2.1160   -1.3950 os        1 TS1     -0.577200
     27 P           5.3850    2.7530   -2.0680 p5        1 TS1      1.374900
     28 O33         5.3680    2.0470   -3.4090 o         1 TS1     -0.936833
     29 O31         4.2880    2.1630   -1.1980 o         1 TS1     -0.936833
     30 O32         5.5750    4.2300   -2.0210 o         1 TS1     -0.936833
     31 H3          2.3650    1.0170    3.3480 hn        1 TS1      0.325500
     32 H1          2.4880    1.5320   -0.6670 hn        1 TS1      0.425500
     33 H101        4.1970    0.6250   -2.5510 h1        1 TS1      0.127200
     34 H102        2.4700   -0.0180   -2.6510 h1        1 TS1      0.127200
     35 H11         4.9150   -1.7200   -3.5480 h1        1 TS1      0.098700
     36 H12         4.0310    0.8040   -4.6830 h1        1 TS1      0.179700
     37 H13         5.1220   -0.0220   -6.8260 h1        1 TS1      0.076700
     38 H141        7.3630   -0.8110   -5.4430 h1        1 TS1      0.048700
     39 H142        6.3940   -0.0990   -4.0400 h1        1 TS1      0.048700
     40 H26         6.4660    1.8080   -5.0300 ho        1 TS1      0.487000
     41 H23         5.3100   -2.4710   -5.4360 ho        1 TS1      0.401000
     42 H21         2.8920   -1.3520   -6.1500 ho        1 TS1      0.392000
     43 H19         2.1360   -1.8530   -4.0260 ho        1 TS1      0.395000
     44 H151        6.0350   -2.2190    2.2630 h1        1 TS1      0.054700
     45 H152        6.7680   -2.5170    0.6030 h1        1 TS1      0.054700
     46 H161        7.7700   -0.5990    1.8890 hc        1 TS1      0.035700
     47 H162        6.1740    0.2420    1.8980 hc        1 TS1      0.035700
     48 H171        6.6180   -0.3660   -0.8710 hc        1 TS1      0.033200
     49 H172        8.2460    0.0620   -0.2560 hc        1 TS1      0.033200
     50 H181        5.7490    1.8040    0.3470 h1        1 TS1     -0.001800
     51 H182        7.5240    2.2210    0.5300 h1        1 TS1     -0.001800
@<TRIPOS>BOND
     1    1    2 2   
     2    2    3 1   
     3    2    4 1   
     4    3    7 1   
     5    3   31 1   
     6    4    5 1   
     7    4   32 1   
     8    5    6 2   
     9    5    9 1   
    10    6    7 1   
    11    6   21 1   
    12    7    8 2   
    13    9   10 1   
    14    9   19 1   
    15   10   11 1   
    16   10   33 1   
    17   10   34 1   
    18   11   12 1   
    19   11   18 1   
    20   11   35 1   
    21   12   13 1   
    22   12   17 1   
    23   12   36 1   
    24   13   14 1   
    25   13   16 1   
    26   13   37 1   
    27   14   15 1   
    28   14   38 1   
    29   14   39 1   
    30   15   40 1   
    31   16   41 1   
    32   17   42 1   
    33   18   43 1   
    34   19   20 2   
    35   19   21 1   
    36   21   22 1   
    37   22   23 1   
    38   22   44 1   
    39   22   45 1   
    40   23   24 1   
    41   23   46 1   
    42   23   47 1   
    43   24   25 1   
    44   24   48 1   
    45   24   49 1   
    46   25   26 1   
    47   25   50 1   
    48   25   51 1   
    49   26   27 1   
    50   27   28 1   
    51   27   29 1   
    52   27   30 1   
@<TRIPOS>SUBSTRUCTURE
     1 TS1         1 TEMP              0 ****  ****    0 ROOT
