@<TRIPOS>MOLECULE
TS1
   51    52     1     0     0
SMALL
bcc


@<TRIPOS>ATOM
      1 O2          0.9460    1.4820    0.9970 o         1 TS1     -0.668500
      2 C2          1.9410    0.7220    0.9910 c         1 TS1      0.808500
      3 N3          2.4140    0.2340    2.2290 ns        1 TS1     -0.601500
      4 N1          2.5010    0.2620   -0.2310 ns        1 TS1     -0.370100
      5 C8          3.5920   -0.5920   -0.1270 cc        1 TS1      0.259200
      6 C9          4.1270   -1.0170    1.1170 cd        1 TS1     -0.345600
      7 C4          3.5580   -0.5790    2.3670 c         1 TS1      0.767700
      8 O4          3.9580   -0.8530    3.5200 o         1 TS1     -0.693500
      9 N7          4.2740   -1.2440   -1.1770 n         1 TS1     -0.304000
     10 C10         4.4430   -0.6590   -2.4850 c3        1 TS1      0.021000
     11 C11         3.5690   -1.2320   -3.6110 c3        1 TS1      0.125100
     12 C12         3.6490   -0.2580   -4.8090 c3        1 TS1      0.071100
     13 C13         4.6990   -0.6370   -5.8560 c3        1 TS1      0.123100
     14 C14         6.1050   -0.2870   -5.3490 c3        1 TS1      0.043400
     15 O26         6.9560   -0.0560   -6.4640 oh        1 TS1     -0.640800
     16 O23         4.5870   -2.0220   -6.1750 oh        1 TS1     -0.618800
     17 O21         2.3790   -0.2410   -5.4630 oh        1 TS1     -0.628800
     18 O19         2.2200   -1.3270   -3.1700 oh        1 TS1     -0.604800
     19 C6          5.3540   -1.9780   -0.5460 c         1 TS1      0.747500
     20 O6          6.1480   -2.7120   -1.1570 o         1 TS1     -0.625500
     21 N5          5.2580   -1.8800    0.9140 n         1 TS1     -0.238000
     22 C15         6.4920   -1.4670    1.5730 c3        1 TS1      0.050000
     23 C16         6.8630    0.0180    1.5230 c3        1 TS1     -0.099400
     24 C17         7.2600    0.5190    0.1520 c3        1 TS1     -0.111400
     25 C18         6.7610    1.9490   -0.1190 c3        1 TS1      0.218400
     26 O27         6.7350    2.1960   -1.4720 os        1 TS1     -0.579200
     27 P           5.2640    2.7780   -2.1290 p5        1 TS1      1.365900
     28 O33         5.2610    2.1000   -3.4820 o         1 TS1     -0.935500
     29 O31         4.2200    2.1050   -1.2530 o         1 TS1     -0.935500
     30 O32         5.3840    4.2620   -2.0490 o         1 TS1     -0.935500
     31 H3          2.0090    0.6270    3.0470 hn        1 TS1      0.325500
     32 H1          2.5830    0.9800   -0.9660 hn        1 TS1      0.429500
     33 H101        4.2850    0.4820   -2.4150 h1        1 TS1      0.137700
     34 H102        5.5160   -0.8140   -2.8040 h1        1 TS1      0.137700
     35 H11         3.9260   -2.2550   -3.9140 h1        1 TS1      0.039700
     36 H12         3.9130    0.7910   -4.4450 h1        1 TS1      0.167700
     37 H13         4.4840   -0.0510   -6.7960 h1        1 TS1      0.035700
     38 H141        6.5520   -1.1650   -4.8110 h1        1 TS1      0.114700
     39 H142        6.0650    0.6130   -4.6570 h1        1 TS1      0.114700
     40 H26         6.9440    0.8940   -6.6190 ho        1 TS1      0.403000
     41 H23         5.4210   -2.2650   -6.5930 ho        1 TS1      0.391000
     42 H21         1.8390    0.3750   -4.9530 ho        1 TS1      0.404000
     43 H19         1.7200   -1.6730   -3.9210 ho        1 TS1      0.394000
     44 H151        6.3570   -1.7570    2.6550 h1        1 TS1      0.054200
     45 H152        7.3240   -2.0790    1.1240 h1        1 TS1      0.054200
     46 H161        7.7130    0.1680    2.2400 hc        1 TS1      0.038200
     47 H162        5.9950    0.6150    1.9140 hc        1 TS1      0.038200
     48 H171        8.3750    0.4930    0.0470 hc        1 TS1      0.029200
     49 H172        6.8560   -0.1460   -0.6550 hc        1 TS1      0.029200
     50 H181        7.4820    2.6580    0.3890 h1        1 TS1     -0.001800
     51 H182        5.7390    2.0920    0.3340 h1        1 TS1     -0.001800
@<TRIPOS>BOND
     1    1    2 2   
     2    2    3 1   
     3    2    4 1   
     4    3    7 1   
     5    3   31 1   
     6    4    5 1   
     7    4   32 1   
     8    5    6 2   
     9    5    9 1   
    10    6    7 1   
    11    6   21 1   
    12    7    8 2   
    13    9   10 1   
    14    9   19 1   
    15   10   11 1   
    16   10   33 1   
    17   10   34 1   
    18   11   12 1   
    19   11   18 1   
    20   11   35 1   
    21   12   13 1   
    22   12   17 1   
    23   12   36 1   
    24   13   14 1   
    25   13   16 1   
    26   13   37 1   
    27   14   15 1   
    28   14   38 1   
    29   14   39 1   
    30   15   40 1   
    31   16   41 1   
    32   17   42 1   
    33   18   43 1   
    34   19   20 2   
    35   19   21 1   
    36   21   22 1   
    37   22   23 1   
    38   22   44 1   
    39   22   45 1   
    40   23   24 1   
    41   23   46 1   
    42   23   47 1   
    43   24   25 1   
    44   24   48 1   
    45   24   49 1   
    46   25   26 1   
    47   25   50 1   
    48   25   51 1   
    49   26   27 1   
    50   27   28 1   
    51   27   29 1   
    52   27   30 1   
@<TRIPOS>SUBSTRUCTURE
     1 TS1         1 TEMP              0 ****  ****    0 ROOT
