@<TRIPOS>MOLECULE
TS2
   93    93     1     0     0
SMALL
bcc


@<TRIPOS>ATOM
      1 N1          4.4790   -9.0150    3.8990 n3        1 TS2     -0.891800
      2 CA1         3.2470   -8.8420    3.2200 c3        1 TS2      0.017500
      3 C1          2.9080  -10.0980    2.4650 c         1 TS2      0.889600
      4 OE1         3.6970  -10.5370    1.5870 o         1 TS2     -0.840300
      5 OE2         1.8340  -10.6980    2.6990 o         1 TS2     -0.840300
      6 CB1         3.3630   -7.6700    2.2380 c3        1 TS2     -0.073400
      7 CG1         2.8490   -6.3790    2.9130 c3        1 TS2     -0.143400
      8 CD1         2.5640   -5.3200    1.8420 c         1 TS2      0.668100
      9 O1          2.1900   -5.6580    0.7430 o         1 TS2     -0.658100
     10 N2          2.7180   -3.9260    2.1510 n         1 TS2     -0.567900
     11 CA2         2.4320   -2.9490    1.1690 c3        1 TS2      0.044700
     12 C2          3.6790   -2.7090    0.3060 c         1 TS2      0.638100
     13 O2          4.7260   -3.2680    0.5820 o         1 TS2     -0.641100
     14 CB2         2.0280   -1.6550    1.8460 c3        1 TS2     -0.050300
     15 SG2         0.2330   -1.3940    1.6390 ss        1 TS2     -0.152100
     16 N3          3.5730   -1.8880   -0.9630 n         1 TS2     -0.547900
     17 CA3         4.8620   -1.9240   -1.6850 c3        1 TS2      0.021000
     18 C3          5.0700   -0.5680   -2.4530 c         1 TS2      0.633100
     19 O3          4.8620    0.4830   -1.8910 o         1 TS2     -0.641100
     20 N4         -3.1140    3.6850   -0.0020 n         1 TS2     -0.545900
     21 CA4        -2.4960    4.1630   -1.2450 c3        1 TS2      0.017000
     22 C4         -3.2470    3.5210   -2.5030 c         1 TS2      0.628100
     23 O4         -3.5550    2.3450   -2.4930 o         1 TS2     -0.636100
     24 C5         -2.5740    2.3680    0.3370 c         1 TS2      0.657100
     25 O5         -1.7440    1.8510   -0.3770 o         1 TS2     -0.661100
     26 CA5        -2.4710    2.2260    1.8660 c3        1 TS2      0.039700
     27 N5         -3.7250    2.5040    2.4500 n         1 TS2     -0.576900
     28 CB5        -2.0520    0.8070    2.2180 c3        1 TS2     -0.053300
     29 SG5        -0.2290    0.6230    1.9940 ss        1 TS2     -0.163100
     30 CA6        -6.0290    4.4640    6.5440 c3        1 TS2      0.018500
     31 C6         -5.5570    5.2880    7.7340 c         1 TS2      0.888600
     32 OE6        -5.4410    6.5370    7.6280 o         1 TS2     -0.840800
     33 OE7        -5.3640    4.7290    8.8510 o         1 TS2     -0.840800
     34 N6         -7.3190    4.8830    6.1670 n3        1 TS2     -0.893800
     35 CB6        -5.0650    4.6590    5.3730 c3        1 TS2     -0.076400
     36 CG6        -5.1710    3.4470    4.4000 c3        1 TS2     -0.144400
     37 CD6        -3.7930    3.2090    3.7150 c         1 TS2      0.662100
     38 O6         -2.7720    3.5600    4.2690 o         1 TS2     -0.626100
     39 N1'        -2.7390    4.1400   -3.7420 n         1 TS2     -0.542900
     40 C1'        -2.6960    3.1500   -4.8100 c3        1 TS2      0.090000
     41 C2'        -1.6620    3.6340   -5.9510 c3        1 TS2     -0.109400
     42 N2'         0.4960    2.6720   -6.6560 n3        1 TS2     -0.819200
     43 C3'        -0.9430    2.4010   -6.5440 c3        1 TS2      0.150800
     44 C4'         1.2490    1.3830   -6.7530 c3        1 TS2      0.131800
     45 C5'         2.7630    1.6050   -6.2350 c3        1 TS2     -0.067400
     46 C6'         3.3250    0.2480   -5.6480 c3        1 TS2     -0.114400
     47 C7'         4.0950    0.5290   -4.3520 c3        1 TS2      0.088000
     48 N3'         4.7020   -0.7320   -3.8500 n         1 TS2     -0.549900
     49 HN11        4.7740   -9.8780    3.7830 hn        1 TS2      0.333800
     50 HN12        4.3590   -8.8470    4.8010 hn        1 TS2      0.333800
     51 HA1         2.5440   -8.6530    3.8680 h1        1 TS2      0.041700
     52 HB11        4.2990   -7.5530    1.9800 hc        1 TS2      0.053700
     53 HB12        2.8260   -7.8580    1.4400 hc        1 TS2      0.053700
     54 HG11        2.0200   -6.5760    3.4100 hc        1 TS2      0.077200
     55 HG12        3.5260   -6.0430    3.5310 hc        1 TS2      0.077200
     56 HN2         3.0440   -3.6730    2.9640 hn        1 TS2      0.334500
     57 HA2         1.6950   -3.2640    0.5990 h1        1 TS2      0.114700
     58 HB21        2.2420   -1.7040    2.7960 h1        1 TS2      0.099700
     59 HB22        2.5120   -0.9140    1.4430 h1        1 TS2      0.099700
     60 HN3         3.0660   -1.1340   -0.9750 hn        1 TS2      0.358500
     61 HA31        4.8570   -2.6600   -2.3220 h1        1 TS2      0.081700
     62 HA32        5.5910   -2.0510   -1.0450 h1        1 TS2      0.081700
     63 HN4        -3.3240    4.2790    0.6640 hn        1 TS2      0.330500
     64 HA41       -1.5520    3.9030   -1.2600 h1        1 TS2      0.083200
     65 HA42       -2.5660    5.1450   -1.2880 h1        1 TS2      0.083200
     66 HA5        -1.8020    2.8600    2.2090 h1        1 TS2      0.128700
     67 HN5        -4.4770    2.1860    2.0720 hn        1 TS2      0.323500
     68 HB51       -2.2870    0.6200    3.1520 h1        1 TS2      0.109200
     69 HB52       -2.5130    0.1820    1.6380 h1        1 TS2      0.109200
     70 HA6        -6.0520    3.5230    6.7910 h1        1 TS2      0.041700
     71 HN61       -7.5040    5.6890    6.5600 hn        1 TS2      0.334300
     72 HN62       -7.9320    4.2630    6.4410 hn        1 TS2      0.334300
     73 HB61       -4.1510    4.7260    5.7110 hc        1 TS2      0.053700
     74 HB62       -5.2970    5.4850    4.8920 hc        1 TS2      0.053700
     75 HG61       -5.4270    2.6490    4.9010 hc        1 TS2      0.078700
     76 HG62       -5.8540    3.6370    3.7100 hc        1 TS2      0.078700
     77 HN1'       -2.1030    4.7910   -3.6980 hn        1 TS2      0.342500
     78 H1'1       -2.4030    2.2930   -4.4480 h1        1 TS2      0.060700
     79 H1'2       -3.5950    3.0510   -5.2020 h1        1 TS2      0.060700
     80 H2'1       -1.0050    4.2390   -5.5600 hc        1 TS2      0.048700
     81 H2'2       -2.1540    4.1000   -6.6630 hc        1 TS2      0.048700
     82 HN2'        0.6570    3.1770   -7.4110 hn        1 TS2      0.344800
     83 H3'1       -1.0830    1.6360   -5.9630 h1        1 TS2      0.032700
     84 H3'2       -1.3090    2.2060   -7.4350 h1        1 TS2      0.032700
     85 H4'1        0.8090    0.7040   -6.1980 h1        1 TS2      0.061200
     86 H4'2        1.2640    1.0830   -7.6880 h1        1 TS2      0.061200
     87 H5'1        2.7720    2.2930   -5.5350 hc        1 TS2      0.034200
     88 H5'2        3.3250    1.8930   -6.9840 hc        1 TS2      0.034200
     89 H6'1        3.9260   -0.1640   -6.2990 hc        1 TS2      0.075700
     90 H6'2        2.5860   -0.3550   -5.4630 hc        1 TS2      0.075700
     91 H7'1        3.4840    0.8840   -3.6820 h1        1 TS2      0.046700
     92 H7'2        4.8030    1.1850   -4.5280 h1        1 TS2      0.046700
     93 HN3'        5.2220   -1.2380   -4.4020 hn        1 TS2      0.330500
@<TRIPOS>BOND
     1    1    2 1   
     2    1   49 1   
     3    1   50 1   
     4    2    3 1   
     5    2    6 1   
     6    2   51 1   
     7    3    4 1   
     8    3    5 1   
     9    6    7 1   
    10    6   52 1   
    11    6   53 1   
    12    7    8 1   
    13    7   54 1   
    14    7   55 1   
    15    8    9 2   
    16    8   10 1   
    17   10   11 1   
    18   10   56 1   
    19   11   12 1   
    20   11   14 1   
    21   11   57 1   
    22   12   13 2   
    23   12   16 1   
    24   14   15 1   
    25   14   58 1   
    26   14   59 1   
    27   15   29 1   
    28   16   17 1   
    29   16   60 1   
    30   17   18 1   
    31   17   61 1   
    32   17   62 1   
    33   18   19 2   
    34   18   48 1   
    35   20   21 1   
    36   20   24 1   
    37   20   63 1   
    38   21   22 1   
    39   21   64 1   
    40   21   65 1   
    41   22   23 2   
    42   22   39 1   
    43   24   25 2   
    44   24   26 1   
    45   26   27 1   
    46   26   28 1   
    47   26   66 1   
    48   27   37 1   
    49   27   67 1   
    50   28   29 1   
    51   28   68 1   
    52   28   69 1   
    53   30   31 1   
    54   30   34 1   
    55   30   35 1   
    56   30   70 1   
    57   31   32 1   
    58   31   33 1   
    59   34   71 1   
    60   34   72 1   
    61   35   36 1   
    62   35   73 1   
    63   35   74 1   
    64   36   37 1   
    65   36   75 1   
    66   36   76 1   
    67   37   38 2   
    68   39   40 1   
    69   39   77 1   
    70   40   41 1   
    71   40   78 1   
    72   40   79 1   
    73   41   43 1   
    74   41   80 1   
    75   41   81 1   
    76   42   43 1   
    77   42   44 1   
    78   42   82 1   
    79   43   83 1   
    80   43   84 1   
    81   44   45 1   
    82   44   85 1   
    83   44   86 1   
    84   45   46 1   
    85   45   87 1   
    86   45   88 1   
    87   46   47 1   
    88   46   89 1   
    89   46   90 1   
    90   47   48 1   
    91   47   91 1   
    92   47   92 1   
    93   48   93 1   
@<TRIPOS>SUBSTRUCTURE
     1 TS2         1 TEMP              0 ****  ****    0 ROOT
