@<TRIPOS>MOLECULE
TS2
   93    93     1     0     0
SMALL
bcc


@<TRIPOS>ATOM
      1 N1         -5.8360    0.1850    7.0430 n3        1 TS2     -0.892800
      2 CA1        -4.5130    0.2880    7.6450 c3        1 TS2      0.016500
      3 C1         -4.3270    1.5160    8.6010 c         1 TS2      0.888600
      4 OE1        -5.3530    2.1900    8.8990 o         1 TS2     -0.838800
      5 OE2        -3.1650    1.7440    9.0360 o         1 TS2     -0.838800
      6 CB1        -3.3860    0.3130    6.6110 c3        1 TS2     -0.065400
      7 CG1        -3.3180   -0.9780    5.8240 c3        1 TS2     -0.142400
      8 CD1        -2.0380   -1.0930    5.0260 c         1 TS2      0.669100
      9 O1         -1.2300   -2.0350    5.1840 o         1 TS2     -0.651100
     10 N2         -1.7750   -0.1170    4.0760 n         1 TS2     -0.570900
     11 CA2        -0.5670   -0.1170    3.2990 c3        1 TS2      0.059700
     12 C2          0.6130    0.5530    4.0640 c         1 TS2      0.637100
     13 O2          1.1610    1.5910    3.6330 o         1 TS2     -0.645100
     14 CB2        -0.7070    0.5880    1.9490 c3        1 TS2     -0.023300
     15 SG2        -1.7570   -0.4130    0.9300 ss        1 TS2     -0.157100
     16 N3          1.0230   -0.0640    5.2190 n         1 TS2     -0.553900
     17 CA3         1.9950    0.5000    6.1040 c3        1 TS2      0.027000
     18 C3          3.4500    0.2450    5.6610 c         1 TS2      0.633100
     19 O3          4.1780   -0.5480    6.2910 o         1 TS2     -0.624100
     20 N4          1.3880   -0.1210   -5.1120 n         1 TS2     -0.553900
     21 CA4         2.3440   -0.7760   -5.9510 c3        1 TS2      0.027000
     22 C4          3.8090   -0.5320   -5.5420 c         1 TS2      0.636100
     23 O4          4.5690    0.1390   -6.2700 o         1 TS2     -0.626100
     24 C5          0.9350   -0.6580   -3.9320 c         1 TS2      0.638100
     25 O5          1.4650   -1.6650   -3.4160 o         1 TS2     -0.645100
     26 CA5        -0.2660    0.0660   -3.2540 c3        1 TS2      0.060700
     27 N5         -1.4340    0.0590   -4.0910 n         1 TS2     -0.571900
     28 CB5        -0.4910   -0.5860   -1.8880 c3        1 TS2     -0.023300
     29 SG5        -1.6360    0.4320   -0.9960 ss        1 TS2     -0.159100
     30 CA6        -3.9980   -0.4160   -7.7780 c3        1 TS2      0.016500
     31 C6         -3.7890   -1.6820   -8.6780 c         1 TS2      0.888600
     32 OE6        -4.8140   -2.3370   -9.0190 o         1 TS2     -0.839300
     33 OE7        -2.6090   -1.9580   -9.0280 o         1 TS2     -0.839300
     34 N6         -5.3500   -0.2600   -7.2580 n3        1 TS2     -0.893800
     35 CB6        -2.9320   -0.4280   -6.6820 c3        1 TS2     -0.065400
     36 CG6        -2.8770    0.8890   -5.9370 c3        1 TS2     -0.142400
     37 CD6        -1.6330    1.0070   -5.0830 c         1 TS2      0.669100
     38 O6         -0.7980    1.9270   -5.2360 o         1 TS2     -0.652100
     39 N1'         4.2400   -1.1280   -4.3820 n         1 TS2     -0.568900
     40 C1'         5.5560   -0.9080   -3.8500 c3        1 TS2      0.097000
     41 C2'         5.5840   -0.8010   -2.3260 c3        1 TS2     -0.140400
     42 N2'         7.2270   -0.3750   -0.4450 n3        1 TS2     -0.816200
     43 C3'         6.9680   -0.3400   -1.8670 c3        1 TS2      0.160800
     44 C4'         6.4060    0.5400    0.3270 c3        1 TS2      0.153800
     45 C5'         6.3800    0.2400    1.8260 c3        1 TS2     -0.080400
     46 C6'         5.1710    0.8970    2.4540 c3        1 TS2     -0.100400
     47 C7'         5.1780    0.6970    3.9700 c3        1 TS2      0.092000
     48 N3'         3.9060    0.9660    4.5830 n         1 TS2     -0.565900
     49 HN11       -5.9540    0.9480    6.4000 hn        1 TS2      0.333800
     50 HN12       -6.5080    0.3340    7.7790 hn        1 TS2      0.333800
     51 HA1        -4.3810   -0.6300    8.2880 h1        1 TS2      0.043700
     52 HB11       -3.5270    1.1830    5.9190 hc        1 TS2      0.053200
     53 HB12       -2.4300    0.4810    7.1770 hc        1 TS2      0.053200
     54 HG11       -3.3550   -1.8540    6.5240 hc        1 TS2      0.078200
     55 HG12       -4.1950   -1.0590    5.1290 hc        1 TS2      0.078200
     56 HN2        -2.3540    0.6900    4.0340 hn        1 TS2      0.329500
     57 HA2        -0.2710   -1.2000    3.1150 h1        1 TS2      0.105700
     58 HB21       -1.1310    1.6140    2.0720 h1        1 TS2      0.089200
     59 HB22        0.3080    0.7010    1.4960 h1        1 TS2      0.089200
     60 HN3         0.5860   -0.9190    5.4970 hn        1 TS2      0.355500
     61 HA31        1.8760    0.0310    7.1220 h1        1 TS2      0.085700
     62 HA32        1.8330    1.6130    6.1930 h1        1 TS2      0.085700
     63 HN4         0.9750    0.7220   -5.4550 hn        1 TS2      0.354500
     64 HA41        2.1550   -1.8890   -5.9510 h1        1 TS2      0.086700
     65 HA42        2.2300   -0.3870   -7.0040 h1        1 TS2      0.086700
     66 HA5         0.0460    1.1470   -3.0970 h1        1 TS2      0.104700
     67 HN5        -2.0390   -0.7270   -4.0400 hn        1 TS2      0.330500
     68 HB51        0.4910   -0.6530   -1.3590 h1        1 TS2      0.088700
     69 HB52       -0.8810   -1.6260   -2.0000 h1        1 TS2      0.088700
     70 HA6        -3.8070    0.4750   -8.4450 h1        1 TS2      0.043700
     71 HN61       -5.9830   -0.4230   -8.0240 hn        1 TS2      0.333800
     72 HN62       -5.5220   -0.9940   -6.5930 hn        1 TS2      0.333800
     73 HB61       -1.9500   -0.6380   -7.1860 hc        1 TS2      0.053200
     74 HB62       -3.1330   -1.2690   -5.9680 hc        1 TS2      0.053200
     75 HG61       -3.7840    1.0100   -5.2890 hc        1 TS2      0.077700
     76 HG62       -2.8620    1.7400   -6.6680 hc        1 TS2      0.077700
     77 HN1'        3.5800   -1.6110   -3.8110 hn        1 TS2      0.340500
     78 H1'1        6.2230   -1.7640   -4.1640 h1        1 TS2      0.049200
     79 H1'2        5.9830    0.0340   -4.3040 h1        1 TS2      0.049200
     80 H2'1        4.8060   -0.0720   -1.9790 hc        1 TS2      0.049700
     81 H2'2        5.3350   -1.7960   -1.8730 hc        1 TS2      0.049700
     82 HN2'        7.1200   -1.3120   -0.0990 hn        1 TS2      0.352800
     83 H3'1        7.7470   -0.9930   -2.3560 h1        1 TS2      0.051700
     84 H3'2        7.1320    0.7150   -2.2250 h1        1 TS2      0.051700
     85 H4'1        6.8260    1.5740    0.1680 h1        1 TS2      0.033700
     86 H4'2        5.3380    0.5600   -0.0460 h1        1 TS2      0.033700
     87 H5'1        6.3350   -0.8660    2.0130 hc        1 TS2      0.046200
     88 H5'2        7.3210    0.6180    2.3030 hc        1 TS2      0.046200
     89 H6'1        5.1670    1.9940    2.2200 hc        1 TS2      0.049700
     90 H6'2        4.2390    0.4590    2.0060 hc        1 TS2      0.049700
     91 H7'1        5.4880   -0.3610    4.2140 h1        1 TS2      0.047700
     92 H7'2        5.9530    1.3830    4.4230 h1        1 TS2      0.047700
     93 HN3'        3.2600    1.5350    4.0800 hn        1 TS2      0.338500
@<TRIPOS>BOND
     1    1    2 1   
     2    1   49 1   
     3    1   50 1   
     4    2    3 1   
     5    2    6 1   
     6    2   51 1   
     7    3    4 1   
     8    3    5 1   
     9    6    7 1   
    10    6   52 1   
    11    6   53 1   
    12    7    8 1   
    13    7   54 1   
    14    7   55 1   
    15    8    9 2   
    16    8   10 1   
    17   10   11 1   
    18   10   56 1   
    19   11   12 1   
    20   11   14 1   
    21   11   57 1   
    22   12   13 2   
    23   12   16 1   
    24   14   15 1   
    25   14   58 1   
    26   14   59 1   
    27   15   29 1   
    28   16   17 1   
    29   16   60 1   
    30   17   18 1   
    31   17   61 1   
    32   17   62 1   
    33   18   19 2   
    34   18   48 1   
    35   20   21 1   
    36   20   24 1   
    37   20   63 1   
    38   21   22 1   
    39   21   64 1   
    40   21   65 1   
    41   22   23 2   
    42   22   39 1   
    43   24   25 2   
    44   24   26 1   
    45   26   27 1   
    46   26   28 1   
    47   26   66 1   
    48   27   37 1   
    49   27   67 1   
    50   28   29 1   
    51   28   68 1   
    52   28   69 1   
    53   30   31 1   
    54   30   34 1   
    55   30   35 1   
    56   30   70 1   
    57   31   32 1   
    58   31   33 1   
    59   34   71 1   
    60   34   72 1   
    61   35   36 1   
    62   35   73 1   
    63   35   74 1   
    64   36   37 1   
    65   36   75 1   
    66   36   76 1   
    67   37   38 2   
    68   39   40 1   
    69   39   77 1   
    70   40   41 1   
    71   40   78 1   
    72   40   79 1   
    73   41   43 1   
    74   41   80 1   
    75   41   81 1   
    76   42   43 1   
    77   42   44 1   
    78   42   82 1   
    79   43   83 1   
    80   43   84 1   
    81   44   45 1   
    82   44   85 1   
    83   44   86 1   
    84   45   46 1   
    85   45   87 1   
    86   45   88 1   
    87   46   47 1   
    88   46   89 1   
    89   46   90 1   
    90   47   48 1   
    91   47   91 1   
    92   47   92 1   
    93   48   93 1   
@<TRIPOS>SUBSTRUCTURE
     1 TS2         1 TEMP              0 ****  ****    0 ROOT
