@<TRIPOS>MOLECULE
TS2
   93    93     1     0     0
SMALL
bcc


@<TRIPOS>ATOM
      1 N1          1.5480   -1.6330   -2.1280 n3        1 TS2     -0.892800
      2 CA1         1.0090   -0.4920   -1.4000 c3        1 TS2      0.016500
      3 C1         -0.5400   -0.5410   -1.1670 c         1 TS2      0.888600
      4 OE1        -1.1470   -1.6080   -1.4690 o         1 TS2     -0.839300
      5 OE2        -1.0860    0.4810   -0.6690 o         1 TS2     -0.839300
      6 CB1         1.3510    0.8500   -2.0510 c3        1 TS2     -0.066400
      7 CG1         2.8440    1.1000   -2.0660 c3        1 TS2     -0.142400
      8 CD1         3.1890    2.5340   -2.4020 c         1 TS2      0.669100
      9 O1          3.9050    3.2420   -1.6580 o         1 TS2     -0.652100
     10 N2          2.7050    3.0600   -3.5900 n         1 TS2     -0.570900
     11 CA2         2.9630    4.4170   -3.9850 c3        1 TS2      0.059700
     12 C2          1.9540    5.4110   -3.3390 c         1 TS2      0.638100
     13 O2          1.1690    6.0900   -4.0360 o         1 TS2     -0.644100
     14 CB2         2.9230    4.6290   -5.5000 c3        1 TS2     -0.025300
     15 SG2         4.3850    3.8900   -6.1790 ss        1 TS2     -0.156100
     16 N3          1.9860    5.5130   -1.9700 n         1 TS2     -0.553900
     17 CA3         1.0310    6.2720   -1.2240 c3        1 TS2      0.026000
     18 C3          1.3550    7.7760   -1.1290 c         1 TS2      0.636100
     19 O3          1.6250    8.2980   -0.0280 o         1 TS2     -0.628100
     20 N4          6.0550    8.8730  -10.4830 n         1 TS2     -0.552900
     21 CA4         6.6290   10.1810  -10.5400 c3        1 TS2      0.026000
     22 C4          5.7210   11.3100  -10.0150 c         1 TS2      0.635100
     23 O4          5.4220   12.2700  -10.7550 o         1 TS2     -0.628100
     24 C5          6.0960    8.0910   -9.3550 c         1 TS2      0.639100
     25 O5          6.5250    8.5300   -8.2660 o         1 TS2     -0.645100
     26 CA5         5.5610    6.6360   -9.4920 c3        1 TS2      0.060700
     27 N5          6.2880    5.8810  -10.4750 n         1 TS2     -0.571900
     28 CB5         5.5770    5.9960   -8.1020 c3        1 TS2     -0.025300
     29 SG5         4.4960    4.5930   -8.1600 ss        1 TS2     -0.161100
     30 CA6         9.0580    4.8410  -13.8790 c3        1 TS2      0.015500
     31 C6         10.4920    5.4730  -13.8950 c         1 TS2      0.888600
     32 OE6        11.4740    4.6990  -14.0790 o         1 TS2     -0.839300
     33 OE7        10.5790    6.7220  -13.7460 o         1 TS2     -0.839300
     34 N6          9.0390    3.3840  -13.8820 n3        1 TS2     -0.893800
     35 CB6         8.2810    5.4480  -12.7090 c3        1 TS2     -0.065400
     36 CG6         6.8080    5.1090  -12.7800 c3        1 TS2     -0.142400
     37 CD6         5.9780    5.9390  -11.8250 c         1 TS2      0.669100
     38 O6          5.0240    6.6520  -12.2110 o         1 TS2     -0.652100
     39 N1'         5.2700   11.2070   -8.7200 n         1 TS2     -0.564900
     40 C1'         4.4630   12.2140   -8.0950 c3        1 TS2      0.086000
     41 C2'         5.2070   13.1010   -7.0910 c3        1 TS2     -0.108400
     42 N2'         3.8710   13.4760   -4.9950 n3        1 TS2     -0.826200
     43 C3'         4.2240   13.9730   -6.3100 c3        1 TS2      0.172800
     44 C4'         3.2570   12.1640   -4.9880 c3        1 TS2      0.156800
     45 C5'         2.7240   11.7480   -3.6180 c3        1 TS2     -0.080400
     46 C6'         2.3190   10.2910   -3.6580 c3        1 TS2     -0.099400
     47 C7'         1.6300    9.8960   -2.3510 c3        1 TS2      0.094000
     48 N3'         1.2830    8.5040   -2.2910 n         1 TS2     -0.568900
     49 HN11        1.1430   -2.4610   -1.7230 hn        1 TS2      0.333800
     50 HN12        1.2130   -1.5930   -3.0750 hn        1 TS2      0.333800
     51 HA1         1.4790   -0.5150   -0.3740 h1        1 TS2      0.043700
     52 HB11        0.8230    1.6430   -1.4560 hc        1 TS2      0.052700
     53 HB12        0.9410    0.8780   -3.0940 hc        1 TS2      0.052700
     54 HG11        3.3460    0.4230   -2.8070 hc        1 TS2      0.078200
     55 HG12        3.2780    0.8800   -1.0540 hc        1 TS2      0.078200
     56 HN2         2.0370    2.5430   -4.1130 hn        1 TS2      0.330500
     57 HA2         3.9970    4.7000   -3.6060 h1        1 TS2      0.106700
     58 HB21        2.0040    4.1800   -5.9490 h1        1 TS2      0.090200
     59 HB22        2.8930    5.7260   -5.7100 h1        1 TS2      0.090200
     60 HN3         2.6640    4.9880   -1.4570 hn        1 TS2      0.355500
     61 HA31        0.9990    5.8790   -0.1670 h1        1 TS2      0.085700
     62 HA32        0.0070    6.1620   -1.6860 h1        1 TS2      0.085700
     63 HN4         5.6330    8.5140  -11.3150 hn        1 TS2      0.355500
     64 HA41        7.5830   10.2050   -9.9360 h1        1 TS2      0.087200
     65 HA42        6.8680   10.4270  -11.6140 h1        1 TS2      0.087200
     66 HA5         4.4820    6.7190   -9.8420 h1        1 TS2      0.106700
     67 HN5         7.1110    5.4080  -10.1840 hn        1 TS2      0.330500
     68 HB51        5.2180    6.7470   -7.3540 h1        1 TS2      0.090200
     69 HB52        6.6100    5.6970   -7.8020 h1        1 TS2      0.090200
     70 HA6         8.5630    5.1700  -14.8390 h1        1 TS2      0.043700
     71 HN61        9.6970    3.0810  -14.5820 hn        1 TS2      0.333800
     72 HN62        9.3990    3.0590  -13.0010 hn        1 TS2      0.333800
     73 HB61        8.4340    6.5600  -12.7590 hc        1 TS2      0.053200
     74 HB62        8.7170    5.0890  -11.7400 hc        1 TS2      0.053200
     75 HG61        6.4210    5.3060  -13.8160 hc        1 TS2      0.078200
     76 HG62        6.6450    4.0220  -12.5570 hc        1 TS2      0.078200
     77 HN1'        5.6420   10.4890   -8.1380 hn        1 TS2      0.338500
     78 H1'1        4.0170   12.8710   -8.8970 h1        1 TS2      0.054700
     79 H1'2        3.6180   11.6920   -7.5590 h1        1 TS2      0.054700
     80 H2'1        5.9080   13.7750   -7.6480 hc        1 TS2      0.057200
     81 H2'2        5.8280   12.4790   -6.3970 hc        1 TS2      0.057200
     82 HN2'        3.2760   14.1400   -4.5350 hn        1 TS2      0.353800
     83 H3'1        3.3100   14.1480   -6.9550 h1        1 TS2      0.024200
     84 H3'2        4.7070   14.9800   -6.1410 h1        1 TS2      0.024200
     85 H4'1        4.0470   11.4250   -5.3090 h1        1 TS2      0.033200
     86 H4'2        2.4080   12.0890   -5.7320 h1        1 TS2      0.033200
     87 H5'1        1.8430   12.3850   -3.3420 hc        1 TS2      0.045700
     88 H5'2        3.5080   11.9000   -2.8310 hc        1 TS2      0.045700
     89 H6'1        1.6260   10.1120   -4.5220 hc        1 TS2      0.050700
     90 H6'2        3.2280    9.6550   -3.8230 hc        1 TS2      0.050700
     91 H7'1        0.6890   10.5120   -2.2390 h1        1 TS2      0.047200
     92 H7'2        2.3020   10.1470   -1.4790 h1        1 TS2      0.047200
     93 HN3'        1.0840    8.0350   -3.1480 hn        1 TS2      0.340500
@<TRIPOS>BOND
     1    1    2 1   
     2    1   49 1   
     3    1   50 1   
     4    2    3 1   
     5    2    6 1   
     6    2   51 1   
     7    3    4 1   
     8    3    5 1   
     9    6    7 1   
    10    6   52 1   
    11    6   53 1   
    12    7    8 1   
    13    7   54 1   
    14    7   55 1   
    15    8    9 2   
    16    8   10 1   
    17   10   11 1   
    18   10   56 1   
    19   11   12 1   
    20   11   14 1   
    21   11   57 1   
    22   12   13 2   
    23   12   16 1   
    24   14   15 1   
    25   14   58 1   
    26   14   59 1   
    27   15   29 1   
    28   16   17 1   
    29   16   60 1   
    30   17   18 1   
    31   17   61 1   
    32   17   62 1   
    33   18   19 2   
    34   18   48 1   
    35   20   21 1   
    36   20   24 1   
    37   20   63 1   
    38   21   22 1   
    39   21   64 1   
    40   21   65 1   
    41   22   23 2   
    42   22   39 1   
    43   24   25 2   
    44   24   26 1   
    45   26   27 1   
    46   26   28 1   
    47   26   66 1   
    48   27   37 1   
    49   27   67 1   
    50   28   29 1   
    51   28   68 1   
    52   28   69 1   
    53   30   31 1   
    54   30   34 1   
    55   30   35 1   
    56   30   70 1   
    57   31   32 1   
    58   31   33 1   
    59   34   71 1   
    60   34   72 1   
    61   35   36 1   
    62   35   73 1   
    63   35   74 1   
    64   36   37 1   
    65   36   75 1   
    66   36   76 1   
    67   37   38 2   
    68   39   40 1   
    69   39   77 1   
    70   40   41 1   
    71   40   78 1   
    72   40   79 1   
    73   41   43 1   
    74   41   80 1   
    75   41   81 1   
    76   42   43 1   
    77   42   44 1   
    78   42   82 1   
    79   43   83 1   
    80   43   84 1   
    81   44   45 1   
    82   44   85 1   
    83   44   86 1   
    84   45   46 1   
    85   45   87 1   
    86   45   88 1   
    87   46   47 1   
    88   46   89 1   
    89   46   90 1   
    90   47   48 1   
    91   47   91 1   
    92   47   92 1   
    93   48   93 1   
@<TRIPOS>SUBSTRUCTURE
     1 TS2         1 TEMP              0 ****  ****    0 ROOT
