@<TRIPOS>MOLECULE
TS3
   95    94     1     0     0
SMALL
bcc


@<TRIPOS>ATOM
      1 N1          0.6810    0.7940   -2.1610 n3        1 TS3     -0.886800
      2 CA1         1.1670    1.4820   -3.3500 c3        1 TS3      0.016500
      3 C1          1.4270    0.5470   -4.5730 c         1 TS3      0.890600
      4 OE1         1.4210   -0.7000   -4.4040 o         1 TS3     -0.843800
      5 OE2         1.6200    1.1130   -5.6940 o         1 TS3     -0.843800
      6 CB1         2.4410    2.2980   -3.0850 c3        1 TS3     -0.066400
      7 CG1         2.1690    3.7800   -2.9390 c3        1 TS3     -0.140400
      8 CD1         2.2580    4.5770   -4.2280 c         1 TS3      0.656100
      9 O1          2.7150    5.7470   -4.2090 o         1 TS3     -0.681100
     10 N2          1.7710    4.0250   -5.3890 n         1 TS3     -0.556900
     11 CA2         2.0030    4.6380   -6.6720 c3        1 TS3      0.052700
     12 C2          0.8990    5.6680   -7.0360 c         1 TS3      0.649100
     13 O2          0.2540    5.6000   -8.1050 o         1 TS3     -0.649100
     14 CB2         2.0940    3.6140   -7.8080 c3        1 TS3      0.024700
     15 SG2         3.6070    2.7020   -7.7810 sh        1 TS3     -0.483900
     16 N3          0.6770    6.6930   -6.1440 n         1 TS3     -0.563900
     17 CA3        -0.3520    7.6640   -6.3300 c3        1 TS3      0.029000
     18 C3          0.0160    8.8590   -7.2300 c         1 TS3      0.631100
     19 O3         -0.1130   10.0240   -6.7980 o         1 TS3     -0.634100
     20 N4         -3.5630   17.5220  -18.6110 n         1 TS3     -0.563900
     21 CA4        -3.3980   17.6260  -17.1970 c3        1 TS3      0.029000
     22 C4         -3.5750   16.3150  -16.4080 c         1 TS3      0.631100
     23 O4         -4.4000   16.2600  -15.4720 o         1 TS3     -0.633100
     24 C5         -2.5410   17.1380  -19.4500 c         1 TS3      0.648100
     25 O5         -1.4370   16.7740  -18.9880 o         1 TS3     -0.649100
     26 CA         -2.8360   17.1410  -20.9740 c3        1 TS3      0.052700
     27 N5         -3.2880   18.4280  -21.4370 n         1 TS3     -0.556900
     28 CB         -1.5790   16.6590  -21.7050 c3        1 TS3      0.024700
     29 SG         -1.9130   16.1360  -23.3600 sh        1 TS3     -0.483900
     30 CA6        -3.0870   21.2040  -23.2370 c3        1 TS3      0.016500
     31 C6         -1.9020   20.5290  -23.9950 c         1 TS3      0.890600
     32 OE6        -1.3800   21.1240  -24.9720 o         1 TS3     -0.843800
     33 OE7        -1.5180   19.3970  -23.5630 o         1 TS3     -0.843800
     34 N6         -3.3060   22.6010  -23.5880 n3        1 TS3     -0.886800
     35 CB6        -4.3420   20.3400  -23.4310 c3        1 TS3     -0.066400
     36 CG6        -5.0580   20.0440  -22.1300 c3        1 TS3     -0.140400
     37 CD6        -4.6210   18.7670  -21.4350 c         1 TS3      0.656100
     38 O6         -5.4660   18.0720  -20.8170 o         1 TS3     -0.681100
     39 N1'        -2.7990   15.2400  -16.7730 n         1 TS3     -0.559900
     40 C1'        -2.8090   14.0020  -16.0480 c3        1 TS3      0.089000
     41 C2'        -1.6160   13.8010  -15.1090 c3        1 TS3     -0.112400
     42 N2'        -0.6820   12.1710  -13.4790 n3        1 TS3     -0.823200
     43 C3'        -1.7830   12.4730  -14.3740 c3        1 TS3      0.165800
     44 C4'        -0.9820   11.0890  -12.5610 c3        1 TS3      0.163800
     45 C5'         0.0800   10.9100  -11.4770 c3        1 TS3     -0.081400
     46 C6'        -0.3060    9.7770  -10.5510 c3        1 TS3     -0.105400
     47 C7'         0.7520    9.6170   -9.4560 c3        1 TS3      0.088000
     48 N3'         0.4740    8.5860   -8.4970 n         1 TS3     -0.559900
     49 HN11        1.3990    0.1690   -1.8390 hn        1 TS3      0.335800
     50 HN12       -0.0910    0.2140   -2.4420 hn        1 TS3      0.335800
     51 HA1         0.3390    2.1840   -3.6650 h1        1 TS3      0.046700
     52 HB11        3.1630    2.1220   -3.9270 hc        1 TS3      0.050700
     53 HB12        2.9490    1.9420   -2.1490 hc        1 TS3      0.050700
     54 HG11        2.9170    4.2340   -2.2350 hc        1 TS3      0.066200
     55 HG12        1.1490    3.9500   -2.5020 hc        1 TS3      0.066200
     56 HN2         1.5080    3.0470   -5.3990 hn        1 TS3      0.382500
     57 HA2         2.9740    5.2260   -6.6330 h1        1 TS3      0.088700
     58 HB21        2.0770    4.1610   -8.7840 h1        1 TS3      0.096200
     59 HB22        1.2190    2.9180   -7.7790 h1        1 TS3      0.096200
     60 HS2         3.2480    1.7030   -6.9400 hs        1 TS3      0.313800
     61 HN3         1.2900    6.8030   -5.3630 hn        1 TS3      0.353500
     62 HA31       -0.6340    8.0940   -5.3270 h1        1 TS3      0.076700
     63 HA32       -1.2580    7.1710   -6.7890 h1        1 TS3      0.076700
     64 HN4        -4.4730   17.6810  -18.9900 hn        1 TS3      0.353500
     65 HA41       -4.1630   18.3490  -16.7930 h1        1 TS3      0.077200
     66 HA42       -2.3640   18.0150  -16.9650 h1        1 TS3      0.077200
     67 HA         -3.6630   16.3780  -21.1300 h1        1 TS3      0.088700
     68 HN5        -2.6490   18.9440  -22.0290 hn        1 TS3      0.382500
     69 HB1        -1.1760   15.7630  -21.1700 h1        1 TS3      0.096700
     70 HB2        -0.7930   17.4550  -21.6990 h1        1 TS3      0.096700
     71 HSG        -1.7990   17.3270  -23.9950 hs        1 TS3      0.313800
     72 HA6        -2.8010   21.1980  -22.1430 h1        1 TS3      0.046700
     73 HN61       -3.5810   22.6480  -24.5540 hn        1 TS3      0.335800
     74 HN62       -2.4190   23.0710  -23.5240 hn        1 TS3      0.335800
     75 HB61       -4.0440   19.3800  -23.9320 hc        1 TS3      0.050700
     76 HB62       -5.0670   20.8480  -24.1210 hc        1 TS3      0.050700
     77 HG61       -6.1600   19.9380  -22.3200 hc        1 TS3      0.066200
     78 HG62       -4.9200   20.8900  -21.4060 hc        1 TS3      0.066200
     79 HN1'       -2.0670   15.3810  -17.4370 hn        1 TS3      0.338500
     80 H1'1       -3.7610   13.9450  -15.4460 h1        1 TS3      0.056700
     81 H1'2       -2.8170   13.1600  -16.8010 h1        1 TS3      0.056700
     82 H2'1       -0.6600   13.8020  -15.6930 hc        1 TS3      0.052200
     83 H2'2       -1.5650   14.6450  -14.3720 hc        1 TS3      0.052200
     84 HN2'       -0.4010   12.9920  -12.9760 hn        1 TS3      0.354800
     85 H3'1       -2.7770   12.4910  -13.8330 h1        1 TS3      0.029700
     86 H3'2       -1.8340   11.6370  -15.1280 h1        1 TS3      0.029700
     87 H4'1       -1.9850   11.2260  -12.0550 h1        1 TS3      0.028700
     88 H4'2       -1.0470   10.1430  -13.1700 h1        1 TS3      0.028700
     89 H5'1        0.1880   11.8570  -10.8840 hc        1 TS3      0.046700
     90 H5'2        1.0740   10.6950  -11.9490 hc        1 TS3      0.046700
     91 H6'1       -1.3050    9.9890  -10.0880 hc        1 TS3      0.047200
     92 H6'2       -0.4020    8.8250  -11.1350 hc        1 TS3      0.047200
     93 H7'1        1.7400    9.3770   -9.9470 h1        1 TS3      0.056700
     94 H7'2        0.8610   10.5990   -8.9100 h1        1 TS3      0.056700
     95 HN3'        0.4330    7.6460   -8.8290 hn        1 TS3      0.337500
@<TRIPOS>BOND
     1    1    2 1   
     2    1   49 1   
     3    1   50 1   
     4    2    3 1   
     5    2    6 1   
     6    2   51 1   
     7    3    4 1   
     8    3    5 1   
     9    6    7 1   
    10    6   52 1   
    11    6   53 1   
    12    7    8 1   
    13    7   54 1   
    14    7   55 1   
    15    8    9 2   
    16    8   10 1   
    17   10   11 1   
    18   10   56 1   
    19   11   12 1   
    20   11   14 1   
    21   11   57 1   
    22   12   13 2   
    23   12   16 1   
    24   14   15 1   
    25   14   58 1   
    26   14   59 1   
    27   15   60 1   
    28   16   17 1   
    29   16   61 1   
    30   17   18 1   
    31   17   62 1   
    32   17   63 1   
    33   18   19 2   
    34   18   48 1   
    35   20   21 1   
    36   20   24 1   
    37   20   64 1   
    38   21   22 1   
    39   21   65 1   
    40   21   66 1   
    41   22   23 2   
    42   22   39 1   
    43   24   25 2   
    44   24   26 1   
    45   26   27 1   
    46   26   28 1   
    47   26   67 1   
    48   27   37 1   
    49   27   68 1   
    50   28   29 1   
    51   28   69 1   
    52   28   70 1   
    53   29   71 1   
    54   30   31 1   
    55   30   34 1   
    56   30   35 1   
    57   30   72 1   
    58   31   32 1   
    59   31   33 1   
    60   34   73 1   
    61   34   74 1   
    62   35   36 1   
    63   35   75 1   
    64   35   76 1   
    65   36   37 1   
    66   36   77 1   
    67   36   78 1   
    68   37   38 2   
    69   39   40 1   
    70   39   79 1   
    71   40   41 1   
    72   40   80 1   
    73   40   81 1   
    74   41   43 1   
    75   41   82 1   
    76   41   83 1   
    77   42   43 1   
    78   42   44 1   
    79   42   84 1   
    80   43   85 1   
    81   43   86 1   
    82   44   45 1   
    83   44   87 1   
    84   44   88 1   
    85   45   46 1   
    86   45   89 1   
    87   45   90 1   
    88   46   47 1   
    89   46   91 1   
    90   46   92 1   
    91   47   48 1   
    92   47   93 1   
    93   47   94 1   
    94   48   95 1   
@<TRIPOS>SUBSTRUCTURE
     1 TS3         1 TEMP              0 ****  ****    0 ROOT
