@<TRIPOS>MOLECULE
TS3
   95    94     1     0     0
SMALL
bcc


@<TRIPOS>ATOM
      1 N1          1.8340    0.3640   15.2760 n3        1 TS3     -0.886800
      2 CA1         1.1040    0.7430   14.0730 c3        1 TS3      0.016500
      3 C1          0.9690    2.2830   13.8610 c         1 TS3      0.890600
      4 OE1         1.2810    3.0610   14.7990 o         1 TS3     -0.843800
      5 OE2         0.5560    2.6680   12.7230 o         1 TS3     -0.843800
      6 CB1        -0.3000    0.1200   14.0110 c3        1 TS3     -0.066400
      7 CG1        -0.3720   -1.0750   13.0850 c3        1 TS3     -0.140400
      8 CD1        -0.7520   -0.7510   11.6520 c         1 TS3      0.656100
      9 O1         -1.4670   -1.5520   10.9980 o         1 TS3     -0.681100
     10 N2         -0.2470    0.3870   11.0680 n         1 TS3     -0.556900
     11 CA2        -0.7230    0.8550    9.7900 c3        1 TS3      0.052700
     12 C2          0.0740    0.2390    8.6080 c         1 TS3      0.649100
     13 O2          0.6260    0.9480    7.7380 o         1 TS3     -0.649100
     14 CB2        -0.6650    2.3800    9.6610 c3        1 TS3      0.024700
     15 SG2        -1.9150    3.1900   10.6130 sh        1 TS3     -0.483900
     16 N3          0.1230   -1.1350    8.5310 n         1 TS3     -0.563900
     17 CA3         0.8770   -1.8220    7.5330 c3        1 TS3      0.029000
     18 C3          0.1660   -2.0200    6.1800 c         1 TS3      0.631100
     19 O3          0.0530   -3.1670    5.7010 o         1 TS3     -0.634100
     20 N4          0.6570   -0.8310   -8.5070 n         1 TS3     -0.563900
     21 CA4         0.5890   -1.8570   -7.5180 c3        1 TS3      0.029000
     22 C4          1.1340   -1.4790   -6.1270 c         1 TS3      0.631100
     23 O4          2.0230   -2.1790   -5.5980 o         1 TS3     -0.633100
     24 C5         -0.3130    0.1390   -8.6350 c         1 TS3      0.648100
     25 O5         -1.2580    0.2100   -7.8200 o         1 TS3     -0.649100
     26 CA         -0.1530    1.1510   -9.8030 c3        1 TS3      0.052700
     27 N5         -0.0550    0.4930  -11.0810 n         1 TS3     -0.556900
     28 CB         -1.3180    2.1430   -9.7370 c3        1 TS3      0.024700
     29 SG         -1.0080    3.6160  -10.6620 sh        1 TS3     -0.483900
     30 CA6        -1.0500   -0.2390  -14.1570 c3        1 TS3      0.016500
     31 C6         -2.1020    0.9030  -14.0000 c         1 TS3      0.890600
     32 OE6        -2.8290    1.2070  -14.9810 o         1 TS3     -0.843800
     33 OE7        -2.1730    1.4620  -12.8610 o         1 TS3     -0.843800
     34 N6         -1.1950   -1.0250  -15.3750 n3        1 TS3     -0.886800
     35 CB6         0.3520    0.3700  -14.0060 c3        1 TS3     -0.066400
     36 CG6         1.2220   -0.3940  -13.0310 c3        1 TS3     -0.140400
     37 CD6         1.1560    0.0950  -11.5960 c         1 TS3      0.656100
     38 O6          2.1890    0.0720  -10.8790 o         1 TS3     -0.681100
     39 N1'         0.6040   -0.3680   -5.5150 n         1 TS3     -0.559900
     40 C1'         0.9650    0.0210   -4.1820 c3        1 TS3      0.089000
     41 C2'        -0.0660   -0.3430   -3.1090 c3        1 TS3     -0.112400
     42 N2'        -0.4520   -0.1840   -0.6570 n3        1 TS3     -0.823200
     43 C3'         0.4690    0.0860   -1.7440 c3        1 TS3      0.165800
     44 C4'         0.1670   -0.0730    0.6500 c3        1 TS3      0.163800
     45 C5'        -0.7290   -0.5680    1.7840 c3        1 TS3     -0.081400
     46 C6'        -0.0130   -0.4340    3.1100 c3        1 TS3     -0.105400
     47 C7'        -0.9100   -0.9500    4.2390 c3        1 TS3      0.088000
     48 N3'        -0.3190   -0.9010    5.5460 n         1 TS3     -0.559900
     49 HN11        1.3120    0.6730   16.0770 hn        1 TS3      0.335800
     50 HN12        2.6950    0.8840   15.2820 hn        1 TS3      0.335800
     51 HA1         1.7150    0.3590   13.2030 h1        1 TS3      0.046700
     52 HB11       -0.6300   -0.2090   15.0330 hc        1 TS3      0.050700
     53 HB12       -1.0280    0.9080   13.6790 hc        1 TS3      0.050700
     54 HG11        0.6130   -1.6130   13.0630 hc        1 TS3      0.066200
     55 HG12       -1.1440   -1.7990   13.4600 hc        1 TS3      0.066200
     56 HN2         0.2350    1.0650   11.6440 hn        1 TS3      0.382500
     57 HA2        -1.7980    0.5170    9.6470 h1        1 TS3      0.088700
     58 HB21        0.3480    2.7600    9.9450 h1        1 TS3      0.096200
     59 HB22       -0.8580    2.6560    8.5950 h1        1 TS3      0.096200
     60 HS2        -1.2630    3.2870   11.7960 hs        1 TS3      0.313800
     61 HN3        -0.4310   -1.6800    9.1580 hn        1 TS3      0.353500
     62 HA31        1.8320   -1.2570    7.3250 h1        1 TS3      0.076700
     63 HA32        1.1330   -2.8520    7.9140 h1        1 TS3      0.076700
     64 HN4         1.4700   -0.7890   -9.0850 hn        1 TS3      0.353500
     65 HA41        1.1940   -2.7420   -7.8690 h1        1 TS3      0.077200
     66 HA42       -0.4850   -2.1760   -7.3780 h1        1 TS3      0.077200
     67 HA          0.8140    1.7100   -9.5970 h1        1 TS3      0.088700
     68 HN5        -0.8450    0.6030  -11.7050 hn        1 TS3      0.382500
     69 HB1        -2.2660    1.6590  -10.0810 h1        1 TS3      0.096700
     70 HB2        -1.4540    2.4650   -8.6740 h1        1 TS3      0.096700
     71 HSG        -1.4510    3.2120  -11.8770 hs        1 TS3      0.313800
     72 HA6        -1.2350   -0.9530  -13.3000 h1        1 TS3      0.046700
     73 HN61       -2.1590   -1.3040  -15.4410 hn        1 TS3      0.335800
     74 HN62       -1.0200   -0.4270  -16.1630 hn        1 TS3      0.335800
     75 HB61        0.2470    1.4370  -13.6720 hc        1 TS3      0.050700
     76 HB62        0.8780    0.3960  -14.9980 hc        1 TS3      0.050700
     77 HG61        2.2990   -0.3150  -13.3420 hc        1 TS3      0.066200
     78 HG62        0.9500   -1.4830  -13.0330 hc        1 TS3      0.066200
     79 HN1'       -0.1920    0.0710   -5.9250 hn        1 TS3      0.338500
     80 H1'1        1.1080    1.1410   -4.1750 h1        1 TS3      0.056700
     81 H1'2        1.9500   -0.4620   -3.9200 h1        1 TS3      0.056700
     82 H2'1       -0.2520   -1.4480   -3.1190 hc        1 TS3      0.052200
     83 H2'2       -1.0400    0.1680   -3.3200 hc        1 TS3      0.052200
     84 HN2'       -0.8760   -1.0870   -0.7700 hn        1 TS3      0.354800
     85 H3'1        0.6520    1.1990   -1.7520 h1        1 TS3      0.029700
     86 H3'2        1.4720   -0.4130   -1.5850 h1        1 TS3      0.029700
     87 H4'1        0.4020    1.0160    0.8160 h1        1 TS3      0.028700
     88 H4'2        1.1490   -0.6340    0.7040 h1        1 TS3      0.028700
     89 H5'1       -1.0070   -1.6410    1.6150 hc        1 TS3      0.046700
     90 H5'2       -1.6810    0.0260    1.8030 hc        1 TS3      0.046700
     91 H6'1        0.2550    0.6390    3.2910 hc        1 TS3      0.047200
     92 H6'2        0.9430   -1.0190    3.0840 hc        1 TS3      0.047200
     93 H7'1       -1.2000   -2.0170    4.0130 h1        1 TS3      0.056700
     94 H7'2       -1.8510   -0.3270    4.2600 h1        1 TS3      0.056700
     95 HN3'       -0.0860   -0.0030    5.9130 hn        1 TS3      0.337500
@<TRIPOS>BOND
     1    1    2 1   
     2    1   49 1   
     3    1   50 1   
     4    2    3 1   
     5    2    6 1   
     6    2   51 1   
     7    3    4 1   
     8    3    5 1   
     9    6    7 1   
    10    6   52 1   
    11    6   53 1   
    12    7    8 1   
    13    7   54 1   
    14    7   55 1   
    15    8    9 2   
    16    8   10 1   
    17   10   11 1   
    18   10   56 1   
    19   11   12 1   
    20   11   14 1   
    21   11   57 1   
    22   12   13 2   
    23   12   16 1   
    24   14   15 1   
    25   14   58 1   
    26   14   59 1   
    27   15   60 1   
    28   16   17 1   
    29   16   61 1   
    30   17   18 1   
    31   17   62 1   
    32   17   63 1   
    33   18   19 2   
    34   18   48 1   
    35   20   21 1   
    36   20   24 1   
    37   20   64 1   
    38   21   22 1   
    39   21   65 1   
    40   21   66 1   
    41   22   23 2   
    42   22   39 1   
    43   24   25 2   
    44   24   26 1   
    45   26   27 1   
    46   26   28 1   
    47   26   67 1   
    48   27   37 1   
    49   27   68 1   
    50   28   29 1   
    51   28   69 1   
    52   28   70 1   
    53   29   71 1   
    54   30   31 1   
    55   30   34 1   
    56   30   35 1   
    57   30   72 1   
    58   31   32 1   
    59   31   33 1   
    60   34   73 1   
    61   34   74 1   
    62   35   36 1   
    63   35   75 1   
    64   35   76 1   
    65   36   37 1   
    66   36   77 1   
    67   36   78 1   
    68   37   38 2   
    69   39   40 1   
    70   39   79 1   
    71   40   41 1   
    72   40   80 1   
    73   40   81 1   
    74   41   43 1   
    75   41   82 1   
    76   41   83 1   
    77   42   43 1   
    78   42   44 1   
    79   42   84 1   
    80   43   85 1   
    81   43   86 1   
    82   44   45 1   
    83   44   87 1   
    84   44   88 1   
    85   45   46 1   
    86   45   89 1   
    87   45   90 1   
    88   46   47 1   
    89   46   91 1   
    90   46   92 1   
    91   47   48 1   
    92   47   93 1   
    93   47   94 1   
    94   48   95 1   
@<TRIPOS>SUBSTRUCTURE
     1 TS3         1 TEMP              0 ****  ****    0 ROOT
