@<TRIPOS>MOLECULE
TS3
  104   103     1     0     0
SMALL
bcc


@<TRIPOS>ATOM
      1 N1          0.0000    0.0000    0.0000 nz        1 TS3      0.080400
      2 CA1         1.4690    0.0000    0.0000 c3        1 TS3     -0.185500
      3 C1          1.9710    0.0000    1.4210 c         1 TS3      0.938600
      4 OE1         1.3180    0.5240    2.2920 o         1 TS3     -0.552300
      5 OE2         3.1430   -0.5810    1.7190 o         1 TS3     -0.552300
      6 CB1         1.9790    1.2480   -0.7220 c3        1 TS3     -0.015400
      7 CG1         1.4700    1.2480   -2.1640 c3        1 TS3     -0.094400
      8 CD1         1.9730    2.4770   -2.8760 c         1 TS3      0.320100
      9 O1          2.6700    3.2750   -2.2870 o         1 TS3     -0.342100
     10 N2          1.6470    2.6900   -4.1660 ny        1 TS3      0.156200
     11 CA2         2.1360    3.8850   -4.8570 c3        1 TS3     -0.054500
     12 C2          1.1440    4.2950   -5.9150 c         1 TS3      0.221100
     13 O2          0.1280    3.6520   -6.0760 o         1 TS3     -0.466100
     14 CB2         3.4840    3.5790   -5.5130 c3        1 TS3      0.002700
     15 SG2         4.6780    3.0850   -4.2410 sh        1 TS3     -0.301900
     16 N3          1.3850    5.3760   -6.6830 ny        1 TS3      0.233200
     17 CA3         0.4210    5.7750   -7.7110 c3        1 TS3     -0.056200
     18 C3          0.9240    7.0050   -8.4210 c         1 TS3      0.222100
     19 O3          1.9830    7.4990   -8.1020 o         1 TS3     -0.453100
     20 N4         -2.8410   17.2470  -19.9730 ny        1 TS3      0.229200
     21 CA4        -1.8350   16.9040  -18.9640 c3        1 TS3     -0.045200
     22 C4         -2.2790   15.6760  -18.2110 c         1 TS3      0.180100
     23 O4         -3.3300   15.1400  -18.4910 o         1 TS3     -0.472100
     24 C5         -2.6560   18.3180  -20.7710 c         1 TS3      0.234100
     25 O5         -1.6580   18.9960  -20.6540 o         1 TS3     -0.459100
     26 CA         -3.6890   18.6720  -21.8090 c3        1 TS3     -0.059500
     27 N5         -3.2590   19.8660  -22.5400 ny        1 TS3      0.159200
     28 CB         -3.8500   17.5050  -22.7860 c3        1 TS3      0.003700
     29 SG         -5.0940   17.9300  -24.0350 sh        1 TS3     -0.300900
     30 CA6        -4.5120   23.9700  -25.0320 c3        1 TS3     -0.185500
     31 C6         -5.7220   24.7420  -25.4910 c         1 TS3      0.898600
     32 OE6        -6.1990   25.5950  -24.7810 o         1 TS3     -0.508300
     33 OE7        -6.2700   24.4810  -26.6880 o         1 TS3     -0.508300
     34 N6         -3.6970   24.8170  -24.1500 nz        1 TS3      0.079400
     35 CB6        -4.9620   22.7230  -24.2670 c3        1 TS3     -0.015400
     36 CG6        -3.7340   21.9400  -23.8020 c3        1 TS3     -0.092400
     37 CD6        -4.1750   20.7120  -23.0490 c         1 TS3      0.317100
     38 O6         -5.3580   20.4850  -22.9000 o         1 TS3     -0.342100
     39 N1'        -1.5060   15.1730  -17.2280 ny        1 TS3      0.247200
     40 C1'        -1.9360   13.9790  -16.4970 c3        1 TS3     -0.009200
     41 C2'        -0.8880   13.6200  -15.4430 c3        1 TS3     -0.044400
     42 N2'        -0.3290   12.0290  -13.6670 ny        1 TS3      0.047000
     43 C3'        -1.3360   12.3730  -14.6790 c3        1 TS3     -0.020200
     44 C4'        -0.8190   10.8300  -12.9750 c3        1 TS3     -0.032200
     45 C5'         0.1880   10.4140  -11.9010 c3        1 TS3     -0.022400
     46 C6'        -0.3220    9.1660  -11.1790 c3        1 TS3     -0.020400
     47 C7'         0.6840    8.7490  -10.1050 c3        1 TS3     -0.019200
     48 N3'         0.1960    7.5550   -9.4140 ny        1 TS3      0.228200
     49 HN11       -0.3340   -0.4620    0.8230 hn        1 TS3      0.229133
     50 HN12       -0.3340   -0.4810   -0.8120 hn        1 TS3      0.229133
     51 HA1         1.8300   -0.8850   -0.5100 hx        1 TS3      0.108700
     52 HB11        1.6190    2.1330   -0.2110 hc        1 TS3      0.082200
     53 HB12        3.0630    1.2470   -0.7220 hc        1 TS3      0.082200
     54 HG11        1.8300    0.3630   -2.6740 hc        1 TS3      0.051200
     55 HG12        0.3860    1.2500   -2.1640 hc        1 TS3      0.051200
     56 HN2         1.9770    1.8990   -4.6840 hn        1 TS3      0.281800
     57 HA2         2.2560    4.6900   -4.1430 hx        1 TS3      0.136700
     58 HB21        3.8450    4.4640   -6.0240 h1        1 TS3      0.062200
     59 HB22        3.3630    2.7740   -6.2280 h1        1 TS3      0.062200
     60 HS2         5.8990    3.0720   -4.7620 hs        1 TS3      0.292800
     61 HN3         2.2560    5.2140   -7.1480 hn        1 TS3      0.259800
     62 HA31        0.3000    4.9690   -8.4250 hx        1 TS3      0.111200
     63 HA32       -0.5340    5.9910   -7.2460 hx        1 TS3      0.111200
     64 HN4        -2.9360   16.4510  -20.5710 hn        1 TS3      0.263300
     65 HA41       -1.7210   17.7300  -18.2720 hx        1 TS3      0.106700
     66 HA42       -0.8880   16.7070  -19.4500 hx        1 TS3      0.106700
     67 HA         -4.6370   18.8690  -21.3220 hx        1 TS3      0.137700
     68 HN5        -2.6860   20.3980  -21.9160 hn        1 TS3      0.281800
     69 HB1        -2.9020   17.3090  -23.2730 h1        1 TS3      0.063700
     70 HB2        -4.1680   16.6220  -22.2450 h1        1 TS3      0.063700
     71 HSG        -5.4690   16.8310  -24.6780 hs        1 TS3      0.294800
     72 HA6        -3.9250   23.6740  -25.8930 hx        1 TS3      0.112700
     73 HN61       -3.8160   25.7770  -24.4070 hn        1 TS3      0.229467
     74 HN62       -2.7330   24.5630  -24.2420 hn        1 TS3      0.229467
     75 HB61       -5.5640   22.0990  -24.9160 hc        1 TS3      0.081200
     76 HB62       -5.5490   23.0200  -23.4060 hc        1 TS3      0.081200
     77 HG61       -3.1320   22.5640  -23.1530 hc        1 TS3      0.051700
     78 HG62       -3.1470   21.6430  -24.6630 hc        1 TS3      0.051700
     79 HN1'       -0.6170   14.9600  -17.6370 hn        1 TS3      0.238800
     80 H1'1       -2.0500   13.1540  -17.1880 hx        1 TS3      0.105200
     81 H1'2       -2.8840   14.1760  -16.0100 hx        1 TS3      0.105200
     82 H2'1       -0.7740   14.4460  -14.7510 hc        1 TS3      0.052700
     83 H2'2        0.0600   13.4240  -15.9300 hc        1 TS3      0.052700
     84 HN2'        0.5480   11.8350  -14.1090 hn        1 TS3      0.254800
     85 H3'1       -1.4490   11.5470  -15.3710 hx        1 TS3      0.099700
     86 H3'2       -2.2840   12.5690  -14.1930 hx        1 TS3      0.099700
     87 H4'1       -0.9390   10.0250  -13.6890 hx        1 TS3      0.093700
     88 H4'2       -1.7740   11.0470  -12.5110 hx        1 TS3      0.093700
     89 H5'1        1.1420   10.1980  -12.3660 hc        1 TS3      0.051700
     90 H5'2        0.3080   11.2200  -11.1880 hc        1 TS3      0.051700
     91 H6'1       -0.4420    8.3600  -11.8930 hc        1 TS3      0.047700
     92 H6'2       -1.2760    9.3820  -10.7150 hc        1 TS3      0.047700
     93 H7'1        0.8040    9.5550   -9.3910 hx        1 TS3      0.101200
     94 H7'2        1.6390    8.5330  -10.5690 hx        1 TS3      0.101200
     95 HN3'       -0.6970    7.7880   -9.0250 hn        1 TS3      0.248300
     96 H13        -0.3340    0.9440   -0.0110 hn        1 TS3      0.229133
     97 H22         0.6480    2.7130   -4.2140 hn        1 TS3      0.281800
     98 H32         1.4990    6.1530   -6.0630 hn        1 TS3      0.259800
     99 H42        -3.7040   17.3910  -19.4870 hn        1 TS3      0.263300
    100 H52        -2.7000   19.5510  -23.3080 hn        1 TS3      0.281800
    101 H63        -3.9880   24.6870  -23.2010 hn        1 TS3      0.229467
    102 H1'3       -1.3840   15.9010  -16.5530 hn        1 TS3      0.238800
    103 H2'3       -0.2250   12.7830  -13.0170 hn        1 TS3      0.254800
    104 H3'3        0.0700    6.8460  -10.1090 hn        1 TS3      0.248300
@<TRIPOS>BOND
     1    1    2 1   
     2    1   49 1   
     3    1   50 1   
     4    1   96 1   
     5    2    3 1   
     6    2    6 1   
     7    2   51 1   
     8    3    4 1   
     9    3    5 1   
    10    6    7 1   
    11    6   52 1   
    12    6   53 1   
    13    7    8 1   
    14    7   54 1   
    15    7   55 1   
    16    8    9 2   
    17    8   10 1   
    18   10   11 1   
    19   10   56 1   
    20   10   97 1   
    21   11   12 1   
    22   11   14 1   
    23   11   57 1   
    24   12   13 2   
    25   12   16 1   
    26   14   15 1   
    27   14   58 1   
    28   14   59 1   
    29   15   60 1   
    30   16   17 1   
    31   16   61 1   
    32   16   98 1   
    33   17   18 1   
    34   17   62 1   
    35   17   63 1   
    36   18   19 2   
    37   18   48 1   
    38   20   21 1   
    39   20   24 1   
    40   20   64 1   
    41   20   99 1   
    42   21   22 1   
    43   21   65 1   
    44   21   66 1   
    45   22   23 2   
    46   22   39 1   
    47   24   25 2   
    48   24   26 1   
    49   26   27 1   
    50   26   28 1   
    51   26   67 1   
    52   27   37 1   
    53   27   68 1   
    54   27  100 1   
    55   28   29 1   
    56   28   69 1   
    57   28   70 1   
    58   29   71 1   
    59   30   31 1   
    60   30   34 1   
    61   30   35 1   
    62   30   72 1   
    63   31   32 1   
    64   31   33 1   
    65   34   73 1   
    66   34   74 1   
    67   34  101 1   
    68   35   36 1   
    69   35   75 1   
    70   35   76 1   
    71   36   37 1   
    72   36   77 1   
    73   36   78 1   
    74   37   38 2   
    75   39   40 1   
    76   39   79 1   
    77   39  102 1   
    78   40   41 1   
    79   40   80 1   
    80   40   81 1   
    81   41   43 1   
    82   41   82 1   
    83   41   83 1   
    84   42   43 1   
    85   42   44 1   
    86   42   84 1   
    87   42  103 1   
    88   43   85 1   
    89   43   86 1   
    90   44   45 1   
    91   44   87 1   
    92   44   88 1   
    93   45   46 1   
    94   45   89 1   
    95   45   90 1   
    96   46   47 1   
    97   46   91 1   
    98   46   92 1   
    99   47   48 1   
   100   47   93 1   
   101   47   94 1   
   102   48   95 1   
   103   48  104 1   
@<TRIPOS>SUBSTRUCTURE
     1 TS3         1 TEMP              0 ****  ****    0 ROOT
