@<TRIPOS>MOLECULE
TS5
   62    61     1     0     0
SMALL
bcc


@<TRIPOS>ATOM
      1 N1          1.5300   -1.3310   -7.4920 n3        1 TS5     -0.886800
      2 CA1         0.7140   -1.0820   -6.3110 c3        1 TS5      0.017500
      3 C1         -0.5200   -2.0270   -6.1710 c         1 TS5      0.890600
      4 OE1        -0.8510   -2.7530   -7.1420 o         1 TS5     -0.843800
      5 OE2        -1.1240   -2.0160   -5.0520 o         1 TS5     -0.843800
      6 CB1         0.2260    0.3720   -6.2220 c3        1 TS5     -0.066400
      7 CG1         1.0240    1.2020   -5.2390 c3        1 TS5     -0.140400
      8 CD1         0.4790    1.2130   -3.8230 c         1 TS5      0.656100
      9 O1          0.5630    2.2570   -3.1270 o         1 TS5     -0.683100
     10 N2         -0.0400    0.0520   -3.2990 n         1 TS5     -0.557900
     11 CA2        -0.7640    0.0420   -2.0530 c3        1 TS5      0.053700
     12 C2          0.1760   -0.1710   -0.8360 c         1 TS5      0.649100
     13 O2          0.0000   -1.0950   -0.0130 o         1 TS5     -0.651100
     14 CB2        -1.8520   -1.0360   -2.0110 c3        1 TS5      0.024700
     15 SG2        -3.2590   -0.6140   -2.9940 sh        1 TS5     -0.484900
     16 N3          1.2030    0.7330   -0.6700 n         1 TS5     -0.564900
     17 CA3         2.1730    0.6090    0.3690 c3        1 TS5      0.031000
     18 C3          1.7630    1.1810    1.7400 c         1 TS5      0.632100
     19 O3          2.5200    1.9790    2.3330 o         1 TS5     -0.636100
     20 N1'         0.5590    0.7760    2.2680 n         1 TS5     -0.559900
     21 C1'         0.1230    1.1680    3.5780 c3        1 TS5      0.090000
     22 C2'         0.2680    0.0820    4.6470 c3        1 TS5     -0.113400
     23 N2'        -0.1370   -0.3260    7.0660 n3        1 TS5     -0.823200
     24 C3'        -0.2060    0.6400    5.9860 c3        1 TS5      0.165800
     25 C4'        -0.2660    0.2800    8.3760 c3        1 TS5      0.165800
     26 C5'        -0.0260   -0.7070    9.5180 c3        1 TS5     -0.083400
     27 C6'        -0.2090   -0.0120   10.8490 c3        1 TS5     -0.082400
     28 C7'         0.0360   -0.9960   11.9920 c3        1 TS5      0.157800
     29 N3'        -0.1410   -0.4130   13.3010 n3        1 TS5     -0.915800
     30 HN11        1.7210   -2.3180   -7.5250 hn        1 TS5      0.336300
     31 HN12        0.9820   -1.1220   -8.3090 hn        1 TS5      0.336300
     32 HA1         1.3780   -1.3020   -5.4230 h1        1 TS5      0.045700
     33 HB11       -0.8590    0.3700   -5.9310 hc        1 TS5      0.051700
     34 HB12        0.2860    0.8690   -7.2270 hc        1 TS5      0.051700
     35 HG11        1.0470    2.2720   -5.5780 hc        1 TS5      0.066700
     36 HG12        2.0860    0.8400   -5.1930 hc        1 TS5      0.066700
     37 HN2        -0.1910   -0.7400   -3.9110 hn        1 TS5      0.383500
     38 HA2        -1.2500    1.0570   -1.8960 h1        1 TS5      0.087700
     39 HB21       -1.4370   -2.0250   -2.3300 h1        1 TS5      0.096200
     40 HB22       -2.2210   -1.1300   -0.9610 h1        1 TS5      0.096200
     41 HG2        -2.8540   -1.1180   -4.1850 hs        1 TS5      0.315800
     42 HN3         1.2570    1.5280   -1.2710 hn        1 TS5      0.354500
     43 HA31        3.1100    1.1550    0.0620 h1        1 TS5      0.078200
     44 HA32        2.4170   -0.4820    0.5320 h1        1 TS5      0.078200
     45 HN1'        0.0660    0.0310    1.8250 hn        1 TS5      0.340500
     46 H1'1       -0.9660    1.4570    3.5080 h1        1 TS5      0.056700
     47 H1'2        0.7090    2.0780    3.8970 h1        1 TS5      0.056700
     48 H2'1        1.3400   -0.2390    4.7210 hc        1 TS5      0.053200
     49 H2'2       -0.3370   -0.8190    4.3680 hc        1 TS5      0.053200
     50 HN2'        0.7090   -0.8630    7.0080 hn        1 TS5      0.355800
     51 H3'1       -1.2850    0.9540    5.8940 h1        1 TS5      0.030200
     52 H3'2        0.3920    1.5730    6.2140 h1        1 TS5      0.030200
     53 H4'1       -1.3160    0.6830    8.4550 h1        1 TS5      0.027700
     54 H4'2        0.4350    1.1580    8.5120 h1        1 TS5      0.027700
     55 H5'1        1.0110   -1.1280    9.4500 hc        1 TS5      0.046700
     56 H5'2       -0.7430   -1.5650    9.4360 hc        1 TS5      0.046700
     57 H6'1       -1.2480    0.4050   10.9210 hc        1 TS5      0.047200
     58 H6'2        0.5040    0.8510   10.9270 hc        1 TS5      0.047200
     59 H7'1        1.0680   -1.4400   11.8540 h1        1 TS5      0.025200
     60 H7'2       -0.7010   -1.8450   11.9030 h1        1 TS5      0.025200
     61 HN31        0.1770   -1.0460   14.0080 hn        1 TS5      0.345800
     62 HN32        0.3610    0.4490   13.3830 hn        1 TS5      0.345800
@<TRIPOS>BOND
     1    1    2 1   
     2    1   30 1   
     3    1   31 1   
     4    2    3 1   
     5    2    6 1   
     6    2   32 1   
     7    3    4 1   
     8    3    5 1   
     9    6    7 1   
    10    6   33 1   
    11    6   34 1   
    12    7    8 1   
    13    7   35 1   
    14    7   36 1   
    15    8    9 2   
    16    8   10 1   
    17   10   11 1   
    18   10   37 1   
    19   11   12 1   
    20   11   14 1   
    21   11   38 1   
    22   12   13 2   
    23   12   16 1   
    24   14   15 1   
    25   14   39 1   
    26   14   40 1   
    27   15   41 1   
    28   16   17 1   
    29   16   42 1   
    30   17   18 1   
    31   17   43 1   
    32   17   44 1   
    33   18   19 2   
    34   18   20 1   
    35   20   21 1   
    36   20   45 1   
    37   21   22 1   
    38   21   46 1   
    39   21   47 1   
    40   22   24 1   
    41   22   48 1   
    42   22   49 1   
    43   23   24 1   
    44   23   25 1   
    45   23   50 1   
    46   24   51 1   
    47   24   52 1   
    48   25   26 1   
    49   25   53 1   
    50   25   54 1   
    51   26   27 1   
    52   26   55 1   
    53   26   56 1   
    54   27   28 1   
    55   27   57 1   
    56   27   58 1   
    57   28   29 1   
    58   28   59 1   
    59   28   60 1   
    60   29   61 1   
    61   29   62 1   
@<TRIPOS>SUBSTRUCTURE
     1 TS5         1 TEMP              0 ****  ****    0 ROOT
