@<TRIPOS>MOLECULE
TS5
   62    61     1     0     0
SMALL
bcc


@<TRIPOS>ATOM
      1 N1          0.8010   -0.1020   -1.5210 n3        1 TS5     -0.886800
      2 CA1         1.4060    0.8590   -2.4340 c3        1 TS5      0.017500
      3 C1          2.4590    0.2440   -3.4080 c         1 TS5      0.890600
      4 OE1         2.8710   -0.9270   -3.2090 o         1 TS5     -0.843800
      5 OE2         2.8390    0.9770   -4.3760 o         1 TS5     -0.843800
      6 CB1         2.0540    2.0450   -1.7030 c3        1 TS5     -0.066400
      7 CG1         1.2010    3.2950   -1.7400 c3        1 TS5     -0.140400
      8 CD1         1.4710    4.2180   -2.9150 c         1 TS5      0.656100
      9 O1          1.3990    5.4640   -2.7640 o         1 TS5     -0.683100
     10 N2          1.7250    3.6670   -4.1490 n         1 TS5     -0.557900
     11 CA2         2.1990    4.4660   -5.2500 c3        1 TS5      0.053700
     12 C2          1.0310    5.0640   -6.0800 c         1 TS5      0.649100
     13 O2          0.9260    4.8780   -7.3120 o         1 TS5     -0.651100
     14 CB2         3.1080    3.6820   -6.2020 c3        1 TS5      0.024700
     15 SG2         4.7170    3.4060   -5.5240 sh        1 TS5     -0.484900
     16 N3          0.1220    5.8520   -5.4070 n         1 TS5     -0.564900
     17 CA3        -1.0290    6.4080   -6.0420 c3        1 TS5      0.031000
     18 C3         -0.8010    7.7280   -6.8020 c         1 TS5      0.632100
     19 O3         -1.5360    8.7130   -6.5740 o         1 TS5     -0.635100
     20 N1'         0.2190    7.7680   -7.7250 n         1 TS5     -0.560900
     21 C1'         0.4630    8.9100   -8.5560 c3        1 TS5      0.090000
     22 C2'         0.0120    8.7440  -10.0110 c3        1 TS5     -0.112400
     23 N2'        -0.0140    9.9510  -12.1830 n3        1 TS5     -0.824200
     24 C3'         0.3400   10.0230  -10.7780 c3        1 TS5      0.165800
     25 C4'         0.0450   11.2370  -12.8470 c3        1 TS5      0.165800
     26 C5'        -0.4690   11.1910  -14.2850 c3        1 TS5     -0.083400
     27 C6'        -0.3010   12.5440  -14.9390 c3        1 TS5     -0.082400
     28 C7'        -0.8030   12.4950  -16.3810 c3        1 TS5      0.156800
     29 N3'        -0.7030   13.7610  -17.0690 n3        1 TS5     -0.915800
     30 HN11        0.4920   -0.8870   -2.0690 hn        1 TS5      0.336300
     31 HN12        1.5150   -0.4510   -0.9050 hn        1 TS5      0.336300
     32 HA1         0.5650    1.2420   -3.0840 h1        1 TS5      0.045700
     33 HB11        2.2470    1.7870   -0.6270 hc        1 TS5      0.051700
     34 HB12        3.0560    2.2500   -2.1670 hc        1 TS5      0.051700
     35 HG11        0.1110    3.0260   -1.7620 hc        1 TS5      0.066700
     36 HG12        1.3790    3.9040   -0.8130 hc        1 TS5      0.066700
     37 HN2         1.8820    2.6690   -4.2200 hn        1 TS5      0.383500
     38 HA2         2.7780    5.3560   -4.8440 h1        1 TS5      0.087700
     39 HB21        2.6340    2.7090   -6.4850 h1        1 TS5      0.096200
     40 HB22        3.2600    4.2850   -7.1310 h1        1 TS5      0.096200
     41 HG2         4.4800    2.2510   -4.8560 hs        1 TS5      0.315800
     42 HN3         0.2860    6.0790   -4.4490 hn        1 TS5      0.354500
     43 HA31       -1.8120    6.6210   -5.2590 h1        1 TS5      0.078200
     44 HA32       -1.4440    5.6700   -6.7890 h1        1 TS5      0.078200
     45 HN1'        0.6780    6.9160   -7.9690 hn        1 TS5      0.339500
     46 H1'1        1.5730    9.1140   -8.5480 h1        1 TS5      0.056200
     47 H1'2       -0.0620    9.8030   -8.1100 h1        1 TS5      0.056200
     48 H2'1       -1.0900    8.5440  -10.0470 hc        1 TS5      0.053700
     49 H2'2        0.5320    7.8690  -10.4790 hc        1 TS5      0.053700
     50 HN2'       -0.9180    9.5330  -12.3000 hn        1 TS5      0.356800
     51 H3'1       -0.1670   10.8900  -10.2570 h1        1 TS5      0.029200
     52 H3'2        1.4510   10.2100  -10.7260 h1        1 TS5      0.029200
     53 H4'1        1.1250   11.5600  -12.8540 h1        1 TS5      0.027700
     54 H4'2       -0.5340   12.0340  -12.2890 h1        1 TS5      0.027700
     55 H5'1       -1.5520   10.8990  -14.2960 hc        1 TS5      0.047200
     56 H5'2        0.0930   10.4140  -14.8660 hc        1 TS5      0.047200
     57 H6'1       -0.8700   13.3200  -14.3630 hc        1 TS5      0.046700
     58 H6'2        0.7810   12.8400  -14.9200 hc        1 TS5      0.046700
     59 H7'1       -0.2450   11.6690  -16.9160 h1        1 TS5      0.025700
     60 H7'2       -1.8930   12.2050  -16.3760 h1        1 TS5      0.025700
     61 HN31        0.2070   14.1620  -16.9550 hn        1 TS5      0.346300
     62 HN32       -0.8870   13.6400  -18.0450 hn        1 TS5      0.346300
@<TRIPOS>BOND
     1    1    2 1   
     2    1   30 1   
     3    1   31 1   
     4    2    3 1   
     5    2    6 1   
     6    2   32 1   
     7    3    4 1   
     8    3    5 1   
     9    6    7 1   
    10    6   33 1   
    11    6   34 1   
    12    7    8 1   
    13    7   35 1   
    14    7   36 1   
    15    8    9 2   
    16    8   10 1   
    17   10   11 1   
    18   10   37 1   
    19   11   12 1   
    20   11   14 1   
    21   11   38 1   
    22   12   13 2   
    23   12   16 1   
    24   14   15 1   
    25   14   39 1   
    26   14   40 1   
    27   15   41 1   
    28   16   17 1   
    29   16   42 1   
    30   17   18 1   
    31   17   43 1   
    32   17   44 1   
    33   18   19 2   
    34   18   20 1   
    35   20   21 1   
    36   20   45 1   
    37   21   22 1   
    38   21   46 1   
    39   21   47 1   
    40   22   24 1   
    41   22   48 1   
    42   22   49 1   
    43   23   24 1   
    44   23   25 1   
    45   23   50 1   
    46   24   51 1   
    47   24   52 1   
    48   25   26 1   
    49   25   53 1   
    50   25   54 1   
    51   26   27 1   
    52   26   55 1   
    53   26   56 1   
    54   27   28 1   
    55   27   57 1   
    56   27   58 1   
    57   28   29 1   
    58   28   59 1   
    59   28   60 1   
    60   29   61 1   
    61   29   62 1   
@<TRIPOS>SUBSTRUCTURE
     1 TS5         1 TEMP              0 ****  ****    0 ROOT
