@<TRIPOS>MOLECULE
TS5
   68    67     1     0     0
SMALL
bcc


@<TRIPOS>ATOM
      1 N1          0.0000    0.0000    0.0000 nz        1 TS5      0.082400
      2 CA1         1.4700    0.0000    0.0000 c3        1 TS5     -0.187500
      3 C1          1.9710    0.0000    1.4210 c         1 TS5      0.904600
      4 OE1         1.3180    0.5230    2.2920 o         1 TS5     -0.545300
      5 OE2         3.1430   -0.5810    1.7180 o         1 TS5     -0.545300
      6 CB1         1.9790    1.2480   -0.7220 c3        1 TS5     -0.015400
      7 CG1         1.4700    1.2480   -2.1640 c3        1 TS5     -0.094400
      8 CD1         1.9700    2.4780   -2.8750 c         1 TS5      0.319100
      9 O1          2.6680    3.2760   -2.2860 o         1 TS5     -0.343100
     10 N2          1.6460    2.6910   -4.1650 ny        1 TS5      0.157200
     11 CA2         2.1340    3.8870   -4.8570 c3        1 TS5     -0.054500
     12 C2          1.1420    4.2970   -5.9140 c         1 TS5      0.225100
     13 O2          0.1270    3.6530   -6.0750 o         1 TS5     -0.463100
     14 CB2         3.4810    3.5820   -5.5130 c3        1 TS5      0.002700
     15 SG2         4.6760    3.0900   -4.2410 sh        1 TS5     -0.301900
     16 N3          1.3810    5.3780   -6.6810 ny        1 TS5      0.233200
     17 CA3         0.4180    5.7750   -7.7090 c3        1 TS5     -0.056200
     18 C3          0.9190    7.0050   -8.4200 c         1 TS5      0.226100
     19 O3          1.9780    7.5000   -8.1000 o         1 TS5     -0.444100
     20 N1'         0.1920    7.5550   -9.4120 ny        1 TS5      0.227200
     21 C1'         0.6780    8.7510  -10.1030 c3        1 TS5     -0.009200
     22 C2'        -0.3280    9.1680  -11.1760 c3        1 TS5     -0.044400
     23 N2'        -0.7860   10.8160  -12.9290 ny        1 TS5      0.047000
     24 C3'         0.1800   10.4160  -11.8990 c3        1 TS5     -0.019200
     25 C4'        -0.2400   12.0120  -13.5810 c3        1 TS5     -0.035200
     26 C5'        -1.2020   12.4850  -14.6710 c3        1 TS5     -0.024400
     27 C6'        -0.6340   13.7320  -15.3500 c3        1 TS5     -0.025400
     28 C7'        -1.5960   14.2040  -16.4410 c3        1 TS5     -0.041200
     29 N3'        -1.0490   15.4020  -17.0920 nz        1 TS5      0.098400
     30 HN11       -0.3340   -0.3660   -0.8700 hn        1 TS5      0.227467
     31 HN12       -0.3340    0.9360    0.1180 hn        1 TS5      0.227467
     32 HA1         1.8310   -0.8850   -0.5100 hx        1 TS5      0.109700
     33 HB11        1.6190    2.1330   -0.2120 hc        1 TS5      0.080700
     34 HB12        3.0630    1.2480   -0.7230 hc        1 TS5      0.080700
     35 HG11        0.3860    1.2480   -2.1640 hc        1 TS5      0.050700
     36 HG12        1.8310    0.3640   -2.6750 hc        1 TS5      0.050700
     37 HN2         1.9770    1.9010   -4.6830 hn        1 TS5      0.281300
     38 HA2         2.2540    4.6930   -4.1440 hx        1 TS5      0.136700
     39 HB21        3.3610    2.7770   -6.2270 h1        1 TS5      0.062700
     40 HB22        3.8420    4.4670   -6.0240 h1        1 TS5      0.062700
     41 HG2         5.8840    2.9890   -4.7830 hs        1 TS5      0.292800
     42 HN3         2.2530    5.2170   -7.1470 hn        1 TS5      0.261300
     43 HA31        0.2980    4.9690   -8.4230 hx        1 TS5      0.112700
     44 HA32       -0.5370    5.9910   -7.2440 hx        1 TS5      0.112700
     45 HN1'        0.0670    6.8470  -10.1080 hn        1 TS5      0.249800
     46 H1'1        0.7990    9.5560   -9.3890 hx        1 TS5      0.106700
     47 H1'2        1.6330    8.5350  -10.5670 hx        1 TS5      0.106700
     48 H2'1       -0.4490    8.3620  -11.8900 hc        1 TS5      0.052700
     49 H2'2       -1.2830    9.3830  -10.7120 hc        1 TS5      0.052700
     50 HN2'       -1.6680   11.0290  -12.5060 hn        1 TS5      0.253300
     51 H3'1        0.3010   11.2220  -11.1850 hx        1 TS5      0.099700
     52 H3'2        1.1350   10.2000  -12.3640 hx        1 TS5      0.099700
     53 H4'1       -0.1140   12.7980  -12.8460 hx        1 TS5      0.094700
     54 H4'2        0.7190   11.7760  -14.0240 hx        1 TS5      0.094700
     55 H5'1       -2.1620   12.7210  -14.2280 hc        1 TS5      0.048700
     56 H5'2       -1.3280   11.7000  -15.4070 hc        1 TS5      0.048700
     57 H6'1        0.3260   13.4960  -15.7930 hc        1 TS5      0.047700
     58 H6'2       -0.5090   14.5180  -14.6150 hc        1 TS5      0.047700
     59 H7'1       -2.5560   14.4400  -15.9980 hx        1 TS5      0.092700
     60 H7'2       -1.7210   13.4190  -17.1760 hx        1 TS5      0.092700
     61 HN31       -1.6780   15.7090  -17.8070 hn        1 TS5      0.237800
     62 HN32       -0.1610   15.1850  -17.4990 hn        1 TS5      0.237800
     63 H13        -0.3340   -0.5710    0.7510 hn        1 TS5      0.227467
     64 H22         0.6470    2.7140   -4.2140 hn        1 TS5      0.281300
     65 H32         1.4960    6.1550   -6.0610 hn        1 TS5      0.261300
     66 H1'3       -0.7020    7.7850   -9.0240 hn        1 TS5      0.249800
     67 H2'3       -0.8940   10.0820  -13.6000 hn        1 TS5      0.253300
     68 H3'3       -0.9380   16.1290  -16.4130 hn        1 TS5      0.237800
@<TRIPOS>BOND
     1    1    2 1   
     2    1   30 1   
     3    1   31 1   
     4    1   63 1   
     5    2    3 1   
     6    2    6 1   
     7    2   32 1   
     8    3    4 1   
     9    3    5 1   
    10    6    7 1   
    11    6   33 1   
    12    6   34 1   
    13    7    8 1   
    14    7   35 1   
    15    7   36 1   
    16    8    9 2   
    17    8   10 1   
    18   10   11 1   
    19   10   37 1   
    20   10   64 1   
    21   11   12 1   
    22   11   14 1   
    23   11   38 1   
    24   12   13 2   
    25   12   16 1   
    26   14   15 1   
    27   14   39 1   
    28   14   40 1   
    29   15   41 1   
    30   16   17 1   
    31   16   42 1   
    32   16   65 1   
    33   17   18 1   
    34   17   43 1   
    35   17   44 1   
    36   18   19 2   
    37   18   20 1   
    38   20   21 1   
    39   20   45 1   
    40   20   66 1   
    41   21   22 1   
    42   21   46 1   
    43   21   47 1   
    44   22   24 1   
    45   22   48 1   
    46   22   49 1   
    47   23   24 1   
    48   23   25 1   
    49   23   50 1   
    50   23   67 1   
    51   24   51 1   
    52   24   52 1   
    53   25   26 1   
    54   25   53 1   
    55   25   54 1   
    56   26   27 1   
    57   26   55 1   
    58   26   56 1   
    59   27   28 1   
    60   27   57 1   
    61   27   58 1   
    62   28   29 1   
    63   28   59 1   
    64   28   60 1   
    65   29   61 1   
    66   29   62 1   
    67   29   68 1   
@<TRIPOS>SUBSTRUCTURE
     1 TS5         1 TEMP              0 ****  ****    0 ROOT
