@<TRIPOS>MOLECULE
TS5
   62    61     1     0     0
SMALL
bcc


@<TRIPOS>ATOM
      1 N1         -5.6970   -9.2070   -0.5750 n3        1 TS5     -0.893800
      2 CA1        -6.4490   -8.0150   -0.3240 c3        1 TS5      0.015500
      3 C1         -7.8770   -8.2270   -0.7430 c         1 TS5      0.888600
      4 OE1        -8.7980   -8.2140    0.1220 o         1 TS5     -0.837300
      5 OE2        -8.1490   -8.4910   -1.9550 o         1 TS5     -0.837300
      6 CB1        -5.8600   -6.8720   -1.1090 c3        1 TS5     -0.073400
      7 CG1        -5.1810   -5.8730   -0.1370 c3        1 TS5     -0.143400
      8 CD1        -4.4660   -4.7800   -0.9430 c         1 TS5      0.669100
      9 O1         -4.0700   -5.0140   -2.0520 o         1 TS5     -0.657100
     10 N2         -4.2860   -3.4970   -0.3870 n         1 TS5     -0.582900
     11 CA2        -3.4100   -2.5740   -1.0070 c3        1 TS5      0.047700
     12 C2         -2.7350   -1.7310    0.0550 c         1 TS5      0.640100
     13 O2         -3.3800   -1.3160    1.0030 o         1 TS5     -0.646100
     14 CB2        -4.1960   -1.6820   -1.9320 c3        1 TS5     -0.003300
     15 SG2        -3.4150   -1.6530   -3.5400 sh        1 TS5     -0.381900
     16 N3         -1.3440   -1.3620   -0.0890 n         1 TS5     -0.556900
     17 CA3        -0.8720   -0.0800    0.4340 c3        1 TS5      0.026000
     18 C3          0.6040   -0.1800    0.7770 c         1 TS5      0.632100
     19 O3          1.0040   -1.0940    1.4440 o         1 TS5     -0.628100
     20 N1'         1.5100    0.8740    0.3760 n         1 TS5     -0.563900
     21 C1'         2.5540    1.3150    1.2770 c3        1 TS5      0.088000
     22 C2'         3.5620    2.2260    0.5020 c3        1 TS5     -0.104400
     23 N2'         5.1910    4.0780    0.8370 n3        1 TS5     -0.823200
     24 C3'         4.0530    3.3980    1.4500 c3        1 TS5      0.159800
     25 C4'         5.2270    5.4630    1.2870 c3        1 TS5      0.163800
     26 C5'         6.4040    6.1970    0.6070 c3        1 TS5     -0.083400
     27 C6'         6.2100    7.7040    0.7430 c3        1 TS5     -0.083400
     28 C7'         7.4550    8.4070    0.3280 c3        1 TS5      0.158800
     29 N3'         7.1860    9.7870    0.1740 n3        1 TS5     -0.915800
     30 HN11       -6.2290   -9.8200   -1.0020 hn        1 TS5      0.335800
     31 HN12       -5.4030   -9.5590    0.2250 hn        1 TS5      0.335800
     32 HA1        -6.4180   -7.8060    0.6270 h1        1 TS5      0.042700
     33 HB11       -6.5720   -6.4140   -1.6050 hc        1 TS5      0.052700
     34 HB12       -5.1960   -7.2170   -1.7380 hc        1 TS5      0.052700
     35 HG11       -5.8660   -5.4610    0.4420 hc        1 TS5      0.082200
     36 HG12       -4.5310   -6.3480    0.4170 hc        1 TS5      0.082200
     37 HN2        -4.7800   -3.2410    0.3430 hn        1 TS5      0.334500
     38 HA2        -2.7290   -3.0630   -1.5220 h1        1 TS5      0.104700
     39 HB21       -5.1040   -2.0240   -2.0180 h1        1 TS5      0.094700
     40 HB22       -4.2220   -0.7830   -1.5690 h1        1 TS5      0.094700
     41 HG2        -4.1400   -1.1680   -4.3160 hs        1 TS5      0.226800
     42 HN3        -0.7640   -1.9260   -0.5000 hn        1 TS5      0.355500
     43 HA31       -1.0040    0.6190   -0.2440 h1        1 TS5      0.082200
     44 HA32       -1.3830    0.1510    1.2460 h1        1 TS5      0.082200
     45 HN1'        1.4350    1.2500   -0.4570 hn        1 TS5      0.337500
     46 H1'1        3.0270    0.5350    1.6350 h1        1 TS5      0.056700
     47 H1'2        2.1540    1.8250    2.0170 h1        1 TS5      0.056700
     48 H2'1        3.1200    2.6070   -0.2860 hc        1 TS5      0.049200
     49 H2'2        4.3330    1.6910    0.2170 hc        1 TS5      0.049200
     50 HN2'        5.9620    3.6590    1.0800 hn        1 TS5      0.348800
     51 H3'1        3.3210    4.0400    1.5830 h1        1 TS5      0.038200
     52 H3'2        4.3240    3.0240    2.3190 h1        1 TS5      0.038200
     53 H4'1        4.3840    5.9070    1.0480 h1        1 TS5      0.031700
     54 H4'2        5.3460    5.4870    2.2630 h1        1 TS5      0.031700
     55 H5'1        7.2470    5.9360    1.0380 hc        1 TS5      0.045200
     56 H5'2        6.4350    5.9570   -0.3430 hc        1 TS5      0.045200
     57 H6'1        5.4670    7.9910    0.1720 hc        1 TS5      0.048200
     58 H6'2        6.0080    7.9230    1.6730 hc        1 TS5      0.048200
     59 H7'1        7.7690    8.0400   -0.5200 h1        1 TS5      0.023700
     60 H7'2        8.1410    8.2830    1.0090 h1        1 TS5      0.023700
     61 HN31        7.6470   10.2580    0.8040 hn        1 TS5      0.346300
     62 HN32        7.4460   10.0570   -0.6600 hn        1 TS5      0.346300
@<TRIPOS>BOND
     1    1    2 1   
     2    1   30 1   
     3    1   31 1   
     4    2    3 1   
     5    2    6 1   
     6    2   32 1   
     7    3    4 1   
     8    3    5 1   
     9    6    7 1   
    10    6   33 1   
    11    6   34 1   
    12    7    8 1   
    13    7   35 1   
    14    7   36 1   
    15    8    9 2   
    16    8   10 1   
    17   10   11 1   
    18   10   37 1   
    19   11   12 1   
    20   11   14 1   
    21   11   38 1   
    22   12   13 2   
    23   12   16 1   
    24   14   15 1   
    25   14   39 1   
    26   14   40 1   
    27   15   41 1   
    28   16   17 1   
    29   16   42 1   
    30   17   18 1   
    31   17   43 1   
    32   17   44 1   
    33   18   19 2   
    34   18   20 1   
    35   20   21 1   
    36   20   45 1   
    37   21   22 1   
    38   21   46 1   
    39   21   47 1   
    40   22   24 1   
    41   22   48 1   
    42   22   49 1   
    43   23   24 1   
    44   23   25 1   
    45   23   50 1   
    46   24   51 1   
    47   24   52 1   
    48   25   26 1   
    49   25   53 1   
    50   25   54 1   
    51   26   27 1   
    52   26   55 1   
    53   26   56 1   
    54   27   28 1   
    55   27   57 1   
    56   27   58 1   
    57   28   29 1   
    58   28   59 1   
    59   28   60 1   
    60   29   61 1   
    61   29   62 1   
@<TRIPOS>SUBSTRUCTURE
     1 TS5         1 TEMP              0 ****  ****    0 ROOT
