@<TRIPOS>MOLECULE
TS6
    6     4     1     0     0
SMALL
bcc


@<TRIPOS>ATOM
      1 P          -0.5540    0.1020   -0.0130 p3        1 TS6      2.513000
      2 O1P        -0.8070   -0.2130    1.4230 o         1 TS6     -1.205333
      3 S2P         1.8420    0.3900   -0.1610 s         1 TS6     -1.016000
      4 O3P        -0.6050   -1.0510   -0.9680 o         1 TS6     -1.205333
      5 O4P        -1.1190    1.3940   -0.5000 o         1 TS6     -1.205333
      6 HS2P        1.8540   -0.6210   -1.0080 hs        1 TS6      0.117000
@<TRIPOS>BOND
     1    1    2 1   
     2    1    4 1   
     3    1    5 1   
     4    3    6 1   
@<TRIPOS>SUBSTRUCTURE
     1 TS6         1 TEMP              0 ****  ****    0 ROOT
