@<TRIPOS>MOLECULE
TS6
    6     4     1     0     0
SMALL
bcc


@<TRIPOS>ATOM
      1 P          -0.0040    0.1110   -0.1490 p3        1 TS6      2.513000
      2 O1P         1.4480   -0.1610    0.0630 o         1 TS6     -1.205333
      3 S2P        -0.9060    0.3790    2.0780 s         1 TS6     -1.016000
      4 O3P        -0.3260    1.3930   -0.8420 o         1 TS6     -1.205333
      5 O4P        -0.8600   -1.0670   -0.4950 o         1 TS6     -1.205333
      6 HS2P       -1.6840   -0.6570    1.8260 hs        1 TS6      0.117000
@<TRIPOS>BOND
     1    1    2 1   
     2    1    4 1   
     3    1    5 1   
     4    3    6 1   
@<TRIPOS>SUBSTRUCTURE
     1 TS6         1 TEMP              0 ****  ****    0 ROOT
