@<TRIPOS>MOLECULE
TS8
   44    44     1     0     0
SMALL
bcc


@<TRIPOS>ATOM
      1 S          -0.7960    3.4640   -0.2410 sh        1 TS8     -0.334900
      2 C1         -0.4250    1.8080    0.2900 c3        1 TS8      0.220200
      3 C2         -1.4270    0.7440   -0.1810 c3        1 TS8      0.111100
      4 O2         -2.6430    0.9540    0.5480 os        1 TS8     -0.435900
      5 C3         -0.9360   -0.6670    0.1990 c3        1 TS8      0.127100
      6 O3         -1.7080   -1.5920   -0.5790 os        1 TS8     -0.437900
      7 C4          0.5340   -0.8860   -0.2020 c3        1 TS8      0.109100
      8 O4          0.9590   -2.0380    0.5420 os        1 TS8     -0.438900
      9 C5          1.4190    0.2970    0.2240 c3        1 TS8      0.105100
     10 O5          0.8590    1.5250   -0.2410 os        1 TS8     -0.400600
     11 C6          2.8030    0.2050   -0.4290 c3        1 TS8      0.132400
     12 O6          3.7510    0.7540    0.4880 os        1 TS8     -0.446900
     13 CAD         5.4010    2.3210    1.1740 c3        1 TS8     -0.150100
     14 CAE         1.9430   -4.1860    0.7910 c3        1 TS8     -0.150100
     15 CAF        -4.9250    1.5650    0.7670 c3        1 TS8     -0.150100
     16 CAG        -2.4940   -2.5150    0.0620 c         1 TS8      0.640100
     17 OAH         4.4700    2.1770   -1.0910 o         1 TS8     -0.533000
     18 OAI         1.9370   -2.8820   -1.2910 o         1 TS8     -0.539000
     19 OAJ        -3.7670    1.2500   -1.3760 o         1 TS8     -0.530000
     20 OAK        -2.5110   -2.5410    1.2930 o         1 TS8     -0.534000
     21 CAW         4.5370    1.8000    0.0780 c         1 TS8      0.640100
     22 CAX         1.6430   -3.0340   -0.1050 c         1 TS8      0.640100
     23 CAY        -3.7880    1.2630   -0.1460 c         1 TS8      0.645100
     24 CAZ        -3.2350   -3.3790   -0.8980 c3        1 TS8     -0.150100
     25 HS         -0.3490    3.3980   -1.4870 hs        1 TS8      0.229800
     26 H1         -0.4050    1.8410    1.4130 h2        1 TS8      0.091700
     27 H2         -1.5960    0.8090   -1.2910 h1        1 TS8      0.113700
     28 H3         -1.0760   -0.8490    1.3010 h1        1 TS8      0.113700
     29 H4          0.6120   -1.0670   -1.3100 h1        1 TS8      0.109700
     30 H5          1.5110    0.3210    1.3450 h1        1 TS8      0.077700
     31 H6          3.0920   -0.8720   -0.5630 h1        1 TS8      0.088200
     32 H6A         2.8150    0.7420   -1.4140 h1        1 TS8      0.088200
     33 HAD         6.4410    2.4530    0.7860 hc        1 TS8      0.077033
     34 HADA        5.0030    3.3130    1.5000 hc        1 TS8      0.077033
     35 HADB        5.4090    1.6230    2.0450 hc        1 TS8      0.077033
     36 HAE         1.6080   -5.1280    0.2920 hc        1 TS8      0.080367
     37 HAEA        3.0470   -4.2320    0.9580 hc        1 TS8      0.080367
     38 HAEB        1.4230   -4.0760    1.7740 hc        1 TS8      0.080367
     39 HAF        -4.7780    1.0760    1.7600 hc        1 TS8      0.079700
     40 HAFA       -4.9810    2.6720    0.9100 hc        1 TS8      0.079700
     41 HAFB       -5.8740    1.2030    0.3020 hc        1 TS8      0.079700
     42 HAZ        -3.0160   -4.4500   -0.6650 hc        1 TS8      0.079033
     43 HAZA       -4.3310   -3.1940   -0.7750 hc        1 TS8      0.079033
     44 HAZB       -2.9390   -3.1560   -1.9510 hc        1 TS8      0.079033
@<TRIPOS>BOND
     1    1    2 1   
     2    1   25 1   
     3    2    3 1   
     4    2   10 1   
     5    2   26 1   
     6    3    4 1   
     7    3    5 1   
     8    3   27 1   
     9    4   23 1   
    10    5    6 1   
    11    5    7 1   
    12    5   28 1   
    13    6   16 1   
    14    7    8 1   
    15    7    9 1   
    16    7   29 1   
    17    8   22 1   
    18    9   10 1   
    19    9   11 1   
    20    9   30 1   
    21   11   12 1   
    22   11   31 1   
    23   11   32 1   
    24   12   21 1   
    25   13   21 1   
    26   13   33 1   
    27   13   34 1   
    28   13   35 1   
    29   14   22 1   
    30   14   36 1   
    31   14   37 1   
    32   14   38 1   
    33   15   23 1   
    34   15   39 1   
    35   15   40 1   
    36   15   41 1   
    37   16   20 2   
    38   16   24 1   
    39   17   21 2   
    40   18   22 2   
    41   19   23 2   
    42   24   42 1   
    43   24   43 1   
    44   24   44 1   
@<TRIPOS>SUBSTRUCTURE
     1 TS8         1 TEMP              0 ****  ****    0 ROOT
