@<TRIPOS>MOLECULE
TS8
   44    44     1     0     0
SMALL
bcc


@<TRIPOS>ATOM
      1 S          -0.0590   -0.3730   -0.3860 sh        1 TS8     -0.334900
      2 C1          1.7030   -0.2600   -0.1660 c3        1 TS8      0.220200
      3 C2          2.1580   -0.1010    1.2920 c3        1 TS8      0.111100
      4 O2          1.7880    1.2170    1.7110 os        1 TS8     -0.435900
      5 C3          3.6950   -0.1670    1.3880 c3        1 TS8      0.127100
      6 O3          4.0100   -0.3840    2.7700 os        1 TS8     -0.437900
      7 C4          4.2630   -1.3760    0.6210 c3        1 TS8      0.109100
      8 O4          5.6620   -1.0960    0.4610 os        1 TS8     -0.438900
      9 C5          3.6480   -1.4950   -0.7820 c3        1 TS8      0.105100
     10 O5          2.2230   -1.4660   -0.7010 os        1 TS8     -0.400600
     11 C6          3.9940   -2.8470   -1.4170 c3        1 TS8      0.132400
     12 O6          4.1170   -2.6440   -2.8260 os        1 TS8     -0.446900
     13 CAD         3.5030   -2.9890   -5.0960 c3        1 TS8     -0.150100
     14 CAE         7.9790   -1.6020    0.6030 c3        1 TS8     -0.150100
     15 CAF         0.5400    2.7850    2.9830 c3        1 TS8     -0.150100
     16 CAG         4.7640    0.5460    3.4400 c         1 TS8      0.640100
     17 OAH         2.6040   -4.2590   -3.1990 o         1 TS8     -0.533000
     18 OAI         6.1680   -3.1950    1.0690 o         1 TS8     -0.539000
     19 OAJ         0.5400    0.3600    3.3720 o         1 TS8     -0.530000
     20 OAK         5.1670    1.5410    2.8380 o         1 TS8     -0.534000
     21 CAW         3.3280   -3.3820   -3.6700 c         1 TS8      0.640100
     22 CAX         6.5750   -2.0780    0.7490 c         1 TS8      0.640100
     23 CAY         0.9070    1.3590    2.7560 c         1 TS8      0.645100
     24 CAZ         4.9770    0.1690    4.8650 c3        1 TS8     -0.150100
     25 HS         -0.2390   -1.6410   -0.0470 hs        1 TS8      0.228800
     26 H1          2.0320    0.6300   -0.7660 h2        1 TS8      0.091700
     27 H2          1.6950   -0.8870    1.9500 h1        1 TS8      0.113700
     28 H3          4.1540    0.7890    1.0130 h1        1 TS8      0.113700
     29 H4          4.1030   -2.3210    1.2110 h1        1 TS8      0.109700
     30 H5          4.0090   -0.6490   -1.4310 h1        1 TS8      0.077700
     31 H6          5.0050   -3.1860   -1.0650 h1        1 TS8      0.088200
     32 H6A         3.2130   -3.6140   -1.1710 h1        1 TS8      0.088200
     33 HAD         2.5900   -2.4350   -5.4270 hc        1 TS8      0.077033
     34 HADA        3.6190   -3.9110   -5.7170 hc        1 TS8      0.077033
     35 HADB        4.3980   -2.3340   -5.2240 hc        1 TS8      0.077033
     36 HAE         8.4470   -2.1260   -0.2670 hc        1 TS8      0.080367
     37 HAEA        8.5440   -1.8580    1.5320 hc        1 TS8      0.080367
     38 HAEB        8.0130   -0.4990    0.4340 hc        1 TS8      0.080367
     39 HAF        -0.4170    2.9950    2.4440 hc        1 TS8      0.079700
     40 HAFA        1.3340    3.4670    2.5940 hc        1 TS8      0.079700
     41 HAFB        0.3940    2.9560    4.0770 hc        1 TS8      0.079700
     42 HAZ         6.0750    0.1490    5.0730 hc        1 TS8      0.079033
     43 HAZA        4.5360   -0.8330    5.0870 hc        1 TS8      0.079033
     44 HAZB        4.4940    0.9390    5.5160 hc        1 TS8      0.079033
@<TRIPOS>BOND
     1    1    2 1   
     2    1   25 1   
     3    2    3 1   
     4    2   10 1   
     5    2   26 1   
     6    3    4 1   
     7    3    5 1   
     8    3   27 1   
     9    4   23 1   
    10    5    6 1   
    11    5    7 1   
    12    5   28 1   
    13    6   16 1   
    14    7    8 1   
    15    7    9 1   
    16    7   29 1   
    17    8   22 1   
    18    9   10 1   
    19    9   11 1   
    20    9   30 1   
    21   11   12 1   
    22   11   31 1   
    23   11   32 1   
    24   12   21 1   
    25   13   21 1   
    26   13   33 1   
    27   13   34 1   
    28   13   35 1   
    29   14   22 1   
    30   14   36 1   
    31   14   37 1   
    32   14   38 1   
    33   15   23 1   
    34   15   39 1   
    35   15   40 1   
    36   15   41 1   
    37   16   20 2   
    38   16   24 1   
    39   17   21 2   
    40   18   22 2   
    41   19   23 2   
    42   24   42 1   
    43   24   43 1   
    44   24   44 1   
@<TRIPOS>SUBSTRUCTURE
     1 TS8         1 TEMP              0 ****  ****    0 ROOT
