@<TRIPOS>MOLECULE
TS8
   44    44     1     0     0
SMALL
bcc


@<TRIPOS>ATOM
      1 S          -0.0480   -0.3290   -0.4100 sh        1 TS8     -0.334900
      2 C1          1.7140   -0.2330   -0.1780 c3        1 TS8      0.220200
      3 C2          2.1610   -0.0770    1.2820 c3        1 TS8      0.111100
      4 O2          1.8020    1.2460    1.6960 os        1 TS8     -0.435900
      5 C3          3.6960   -0.1590    1.3880 c3        1 TS8      0.127100
      6 O3          4.0000   -0.3770    2.7730 os        1 TS8     -0.437900
      7 C4          4.2560   -1.3750    0.6270 c3        1 TS8      0.109100
      8 O4          5.6600   -1.1100    0.4760 os        1 TS8     -0.438900
      9 C5          3.6490   -1.4890   -0.7800 c3        1 TS8      0.105100
     10 O5          2.2240   -1.4460   -0.7090 os        1 TS8     -0.400600
     11 C6          3.9850   -2.8460   -1.4110 c3        1 TS8      0.132400
     12 O6          4.1200   -2.6470   -2.8190 os        1 TS8     -0.446900
     13 CAD         3.5170   -2.9890   -5.0930 c3        1 TS8     -0.150100
     14 CAE         7.9700   -1.6400    0.6340 c3        1 TS8     -0.150100
     15 CAF         0.5620    2.8290    2.9570 c3        1 TS8     -0.150100
     16 CAG         4.7580    0.5460    3.4460 c         1 TS8      0.640100
     17 OAH         2.5920   -4.2470   -3.2000 o         1 TS8     -0.533000
     18 OAI         6.1390   -3.2130    1.0900 o         1 TS8     -0.539000
     19 OAJ         0.5350    0.4050    3.3510 o         1 TS8     -0.530000
     20 OAK         5.1750    1.5370    2.8460 o         1 TS8     -0.534000
     21 CAW         3.3290   -3.3780   -3.6670 c         1 TS8      0.640100
     22 CAX         6.5610   -2.1010    0.7710 c         1 TS8      0.640100
     23 CAY         0.9160    1.3990    2.7360 c         1 TS8      0.645100
     24 CAZ         4.9580    0.1690    4.8740 c3        1 TS8     -0.150100
     25 HS         -0.2430   -1.5950   -0.0700 hs        1 TS8      0.228800
     26 H1          2.0560    0.6520   -0.7780 h2        1 TS8      0.091700
     27 H2          1.6850   -0.8570    1.9380 h1        1 TS8      0.113700
     28 H3          4.1680    0.7920    1.0150 h1        1 TS8      0.113700
     29 H4          4.0830   -2.3170    1.2170 h1        1 TS8      0.109700
     30 H5          4.0240   -0.6490   -1.4280 h1        1 TS8      0.077700
     31 H6          4.9910   -3.1950   -1.0520 h1        1 TS8      0.088200
     32 H6A         3.1950   -3.6040   -1.1690 h1        1 TS8      0.088200
     33 HAD         4.4190   -2.3430   -5.2160 hc        1 TS8      0.077033
     34 HADA        2.6120   -2.4260   -5.4300 hc        1 TS8      0.077033
     35 HADB        3.6260   -3.9130   -5.7110 hc        1 TS8      0.077033
     36 HAE         8.5260   -1.8980    1.5680 hc        1 TS8      0.080367
     37 HAEA        8.4390   -2.1710   -0.2310 hc        1 TS8      0.080367
     38 HAEB        8.0170   -0.5370    0.4610 hc        1 TS8      0.080367
     39 HAF         1.3670    3.5020    2.5740 hc        1 TS8      0.079700
     40 HAFA       -0.3890    3.0480    2.4100 hc        1 TS8      0.079700
     41 HAFB        0.4090    3.0030    4.0500 hc        1 TS8      0.079700
     42 HAZ         4.5170   -0.8340    5.0900 hc        1 TS8      0.079033
     43 HAZA        6.0540    0.1530    5.0930 hc        1 TS8      0.079033
     44 HAZB        4.4660    0.9370    5.5200 hc        1 TS8      0.079033
@<TRIPOS>BOND
     1    1    2 1   
     2    1   25 1   
     3    2    3 1   
     4    2   10 1   
     5    2   26 1   
     6    3    4 1   
     7    3    5 1   
     8    3   27 1   
     9    4   23 1   
    10    5    6 1   
    11    5    7 1   
    12    5   28 1   
    13    6   16 1   
    14    7    8 1   
    15    7    9 1   
    16    7   29 1   
    17    8   22 1   
    18    9   10 1   
    19    9   11 1   
    20    9   30 1   
    21   11   12 1   
    22   11   31 1   
    23   11   32 1   
    24   12   21 1   
    25   13   21 1   
    26   13   33 1   
    27   13   34 1   
    28   13   35 1   
    29   14   22 1   
    30   14   36 1   
    31   14   37 1   
    32   14   38 1   
    33   15   23 1   
    34   15   39 1   
    35   15   40 1   
    36   15   41 1   
    37   16   20 2   
    38   16   24 1   
    39   17   21 2   
    40   18   22 2   
    41   19   23 2   
    42   24   42 1   
    43   24   43 1   
    44   24   44 1   
@<TRIPOS>SUBSTRUCTURE
     1 TS8         1 TEMP              0 ****  ****    0 ROOT
