@<TRIPOS>MOLECULE
TS9
   23    22     1     0     0
SMALL
bcc


@<TRIPOS>ATOM
      1 N           0.5640    2.0310    0.1660 n3        1 TS9     -0.886800
      2 CA          0.5300    0.6210    0.5250 c3        1 TS9     -0.001500
      3 C           1.9000   -0.0870    0.2710 c         1 TS9      0.879600
      4 CB         -0.5710   -0.1630   -0.2420 c3        1 TS9      0.150800
      5 OG3        -0.4380    0.0150   -1.6500 oh        1 TS9     -0.643800
      6 CG2        -0.4350   -1.6460    0.0900 c3        1 TS9     -0.125100
      7 CG1        -1.9770    0.3790    0.1130 c3        1 TS9      0.145100
      8 OD2        -2.2630    0.2620    1.5000 oh        1 TS9     -0.607800
      9 CD1        -3.0720   -0.2940   -0.6990 c3        1 TS9     -0.116100
     10 OXT         2.5020   -0.5960    1.2520 o         1 TS9     -0.839300
     11 O           2.3300   -0.0920   -0.9230 o         1 TS9     -0.839300
     12 H           1.4070    2.4250    0.5460 hn        1 TS9      0.333800
     13 H2          0.6290    2.1020   -0.8350 hn        1 TS9      0.333800
     14 HA          0.2850    0.5580    1.6230 h1        1 TS9      0.063700
     15 HG3         0.5090   -0.0920   -1.8520 ho        1 TS9      0.450000
     16 HG21       -0.4150   -1.8010    1.1940 hc        1 TS9      0.041700
     17 HG22       -1.2770   -2.2260   -0.3560 hc        1 TS9      0.041700
     18 HG23        0.5280   -2.0290   -0.3300 hc        1 TS9      0.041700
     19 HG1        -1.9960    1.4900   -0.0770 h1        1 TS9      0.088700
     20 HD2        -2.0160   -0.6300    1.7700 ho        1 TS9      0.391000
     21 HD11       -3.2330   -1.3440   -0.3560 hc        1 TS9      0.032033
     22 HD12       -4.0310    0.2620   -0.5770 hc        1 TS9      0.032033
     23 HD13       -2.7830   -0.3030   -1.7770 hc        1 TS9      0.032033
@<TRIPOS>BOND
     1    1    2 1   
     2    1   12 1   
     3    1   13 1   
     4    2    3 1   
     5    2    4 1   
     6    2   14 1   
     7    3   10 1   
     8    3   11 1   
     9    4    5 1   
    10    4    6 1   
    11    4    7 1   
    12    5   15 1   
    13    6   16 1   
    14    6   17 1   
    15    6   18 1   
    16    7    8 1   
    17    7    9 1   
    18    7   19 1   
    19    8   20 1   
    20    9   21 1   
    21    9   22 1   
    22    9   23 1   
@<TRIPOS>SUBSTRUCTURE
     1 TS9         1 TEMP              0 ****  ****    0 ROOT
