@<TRIPOS>MOLECULE
TSA
   26    27     1     0     0
SMALL
bcc


@<TRIPOS>ATOM
      1 C1          0.1080    0.1340    0.0050 c3        1 TSA     -0.139800
      2 C2          1.5600    0.4900   -0.0190 c2        1 TSA     -0.076200
      3 C3          2.2840    0.5730    1.1020 c2        1 TSA     -0.259200
      4 C4          1.7490    0.1820    2.4400 c3        1 TSA      0.124300
      5 O5          2.0340    1.1810    3.4320 oh        1 TSA     -0.633800
      6 C5          0.2220   -0.0360    2.4640 c3        1 TSA      0.163100
      7 C6         -0.4830    0.6600    1.3100 c3        1 TSA     -0.080400
      8 O7         -0.0910   -1.4210    2.4770 os        1 TSA     -0.425600
      9 C8          0.1090   -2.1530    1.2640 c3        1 TSA      0.034100
     10 C9         -0.0790   -1.3840   -0.0430 c3        1 TSA     -0.062400
     11 C10        -0.6420    0.7790   -1.1980 c         1 TSA      0.921600
     12 O1         -1.9080    0.8040   -1.1670 o         1 TSA     -0.859800
     13 O2          0.0260    1.2620   -2.1590 o         1 TSA     -0.859800
     14 C11         1.4130   -2.9900    1.2950 c         1 TSA      0.900600
     15 O3          2.2700   -2.8350    2.2130 o         1 TSA     -0.859800
     16 O4          1.5350   -3.8770    0.3960 o         1 TSA     -0.859800
     17 H2          1.9720    0.7060   -1.0170 ha        1 TSA      0.138000
     18 H3          3.3440    0.8630    1.0870 ha        1 TSA      0.082000
     19 H4          2.2390   -0.7930    2.7550 h1        1 TSA      0.120700
     20 HO5         2.9600    1.4130    3.3130 ho        1 TSA      0.372000
     21 H5         -0.1770    0.3270    3.4540 h1        1 TSA      0.040700
     22 H61        -1.5800    0.4400    1.3310 hc        1 TSA      0.044200
     23 H62        -0.3400    1.7660    1.3830 hc        1 TSA      0.044200
     24 H8         -0.7270   -2.9180    1.3270 h1        1 TSA      0.027700
     25 H91         0.6230   -1.8200   -0.8010 hc        1 TSA      0.051200
     26 H92        -1.1270   -1.5660   -0.4060 hc        1 TSA      0.051200
@<TRIPOS>BOND
     1    1    2 1   
     2    1    7 1   
     3    1   10 1   
     4    1   11 1   
     5    2    3 2   
     6    2   17 1   
     7    3    4 1   
     8    3   18 1   
     9    4    5 1   
    10    4    6 1   
    11    4   19 1   
    12    5   20 1   
    13    6    7 1   
    14    6    8 1   
    15    6   21 1   
    16    7   22 1   
    17    7   23 1   
    18    8    9 1   
    19    9   10 1   
    20    9   14 1   
    21    9   24 1   
    22   10   25 1   
    23   10   26 1   
    24   11   12 1   
    25   11   13 1   
    26   14   15 1   
    27   14   16 1   
@<TRIPOS>SUBSTRUCTURE
     1 TSA         1 TEMP              0 ****  ****    0 ROOT
