@<TRIPOS>MOLECULE
TSA
   26    27     1     0     0
SMALL
bcc


@<TRIPOS>ATOM
      1 C1          0.0980    0.1250    0.0110 c3        1 TSA     -0.139800
      2 C2          1.5370    0.5300   -0.0100 c2        1 TSA     -0.076200
      3 C3          2.2570    0.6300    1.1110 c2        1 TSA     -0.259200
      4 C4          1.7350    0.2130    2.4470 c3        1 TSA      0.124300
      5 O5          1.9870    1.2140    3.4450 oh        1 TSA     -0.633800
      6 C5          0.2160   -0.0570    2.4680 c3        1 TSA      0.163100
      7 C6         -0.5110    0.6220    1.3190 c3        1 TSA     -0.080400
      8 O7         -0.0500   -1.4520    2.4730 os        1 TSA     -0.425600
      9 C8          0.1750   -2.1680    1.2550 c3        1 TSA      0.034100
     10 C9         -0.0380   -1.3980   -0.0470 c3        1 TSA     -0.062400
     11 C10        -0.6730    0.7520   -1.1880 c         1 TSA      0.921600
     12 O1         -1.9390    0.7340   -1.1590 o         1 TSA     -0.859800
     13 O2         -0.0210    1.2640   -2.1450 o         1 TSA     -0.859800
     14 C11         1.5060   -2.9620    1.2820 c         1 TSA      0.900600
     15 O3          2.3570   -2.7840    2.2010 o         1 TSA     -0.859800
     16 O4          1.6580   -3.8380    0.3770 o         1 TSA     -0.859800
     17 H2          1.9420    0.7660   -1.0070 ha        1 TSA      0.138000
     18 H3          3.3080    0.9550    1.0990 ha        1 TSA      0.082000
     19 H4          2.2580   -0.7480    2.7560 h1        1 TSA      0.120700
     20 HO5         2.9040    1.4780    3.3280 ho        1 TSA      0.372000
     21 H5         -0.1950    0.2860    3.4610 h1        1 TSA      0.040700
     22 H61        -0.4050    1.7320    1.3990 hc        1 TSA      0.044200
     23 H62        -1.6000    0.3650    1.3370 hc        1 TSA      0.044200
     24 H8         -0.6350   -2.9610    1.3120 h1        1 TSA      0.027700
     25 H91         0.6780   -1.8050   -0.8080 hc        1 TSA      0.051200
     26 H92        -1.0790   -1.6130   -0.4120 hc        1 TSA      0.051200
@<TRIPOS>BOND
     1    1    2 1   
     2    1    7 1   
     3    1   10 1   
     4    1   11 1   
     5    2    3 2   
     6    2   17 1   
     7    3    4 1   
     8    3   18 1   
     9    4    5 1   
    10    4    6 1   
    11    4   19 1   
    12    5   20 1   
    13    6    7 1   
    14    6    8 1   
    15    6   21 1   
    16    7   22 1   
    17    7   23 1   
    18    8    9 1   
    19    9   10 1   
    20    9   14 1   
    21    9   24 1   
    22   10   25 1   
    23   10   26 1   
    24   11   12 1   
    25   11   13 1   
    26   14   15 1   
    27   14   16 1   
@<TRIPOS>SUBSTRUCTURE
     1 TSA         1 TEMP              0 ****  ****    0 ROOT
