@<TRIPOS>MOLECULE
TSA
   26    27     1     0     0
SMALL
bcc


@<TRIPOS>ATOM
      1 C1          0.1500   -0.0270   -1.0770 c3        1 TSA     -0.138800
      2 C2         -0.0470   -1.3890   -0.4960 c2        1 TSA     -0.082200
      3 C3          0.3780   -1.7040    0.7310 c2        1 TSA     -0.256200
      4 C4          0.9780   -0.7070    1.6680 c3        1 TSA      0.130300
      5 O5          2.1880   -1.2170    2.2340 oh        1 TSA     -0.630800
      6 C5          1.2520    0.6660    1.0160 c3        1 TSA      0.132100
      7 C6          1.4300    0.5600   -0.4900 c3        1 TSA     -0.084400
      8 O7          0.2490    1.6150    1.3370 os        1 TSA     -0.420600
      9 C8         -1.0260    1.4640    0.7050 c3        1 TSA      0.033100
     10 C9         -1.0200    0.8860   -0.7090 c3        1 TSA     -0.061400
     11 C10         0.2830   -0.0920   -2.6280 c         1 TSA      0.921600
     12 O1          0.7280    0.9280   -3.2320 o         1 TSA     -0.859300
     13 O2         -0.0400   -1.1560   -3.2340 o         1 TSA     -0.859300
     14 C11        -2.0600    0.7930    1.6430 c         1 TSA      0.901600
     15 O3         -1.7040    0.2870    2.7460 o         1 TSA     -0.858800
     16 O4         -3.2740    0.8470    1.2760 o         1 TSA     -0.858800
     17 H2         -0.5440   -2.1130   -1.1620 ha        1 TSA      0.139000
     18 H3          0.2510   -2.7110    1.1530 ha        1 TSA      0.096000
     19 H4          0.2810   -0.5470    2.5500 h1        1 TSA      0.146700
     20 HO5         2.7690   -1.4170    1.4930 ho        1 TSA      0.373000
     21 H5          2.1760    1.1040    1.4950 h1        1 TSA      0.029700
     22 H61         2.3040   -0.0960   -0.7290 hc        1 TSA      0.039200
     23 H62         1.6120    1.5690   -0.9400 hc        1 TSA      0.039200
     24 H8         -1.3630    2.5450    0.6260 h1        1 TSA      0.027700
     25 H91        -1.0050    1.7410   -1.4380 hc        1 TSA      0.051200
     26 H92        -1.9840    0.3310   -0.8550 hc        1 TSA      0.051200
@<TRIPOS>BOND
     1    1    2 1   
     2    1    7 1   
     3    1   10 1   
     4    1   11 1   
     5    2    3 2   
     6    2   17 1   
     7    3    4 1   
     8    3   18 1   
     9    4    5 1   
    10    4    6 1   
    11    4   19 1   
    12    5   20 1   
    13    6    7 1   
    14    6    8 1   
    15    6   21 1   
    16    7   22 1   
    17    7   23 1   
    18    8    9 1   
    19    9   10 1   
    20    9   14 1   
    21    9   24 1   
    22   10   25 1   
    23   10   26 1   
    24   11   12 1   
    25   11   13 1   
    26   14   15 1   
    27   14   16 1   
@<TRIPOS>SUBSTRUCTURE
     1 TSA         1 TEMP              0 ****  ****    0 ROOT
