@<TRIPOS>MOLECULE
TSB
   51    53     1     0     0
SMALL
bcc


@<TRIPOS>ATOM
      1 CG2         3.3700    0.6050    5.9390 c3        1 TSB     -0.130100
      2 N           1.4280    2.0480    4.0960 n3        1 TSB     -0.888800
      3 CA          1.7360    0.6410    4.0160 c3        1 TSB      0.080500
      4 CB          2.0710    0.0310    5.4060 c3        1 TSB      0.153100
      5 OG1         1.0000    0.2000    6.3130 oh        1 TSB     -0.589800
      6 S1         -0.0940   -2.6240    2.3100 s6        1 TSB      1.698100
      7 O1S         0.6110   -3.8170    2.2250 o         1 TSB     -0.633300
      8 O2S        -1.3990   -2.6060    2.7620 o         1 TSB     -0.633300
      9 O5'        -0.2010   -2.1440    0.7040 os        1 TSB     -0.570500
     10 C5'        -1.3750   -1.6530    0.1040 c3        1 TSB      0.168400
     11 C4'        -1.3430   -0.1280    0.0110 c3        1 TSB      0.058100
     12 O4'        -0.0830    0.3280   -0.5010 os        1 TSB     -0.400600
     13 C3'        -2.4510    0.3930   -0.9260 c3        1 TSB      0.093100
     14 O3'        -3.2840    1.3390   -0.2980 oh        1 TSB     -0.582800
     15 C2'        -1.7060    1.0170   -2.1310 c3        1 TSB      0.077100
     16 O2'        -1.8270    2.4260   -2.0960 oh        1 TSB     -0.587800
     17 C1'        -0.1960    0.7120   -1.8750 c3        1 TSB      0.260800
     18 N9          0.3380   -0.3220   -2.7320 na        1 TSB     -0.300000
     19 C8          0.9610   -1.5370   -2.3440 cc        1 TSB      0.420700
     20 N7          1.4690   -2.2280   -3.3720 nd        1 TSB     -0.549100
     21 C5          1.1930   -1.4530   -4.5100 ca        1 TSB     -0.231200
     22 C6          1.4720   -1.6350   -5.9060 ca        1 TSB      0.762200
     23 N6          2.1100   -2.7670   -6.3390 nh        1 TSB     -0.960500
     24 N1          1.0710   -0.6630   -6.7940 nb        1 TSB     -0.796000
     25 C2          0.4170    0.4160   -6.2910 ca        1 TSB      0.684900
     26 N3          0.0790    0.7180   -5.0150 nb        1 TSB     -0.740000
     27 C4          0.4840   -0.2380   -4.1260 ca        1 TSB      0.453800
     28 HG21        4.2070    0.3820    5.2370 hc        1 TSB      0.055033
     29 HG22        3.2960    1.7120    6.0640 hc        1 TSB      0.055033
     30 HG23        3.5980    0.1480    6.9320 hc        1 TSB      0.055033
     31 HN11        1.2780    2.4270    3.1800 hn        1 TSB      0.369800
     32 HN12        0.6050    2.1980    4.6490 hn        1 TSB      0.369800
     33 HA          2.6600    0.5350    3.3700 h1        1 TSB      0.086700
     34 HB          2.1650   -1.0890    5.3040 h1        1 TSB      0.069700
     35 HG1         1.0480    1.0960    6.6690 ho        1 TSB      0.412000
     36 HN8         1.8350   -1.7860    3.1780 hn        1 TSB      0.343500
     37 H5'1       -1.3880   -2.1150   -0.9220 h1        1 TSB      0.074200
     38 H5'2       -2.2840   -1.9720    0.6850 h1        1 TSB      0.074200
     39 H4'        -1.4180    0.3310    1.0380 h1        1 TSB      0.115700
     40 H3'        -3.1470   -0.4280   -1.2480 h1        1 TSB      0.097700
     41 HO3'       -2.7290    2.0860   -0.0290 ho        1 TSB      0.421000
     42 H2'        -2.0740    0.6100   -3.1070 h1        1 TSB      0.087700
     43 HO2'       -2.7240    2.6330   -2.3920 ho        1 TSB      0.423000
     44 H1'         0.4290    1.6490   -1.9860 h2        1 TSB      0.119700
     45 H8          0.9830   -1.8360   -1.2820 h5        1 TSB      0.103800
     46 HN61        2.3530   -2.8770   -7.2920 hn        1 TSB      0.448800
     47 HN62        2.4410   -3.4140   -5.6680 hn        1 TSB      0.448800
     48 H2          0.1140    1.1690   -7.0510 h5        1 TSB      0.051100
     49 C           0.6160   -0.1900    3.3470 c         1 TSB      0.659100
     50 O          -0.4960    0.2950    3.0850 o         1 TSB     -0.572100
     51 N8          0.8900   -1.5150    2.9970 n         1 TSB     -0.684300
@<TRIPOS>BOND
     1    1    4 1   
     2    1   28 1   
     3    1   29 1   
     4    1   30 1   
     5    2    3 1   
     6    2   31 1   
     7    2   32 1   
     8    3    4 1   
     9    3   33 1   
    10    3   49 1   
    11    4    5 1   
    12    4   34 1   
    13    5   35 1   
    14    6    7 2   
    15    6    8 2   
    16    6    9 1   
    17    6   51 1   
    18    9   10 1   
    19   10   11 1   
    20   10   37 1   
    21   10   38 1   
    22   11   12 1   
    23   11   13 1   
    24   11   39 1   
    25   12   17 1   
    26   13   14 1   
    27   13   15 1   
    28   13   40 1   
    29   14   41 1   
    30   15   16 1   
    31   15   17 1   
    32   15   42 1   
    33   16   43 1   
    34   17   18 1   
    35   17   44 1   
    36   18   19 1   
    37   18   27 1   
    38   19   20 2   
    39   19   45 1   
    40   20   21 1   
    41   21   22 ar  
    42   21   27 ar  
    43   22   23 1   
    44   22   24 ar  
    45   23   46 1   
    46   23   47 1   
    47   24   25 ar  
    48   25   26 ar  
    49   25   48 1   
    50   26   27 ar  
    51   36   51 1   
    52   49   50 2   
    53   49   51 1   
@<TRIPOS>SUBSTRUCTURE
     1 TSB         1 TEMP              0 ****  ****    0 ROOT
