@<TRIPOS>MOLECULE
TSC
   25    26     1     0     0
SMALL
bcc


@<TRIPOS>ATOM
      1 O1          3.7100   -1.2980    0.7930 oh        1 TSC     -0.610800
      2 CA          2.5760   -0.7530    0.1150 c3        1 TSC      0.370300
      3 N           2.9890    0.0140   -1.0460 n3        1 TSC     -0.946800
      4 CB          1.8130    0.0250    1.2120 c3        1 TSC     -0.041200
      5 CG          0.5850    0.6350    0.6930 cc        1 TSC     -0.148400
      6 CD1         0.3330    2.0010    0.5510 cd        1 TSC     -0.105100
      7 NE1        -0.9510    2.2060    0.0420 na        1 TSC     -0.192400
      8 CE2        -1.5590    0.9600   -0.1320 ca        1 TSC     -0.046200
      9 CD2        -0.6140   -0.0600    0.2650 ca        1 TSC     -0.090800
     10 CZ2        -2.8370    0.6190   -0.6040 ca        1 TSC     -0.145000
     11 CH2        -3.1610   -0.7260   -0.6710 ca        1 TSC     -0.111000
     12 CZ3        -2.2490   -1.7250   -0.2840 ca        1 TSC     -0.156000
     13 CE3        -0.9830   -1.4040    0.1810 ca        1 TSC     -0.083000
     14 HO1         4.2110   -1.8210    0.1560 ho        1 TSC      0.413000
     15 HA          1.9230   -1.6000   -0.2580 h2        1 TSC      0.050700
     16 HN1         2.1890    0.4140   -1.4930 hn        1 TSC      0.361300
     17 HN2         3.6320    0.7370   -0.7910 hn        1 TSC      0.361300
     18 HB1         1.5650   -0.7000    2.0330 hc        1 TSC      0.063200
     19 HB2         2.4900    0.8060    1.6470 hc        1 TSC      0.063200
     20 HD1         0.9820    2.8490    0.7800 h4        1 TSC      0.166000
     21 HE1        -1.3850    3.0780   -0.0970 hn        1 TSC      0.299700
     22 HZ2        -3.5540    1.3930   -0.9060 ha        1 TSC      0.132000
     23 HH2        -4.1550   -1.0250   -1.0360 ha        1 TSC      0.130000
     24 HZ3        -2.5530   -2.7800   -0.3550 ha        1 TSC      0.131000
     25 HE3        -0.2740   -2.1880    0.4840 ha        1 TSC      0.136000
@<TRIPOS>BOND
     1    1    2 1   
     2    1   14 1   
     3    2    3 1   
     4    2    4 1   
     5    2   15 1   
     6    3   16 1   
     7    3   17 1   
     8    4    5 1   
     9    4   18 1   
    10    4   19 1   
    11    5    6 2   
    12    5    9 1   
    13    6    7 1   
    14    6   20 1   
    15    7    8 1   
    16    7   21 1   
    17    8    9 ar  
    18    8   10 ar  
    19    9   13 ar  
    20   10   11 ar  
    21   10   22 1   
    22   11   12 ar  
    23   11   23 1   
    24   12   13 ar  
    25   12   24 1   
    26   13   25 1   
@<TRIPOS>SUBSTRUCTURE
     1 TSC         1 TEMP              0 ****  ****    0 ROOT
