@<TRIPOS>MOLECULE
TSC
   26    27     1     0     0
SMALL
bcc


@<TRIPOS>ATOM
      1 O1          0.0190    0.7330    0.6470 oh        1 TSC     -0.567800
      2 CA          1.1930    0.2200    0.0820 c3        1 TSC      0.340300
      3 N           2.0330   -0.2440    1.2780 nz        1 TSC     -0.886600
      4 CB          1.9060    1.3490   -0.7030 c3        1 TSC     -0.000200
      5 CG          1.5590    1.2380   -2.1200 cc        1 TSC     -0.232400
      6 CD1         2.4220    0.8840   -3.1670 cd        1 TSC     -0.058100
      7 NE1         1.7450    0.9290   -4.3760 na        1 TSC     -0.164400
      8 CE2         0.4260    1.3400   -4.1350 ca        1 TSC     -0.050200
      9 CD2         0.2740    1.5430   -2.7140 ca        1 TSC     -0.085800
     10 CZ2        -0.6440    1.5520   -5.0190 ca        1 TSC     -0.122000
     11 CH2        -1.8500    1.9690   -4.4770 ca        1 TSC     -0.103000
     12 CZ3        -2.0060    2.1760   -3.0930 ca        1 TSC     -0.127000
     13 CE3        -0.9590    1.9670   -2.2100 ca        1 TSC     -0.114000
     14 HO1        -0.7230    0.1450    0.4330 ho        1 TSC      0.456000
     15 HA          1.0210   -0.6890   -0.5660 hx        1 TSC      0.113700
     16 HN1         2.2010    0.5540    1.8970 hn        1 TSC      0.457133
     17 HN2         1.5330   -0.9620    1.8050 hn        1 TSC      0.457133
     18 HB1         3.0180    1.2860   -0.5700 hc        1 TSC      0.081200
     19 HB2         1.5530    2.3360   -0.2920 hc        1 TSC      0.081200
     20 HD1         3.4800    0.6130   -3.1280 h4        1 TSC      0.172000
     21 HE1         2.1410    0.7810   -5.2680 hn        1 TSC      0.317700
     22 HZ2        -0.5270    1.3980   -6.1010 ha        1 TSC      0.150000
     23 HH2        -2.7080    2.1500   -5.1440 ha        1 TSC      0.150000
     24 HZ3        -2.9820    2.5180   -2.7140 ha        1 TSC      0.145000
     25 HE3        -1.0810    2.1420   -1.1310 ha        1 TSC      0.132000
     26 HN3         2.9260   -0.6130    0.9480 hn        1 TSC      0.457133
@<TRIPOS>BOND
     1    1    2 1   
     2    1   14 1   
     3    2    3 1   
     4    2    4 1   
     5    2   15 1   
     6    3   16 1   
     7    3   17 1   
     8    3   26 1   
     9    4    5 1   
    10    4   18 1   
    11    4   19 1   
    12    5    6 2   
    13    5    9 1   
    14    6    7 1   
    15    6   20 1   
    16    7    8 1   
    17    7   21 1   
    18    8    9 ar  
    19    8   10 ar  
    20    9   13 ar  
    21   10   11 ar  
    22   10   22 1   
    23   11   12 ar  
    24   11   23 1   
    25   12   13 ar  
    26   12   24 1   
    27   13   25 1   
@<TRIPOS>SUBSTRUCTURE
     1 TSC         1 TEMP              0 ****  ****    0 ROOT
