@<TRIPOS>MOLECULE
TSC
   26    27     1     0     0
SMALL
bcc


@<TRIPOS>ATOM
      1 O1          0.0220    0.6970    0.6440 oh        1 TSC     -0.567800
      2 CA          1.2000    0.2000    0.0710 c3        1 TSC      0.340300
      3 N           2.0440   -0.2730    1.2610 n4        1 TSC     -0.886600
      4 CB          1.9040    1.3440   -0.7000 c3        1 TSC     -0.000200
      5 CG          1.5570    1.2480   -2.1170 cc        1 TSC     -0.232400
      6 CD1         2.4230    0.9140   -3.1690 cd        1 TSC     -0.058100
      7 NE1         1.7460    0.9690   -4.3770 na        1 TSC     -0.164400
      8 CE2         0.4240    1.3660   -4.1310 ca        1 TSC     -0.050200
      9 CD2         0.2700    1.5500   -2.7080 ca        1 TSC     -0.085800
     10 CZ2        -0.6490    1.5810   -5.0120 ca        1 TSC     -0.122000
     11 CH2        -1.8570    1.9820   -4.4650 ca        1 TSC     -0.103000
     12 CZ3        -2.0150    2.1700   -3.0790 ca        1 TSC     -0.127000
     13 CE3        -0.9660    1.9580   -2.1980 ca        1 TSC     -0.114000
     14 HO1        -0.7150    0.1070    0.4230 ho        1 TSC      0.456000
     15 HA          1.0330   -0.7020   -0.5880 hx        1 TSC      0.113700
     16 HN1         2.2070    0.5190    1.8900 hn        1 TSC      0.457133
     17 HN2         1.5480   -1.0010    1.7800 hn        1 TSC      0.457133
     18 HB1         3.0170    1.2880   -0.5680 hc        1 TSC      0.081200
     19 HB2         1.5440    2.3230   -0.2760 hc        1 TSC      0.081200
     20 HD1         3.4830    0.6500   -3.1340 h4        1 TSC      0.172000
     21 HE1         2.1430    0.8340   -5.2710 hn        1 TSC      0.317700
     22 HZ2        -0.5310    1.4410   -6.0960 ha        1 TSC      0.150000
     23 HH2        -2.7170    2.1640   -5.1290 ha        1 TSC      0.150000
     24 HZ3        -2.9930    2.5000   -2.6960 ha        1 TSC      0.145000
     25 HE3        -1.0890    2.1190   -1.1170 ha        1 TSC      0.132000
     26 HN3         2.9390   -0.6310    0.9260 hn        1 TSC      0.457133
@<TRIPOS>BOND
     1    1    2 1   
     2    1   14 1   
     3    2    3 1   
     4    2    4 1   
     5    2   15 1   
     6    3   16 1   
     7    3   17 1   
     8    3   26 1   
     9    4    5 1   
    10    4   18 1   
    11    4   19 1   
    12    5    6 2   
    13    5    9 1   
    14    6    7 1   
    15    6   20 1   
    16    7    8 1   
    17    7   21 1   
    18    8    9 ar  
    19    8   10 ar  
    20    9   13 ar  
    21   10   11 ar  
    22   10   22 1   
    23   11   12 ar  
    24   11   23 1   
    25   12   13 ar  
    26   12   24 1   
    27   13   25 1   
@<TRIPOS>SUBSTRUCTURE
     1 TSC         1 TEMP              0 ****  ****    0 ROOT
