@<TRIPOS>MOLECULE
TSC
   26    27     1     0     0
SMALL
bcc


@<TRIPOS>ATOM
      1 O1          0.0170    0.7210    0.6440 oh        1 TSC     -0.567800
      2 CA          1.1900    0.2070    0.0760 c3        1 TSC      0.340300
      3 N           2.0280   -0.2650    1.2700 n4        1 TSC     -0.886600
      4 CB          1.9070    1.3380   -0.7030 c3        1 TSC     -0.000200
      5 CG          1.5590    1.2360   -2.1200 cc        1 TSC     -0.232400
      6 CD1         2.4210    0.8840   -3.1690 cd        1 TSC     -0.058100
      7 NE1         1.7450    0.9380   -4.3770 na        1 TSC     -0.164400
      8 CE2         0.4280    1.3530   -4.1350 ca        1 TSC     -0.050200
      9 CD2         0.2750    1.5490   -2.7120 ca        1 TSC     -0.085800
     10 CZ2        -0.6420    1.5730   -5.0180 ca        1 TSC     -0.122000
     11 CH2        -1.8460    1.9920   -4.4740 ca        1 TSC     -0.103000
     12 CZ3        -2.0020    2.1920   -3.0890 ca        1 TSC     -0.127000
     13 CE3        -0.9560    1.9740   -2.2060 ca        1 TSC     -0.114000
     14 HO1        -0.7260    0.1360    0.4260 ho        1 TSC      0.456000
     15 HA          1.0150   -0.6990   -0.5770 hx        1 TSC      0.113700
     16 HN1         2.1990    0.5300    1.8940 hn        1 TSC      0.457133
     17 HN2         2.9200   -0.6360    0.9390 hn        1 TSC      0.457133
     18 HB1         3.0190    1.2700   -0.5700 hc        1 TSC      0.081200
     19 HB2         1.5570    2.3240   -0.2860 hc        1 TSC      0.081200
     20 HD1         3.4780    0.6080   -3.1310 h4        1 TSC      0.172000
     21 HE1         2.1410    0.7930   -5.2710 hn        1 TSC      0.317700
     22 HZ2        -0.5260    1.4240   -6.1000 ha        1 TSC      0.150000
     23 HH2        -2.7040    2.1790   -5.1390 ha        1 TSC      0.150000
     24 HZ3        -2.9760    2.5360   -2.7080 ha        1 TSC      0.145000
     25 HE3        -1.0770    2.1440   -1.1260 ha        1 TSC      0.132000
     26 HN3         1.5250   -0.9840    1.7940 hn        1 TSC      0.457133
@<TRIPOS>BOND
     1    1    2 1   
     2    1   14 1   
     3    2    3 1   
     4    2    4 1   
     5    2   15 1   
     6    3   16 1   
     7    3   17 1   
     8    3   26 1   
     9    4    5 1   
    10    4   18 1   
    11    4   19 1   
    12    5    6 2   
    13    5    9 1   
    14    6    7 1   
    15    6   20 1   
    16    7    8 1   
    17    7   21 1   
    18    8    9 ar  
    19    8   10 ar  
    20    9   13 ar  
    21   10   11 ar  
    22   10   22 1   
    23   11   12 ar  
    24   11   23 1   
    25   12   13 ar  
    26   12   24 1   
    27   13   25 1   
@<TRIPOS>SUBSTRUCTURE
     1 TSC         1 TEMP              0 ****  ****    0 ROOT
