@<TRIPOS>MOLECULE
TSD
   22    21     1     0     0
SMALL
bcc


@<TRIPOS>ATOM
      1 C1          0.0390    0.1570   -0.1390 c         1 TSD      0.910600
      2 O12         1.1920   -0.3370   -0.3030 o         1 TSD     -0.852300
      3 O13        -0.3010    0.8290    0.8770 o         1 TSD     -0.852300
      4 C2         -1.0140   -0.0410   -1.2480 c3        1 TSD     -0.183400
      5 C3         -1.0350   -1.4510   -1.7640 c3        1 TSD     -0.247400
      6 SI4        -1.7860   -1.5140   -3.4210 Si        1 TSD      0.591000
      7 C4         -0.7050   -0.7370   -4.6870 c3        1 TSD     -0.286767
      8 C5         -2.0570   -3.2670   -3.9260 c3        1 TSD     -0.286767
      9 C6         -3.4240   -0.6780   -3.4630 c3        1 TSD     -0.286767
     10 D31        -1.5780   -2.1060   -1.0390 hc        1 TSD      0.062200
     11 D32         0.0250   -1.8240   -1.7860 hc        1 TSD      0.062200
     12 D21        -2.0170    0.2530   -0.8420 hc        1 TSD      0.016700
     13 D22        -0.7570    0.6710   -2.0760 hc        1 TSD      0.016700
     14 H41        -0.1640    0.1410   -4.2640 hc        1 TSD      0.037256
     15 H42         0.0630   -1.4530   -5.0570 hc        1 TSD      0.037256
     16 H43        -1.2890   -0.3830   -5.5670 hc        1 TSD      0.037256
     17 H51        -2.6920   -3.8040   -3.1850 hc        1 TSD      0.037256
     18 H52        -2.5610   -3.3370   -4.9150 hc        1 TSD      0.037256
     19 H53        -1.0910   -3.8170   -3.9990 hc        1 TSD      0.037256
     20 H61        -3.4140    0.2380   -2.8270 hc        1 TSD      0.037256
     21 H62        -3.7020   -0.3700   -4.4960 hc        1 TSD      0.037256
     22 H63        -4.2300   -1.3430   -3.0800 hc        1 TSD      0.037256
@<TRIPOS>BOND
     1    1    2 1   
     2    1    3 1   
     3    1    4 1   
     4    4    5 1   
     5    4   12 1   
     6    4   13 1   
     7    5    6 1   
     8    5   10 1   
     9    5   11 1   
    10    6    7 1   
    11    6    8 1   
    12    6    9 1   
    13    7   14 1   
    14    7   15 1   
    15    7   16 1   
    16    8   17 1   
    17    8   18 1   
    18    8   19 1   
    19    9   20 1   
    20    9   21 1   
    21    9   22 1   
@<TRIPOS>SUBSTRUCTURE
     1 TSD         1 TEMP              0 ****  ****    0 ROOT
