@<TRIPOS>MOLECULE
TSD
   22    21     1     0     0
SMALL
bcc


@<TRIPOS>ATOM
      1 C1         -0.0250    0.1640   -0.1060 c         1 TSD      0.910600
      2 O12         1.1440   -0.2950   -0.2650 o         1 TSD     -0.852300
      3 O13        -0.3940    0.8120    0.9150 o         1 TSD     -0.852300
      4 C2         -1.0600   -0.0490   -1.2290 c3        1 TSD     -0.183400
      5 C3         -1.0350   -1.4520   -1.7640 c3        1 TSD     -0.247400
      6 Si4        -1.7670   -1.5140   -3.4300 Si        1 TSD      0.591000
      7 C4         -0.6980   -0.6880   -4.6740 c3        1 TSD     -0.286767
      8 C5         -1.9820   -3.2670   -3.9610 c3        1 TSD     -0.286767
      9 C6         -3.4280   -0.7250   -3.4780 c3        1 TSD     -0.286767
     10 D31        -1.5660   -2.1320   -1.0540 hc        1 TSD      0.062200
     11 D32         0.0350   -1.7940   -1.7810 hc        1 TSD      0.062200
     12 D21        -2.0750    0.2100   -0.8300 hc        1 TSD      0.016700
     13 D22        -0.8160    0.6810   -2.0450 hc        1 TSD      0.016700
     14 H41        -0.1930    0.2040   -4.2360 hc        1 TSD      0.037367
     15 H42         0.1010   -1.3740   -5.0390 hc        1 TSD      0.037367
     16 H43        -1.2810   -0.3480   -5.5590 hc        1 TSD      0.037367
     17 H51        -2.6150   -3.8300   -3.2380 hc        1 TSD      0.037367
     18 H52        -2.4670   -3.3370   -4.9600 hc        1 TSD      0.037367
     19 H53        -1.0010   -3.7890   -4.0240 hc        1 TSD      0.037367
     20 H61        -3.4520    0.1810   -2.8290 hc        1 TSD      0.037367
     21 H62        -3.7050   -0.4110   -4.5090 hc        1 TSD      0.037367
     22 H63        -4.2180   -1.4190   -3.1120 hc        1 TSD      0.037367
@<TRIPOS>BOND
     1    1    2 1   
     2    1    3 1   
     3    1    4 1   
     4    4    5 1   
     5    4   12 1   
     6    4   13 1   
     7    5    6 1   
     8    5   10 1   
     9    5   11 1   
    10    6    7 1   
    11    6    8 1   
    12    6    9 1   
    13    7   14 1   
    14    7   15 1   
    15    7   16 1   
    16    8   17 1   
    17    8   18 1   
    18    8   19 1   
    19    9   20 1   
    20    9   21 1   
    21    9   22 1   
@<TRIPOS>SUBSTRUCTURE
     1 TSD         1 TEMP              0 ****  ****    0 ROOT
