@<TRIPOS>MOLECULE
TSD
   22    21     1     0     0
SMALL
bcc


@<TRIPOS>ATOM
      1 C1         -3.5870    1.0860    2.9040 c         1 TSD      0.910600
      2 O12        -3.7240   -0.1660    3.0240 o         1 TSD     -0.852300
      3 O13        -4.0440    1.9260    3.7320 o         1 TSD     -0.852300
      4 C2         -2.7950    1.6310    1.6990 c3        1 TSD     -0.183400
      5 C3         -3.1710    0.9440    0.4170 c3        1 TSD     -0.247400
      6 SI4        -1.8490    1.1310   -0.8210 Si        1 TSD      0.591000
      7 C4         -0.3580    0.1560   -0.3740 c3        1 TSD     -0.286767
      8 C5         -2.4320    0.5300   -2.4640 c3        1 TSD     -0.286767
      9 C6         -1.3510    2.8890   -1.0310 c3        1 TSD     -0.286767
     10 D31        -4.1440    1.3530    0.0470 hc        1 TSD      0.062200
     11 D32        -3.3570   -0.1390    0.6490 hc        1 TSD      0.062200
     12 D21        -2.9690    2.7350    1.6290 hc        1 TSD      0.016700
     13 D22        -1.7070    1.4680    1.9200 hc        1 TSD      0.016700
     14 H41        -0.4550   -0.9040   -0.7030 hc        1 TSD      0.037256
     15 H42        -0.2030    0.1470    0.7300 hc        1 TSD      0.037256
     16 H43         0.5620    0.5720   -0.8420 hc        1 TSD      0.037256
     17 H51        -1.6610    0.6770   -3.2520 hc        1 TSD      0.037256
     18 H52        -3.3510    1.0710   -2.7850 hc        1 TSD      0.037256
     19 H53        -2.6770   -0.5550   -2.4300 hc        1 TSD      0.037256
     20 H61        -0.3290    2.9790   -1.4610 hc        1 TSD      0.037256
     21 H62        -1.3550    3.4190   -0.0490 hc        1 TSD      0.037256
     22 H63        -2.0510    3.4320   -1.7060 hc        1 TSD      0.037256
@<TRIPOS>BOND
     1    1    2 1   
     2    1    3 1   
     3    1    4 1   
     4    4    5 1   
     5    4   12 1   
     6    4   13 1   
     7    5    6 1   
     8    5   10 1   
     9    5   11 1   
    10    6    7 1   
    11    6    8 1   
    12    6    9 1   
    13    7   14 1   
    14    7   15 1   
    15    7   16 1   
    16    8   17 1   
    17    8   18 1   
    18    8   19 1   
    19    9   20 1   
    20    9   21 1   
    21    9   22 1   
@<TRIPOS>SUBSTRUCTURE
     1 TSD         1 TEMP              0 ****  ****    0 ROOT
