@<TRIPOS>MOLECULE
TSD
   22    20     1     0     0
SMALL
bcc


@<TRIPOS>ATOM
      1 C1          1.5510    1.0370    2.6850 c1        1 TSD      0.330000
      2 O12         2.8100    1.0370    2.6850 os        1 TSD     -0.586000
      3 O13         0.9210    1.0370    3.7760 o         1 TSD     -0.588000
      4 C2          0.7950    1.0370    1.3750 c3        1 TSD     -0.212000
      5 C3          0.5420   -0.3890    0.9390 c3        1 TSD     -0.480000
      6 SI4        -0.3900   -0.3890   -0.6760 Si        1 TSD      1.207000
      7 C4          0.6170    0.4900   -1.9750 c3        1 TSD     -0.558667
      8 C5         -0.7010   -2.1470   -1.2140 c3        1 TSD     -0.558667
      9 C6         -2.0190    0.4900   -0.4530 c3        1 TSD     -0.558667
     10 D31         0.0110   -0.8520    1.6240 hc        1 TSD      0.101500
     11 D32         1.4010   -0.8520    0.8210 hc        1 TSD      0.101500
     12 D21        -0.0640    1.5010    1.4930 hc        1 TSD      0.056000
     13 D22         1.3250    1.5000    0.6910 hc        1 TSD      0.056000
     14 H41         1.5330    0.1530   -1.9600 hc        1 TSD      0.076556
     15 H42         0.6200    1.4490   -1.7920 hc        1 TSD      0.076556
     16 H43         0.2250    0.3280   -2.8550 hc        1 TSD      0.076556
     17 H51        -1.2280   -2.6070   -0.5340 hc        1 TSD      0.076556
     18 H52         0.1520   -2.6070   -1.3310 hc        1 TSD      0.076556
     19 H53        -1.1890   -2.1470   -2.0590 hc        1 TSD      0.076556
     20 H61        -2.4640    0.1530    0.3490 hc        1 TSD      0.076556
     21 H62        -1.8620    1.4480   -0.3580 hc        1 TSD      0.076556
     22 H63        -2.5860    0.3280   -1.2310 hc        1 TSD      0.076556
@<TRIPOS>BOND
     1    1    3 1   
     2    1    4 1   
     3    4    5 1   
     4    4   12 1   
     5    4   13 1   
     6    5    6 1   
     7    5   10 1   
     8    5   11 1   
     9    6    7 1   
    10    6    8 1   
    11    6    9 1   
    12    7   14 1   
    13    7   15 1   
    14    7   16 1   
    15    8   17 1   
    16    8   18 1   
    17    8   19 1   
    18    9   20 1   
    19    9   21 1   
    20    9   22 1   
@<TRIPOS>SUBSTRUCTURE
     1 TSD         1 TEMP              0 ****  ****    0 ROOT
