@<TRIPOS>MOLECULE
TSF
   53    54     1     0     0
SMALL
bcc


@<TRIPOS>ATOM
      1 O2P        -0.7720   -3.4950    2.8330 o         1 TSF     -0.933500
      2 P          -0.4980   -2.1850    2.1700 p5        1 TSF      1.217700
      3 O3P         0.8510   -2.1230    1.4480 o         1 TSF     -0.933500
      4 O1P        -0.7670   -0.9210    2.9370 o         1 TSF     -0.933500
      5 C19        -1.6590   -2.0390    0.7610 c3        1 TSF      0.246400
      6 F1         -1.3780   -2.9740   -0.2070 f         1 TSF     -0.279800
      7 F2         -2.9450   -2.3570    1.1310 f         1 TSF     -0.279800
      8 C18        -1.5060   -0.5920    0.2930 c3        1 TSF     -0.131400
      9 C17        -2.1680   -0.2680   -1.0250 c3        1 TSF     -0.088400
     10 C16        -2.1120    1.2090   -1.3660 c3        1 TSF     -0.103400
     11 C15        -1.3320    1.5250   -2.6430 c3        1 TSF      0.055000
     12 N5          0.1140    1.6130   -2.5600 n         1 TSF     -0.261000
     13 C9          0.6830    2.6380   -1.7420 cc        1 TSF     -0.290600
     14 C4          0.3730    4.0480   -1.7190 c         1 TSF      0.762700
     15 O2         -0.5150    4.6440   -2.3600 o         1 TSF     -0.657500
     16 N3          1.2010    4.8150   -0.8650 n         1 TSF     -0.591500
     17 C6          0.8390    0.4000   -2.1780 c         1 TSF      0.752500
     18 O4          0.7320   -0.6900   -2.7470 o         1 TSF     -0.554500
     19 N7          1.8830    0.7190   -1.1980 n         1 TSF     -0.307000
     20 C8          1.7260    2.1030   -0.9480 cd        1 TSF      0.179200
     21 N1          2.4940    2.8990   -0.1200 n         1 TSF     -0.430100
     22 C2          2.2360    4.2810   -0.0800 c         1 TSF      0.813500
     23 O1          2.9380    5.0310    0.6390 o         1 TSF     -0.678500
     24 C10         2.1360   -0.2040   -0.1070 c3        1 TSF      0.007000
     25 C11         3.6180   -0.4860    0.1780 c3        1 TSF      0.125100
     26 O19         4.2880    0.6910    0.6240 oh        1 TSF     -0.654800
     27 C12         3.6880   -1.5810    1.2640 c3        1 TSF      0.034100
     28 O21         4.7860   -1.2970    2.1210 oh        1 TSF     -0.618800
     29 C13         3.7950   -2.9960    0.6750 c3        1 TSF      0.132100
     30 O23         2.8000   -3.2380   -0.2870 oh        1 TSF     -0.645800
     31 C14         3.6850   -4.0370    1.7990 c3        1 TSF      0.087400
     32 O26         4.7930   -3.9730    2.6800 oh        1 TSF     -0.641800
     33 H181       -0.4000   -0.4140    0.2270 hc        1 TSF      0.074200
     34 H182       -1.8980    0.0430    1.1310 hc        1 TSF      0.074200
     35 H171       -3.2390   -0.5990   -0.9760 hc        1 TSF      0.040200
     36 H172       -1.6760   -0.8780   -1.8310 hc        1 TSF      0.040200
     37 H161       -1.6820    1.7870   -0.5050 hc        1 TSF      0.040200
     38 H162       -3.1550    1.5930   -1.5230 hc        1 TSF      0.040200
     39 H151       -1.6720    2.5280   -3.0340 h1        1 TSF      0.063200
     40 H152       -1.5470    0.7340   -3.4170 h1        1 TSF      0.063200
     41 H3          1.0280    5.7900   -0.7740 hn        1 TSF      0.337500
     42 H1          3.2390    2.5150    0.4280 hn        1 TSF      0.386500
     43 H101        1.6380   -1.2020   -0.3490 h1        1 TSF      0.146200
     44 H102        1.6510    0.1620    0.8460 h1        1 TSF      0.146200
     45 H11         4.1650   -0.7950   -0.7530 h1        1 TSF      0.066700
     46 H19         4.2070    0.7230    1.5870 ho        1 TSF      0.416000
     47 H12         2.7580   -1.5350    1.9250 h1        1 TSF      0.198700
     48 H21         5.5910   -1.4370    1.6090 ho        1 TSF      0.384000
     49 H13         4.7760   -3.1110    0.1340 h1        1 TSF      0.021700
     50 H23         1.9250   -3.1330    0.1600 ho        1 TSF      0.499000
     51 H141        3.7210   -5.0690    1.3600 h1        1 TSF      0.075700
     52 H142        2.7120   -3.8890    2.3440 h1        1 TSF      0.075700
     53 H26         4.6950   -3.1550    3.1860 ho        1 TSF      0.412000
@<TRIPOS>BOND
     1    1    2 1   
     2    2    3 1   
     3    2    4 1   
     4    2    5 1   
     5    5    6 1   
     6    5    7 1   
     7    5    8 1   
     8    8    9 1   
     9    8   33 1   
    10    8   34 1   
    11    9   10 1   
    12    9   35 1   
    13    9   36 1   
    14   10   11 1   
    15   10   37 1   
    16   10   38 1   
    17   11   12 1   
    18   11   39 1   
    19   11   40 1   
    20   12   13 1   
    21   12   17 1   
    22   13   14 1   
    23   13   20 2   
    24   14   15 2   
    25   14   16 1   
    26   16   22 1   
    27   16   41 1   
    28   17   18 2   
    29   17   19 1   
    30   19   20 1   
    31   19   24 1   
    32   20   21 1   
    33   21   22 1   
    34   21   42 1   
    35   22   23 2   
    36   24   25 1   
    37   24   43 1   
    38   24   44 1   
    39   25   26 1   
    40   25   27 1   
    41   25   45 1   
    42   26   46 1   
    43   27   28 1   
    44   27   29 1   
    45   27   47 1   
    46   28   48 1   
    47   29   30 1   
    48   29   31 1   
    49   29   49 1   
    50   30   50 1   
    51   31   32 1   
    52   31   51 1   
    53   31   52 1   
    54   32   53 1   
@<TRIPOS>SUBSTRUCTURE
     1 TSF         1 TEMP              0 ****  ****    0 ROOT
