@<TRIPOS>MOLECULE
TSF
   53    54     1     0     0
SMALL
bcc


@<TRIPOS>ATOM
      1 O2P         0.0000    0.0000    0.0000 o         1 TSF     -0.712167
      2 P           1.4800    0.0000    0.0000 p5        1 TSF      0.428700
      3 O3P         2.0170    0.0000    1.5180 o         1 TSF     -0.712167
      4 O1P         2.0160    1.3140   -0.7590 o         1 TSF     -0.712167
      5 C19         2.0870   -1.4890   -0.8590 c3        1 TSF      0.355400
      6 F1          1.6200   -2.6300   -0.2000 f         1 TSF     -0.267300
      7 F2          1.6200   -1.4890   -2.1780 f         1 TSF     -0.267300
      8 C18         3.6170   -1.4900   -0.8590 c3        1 TSF     -0.057400
      9 C17         4.1260   -2.7390   -1.5810 c3        1 TSF     -0.044400
     10 C16         5.6560   -2.7400   -1.5810 c3        1 TSF     -0.044400
     11 C15         6.1660   -3.9890   -2.3020 c3        1 TSF      0.022000
     12 N5          7.6300   -3.9890   -2.3030 n         1 TSF      0.143000
     13 C9          8.4570   -3.4240   -3.2800 cc        1 TSF     -0.335600
     14 C4          8.2060   -2.7310   -4.4810 c         1 TSF      0.645700
     15 O2          7.0620   -2.5270   -4.8470 o         1 TSF     -0.638500
     16 N3          9.2470   -2.3040   -5.2260 ns        1 TSF     -0.127500
     17 C6          8.4280   -4.5330   -1.3600 c         1 TSF      0.546500
     18 O4          8.0460   -5.1100   -0.3590 o         1 TSF     -0.718500
     19 N7          9.7140   -4.3330   -1.7060 n         1 TSF      0.078000
     20 C8          9.7500   -3.6420   -2.8910 cd        1 TSF     -0.234800
     21 N1         10.7780   -3.1840   -3.6820 ns        1 TSF      0.052900
     22 C2         10.5120   -2.5270   -4.8260 c         1 TSF      0.580500
     23 O1         11.4340   -2.1290   -5.5130 o         1 TSF     -0.739500
     24 C10        10.8810   -4.7750   -0.9400 c3        1 TSF      0.027000
     25 C11        11.2890   -6.1780   -1.3950 c3        1 TSF      0.153100
     26 O19        11.7240   -6.1300   -2.7550 oh        1 TSF     -0.586800
     27 C12        12.4280   -6.6900   -0.5120 c3        1 TSF      0.172100
     28 O21        13.5040   -5.7500   -0.5300 oh        1 TSF     -0.575800
     29 C13        12.9190   -8.0380   -1.0430 c3        1 TSF      0.162100
     30 O23        11.8430   -8.9780   -1.0230 oh        1 TSF     -0.584800
     31 C14        14.0590   -8.5490   -0.1600 c3        1 TSF      0.190400
     32 O26        14.5950   -9.7490   -0.7210 oh        1 TSF     -0.598800
     33 H181        3.9790   -1.4900    0.1620 hc        1 TSF      0.046200
     34 H182        3.9780   -0.6050   -1.3700 hc        1 TSF      0.046200
     35 H171        3.7650   -3.6230   -1.0700 hc        1 TSF      0.012700
     36 H172        3.7650   -2.7390   -2.6020 hc        1 TSF      0.012700
     37 H161        6.0180   -1.8550   -2.0920 hc        1 TSF      0.022700
     38 H162        6.0180   -2.7400   -0.5600 hc        1 TSF      0.022700
     39 H151        5.8040   -3.9890   -3.3240 h1        1 TSF      0.045700
     40 H152        5.8050   -4.8730   -1.7910 h1        1 TSF      0.045700
     41 H3          9.0760   -1.8160   -6.0830 hn        1 TSF      0.204500
     42 H1         11.7270   -3.3380   -3.4040 hn        1 TSF      0.186500
     43 H101       10.6340   -4.7940    0.1150 h1        1 TSF      0.047200
     44 H102       11.7020   -4.0880   -1.1060 h1        1 TSF      0.047200
     45 H11        10.4390   -6.8450   -1.3110 h1        1 TSF      0.044700
     46 H19        11.2320   -6.7520   -3.2650 ho        1 TSF      0.394000
     47 H12        12.0710   -6.8100    0.5040 h1        1 TSF      0.020700
     48 H21        13.6660   -5.4400    0.3450 ho        1 TSF      0.388000
     49 H13        13.2750   -7.9180   -2.0590 h1        1 TSF      0.031700
     50 H23        11.9730   -9.6190   -1.7020 ho        1 TSF      0.400000
     51 H141       14.8370   -7.7980   -0.1040 h1        1 TSF     -0.002300
     52 H142       13.6810   -8.7530    0.8350 h1        1 TSF     -0.002300
     53 H26        15.3320  -10.0350   -0.2070 ho        1 TSF      0.389000
@<TRIPOS>BOND
     1    1    2 1   
     2    2    3 1   
     3    2    4 1   
     4    2    5 1   
     5    5    6 1   
     6    5    7 1   
     7    5    8 1   
     8    8    9 1   
     9    8   33 1   
    10    8   34 1   
    11    9   10 1   
    12    9   35 1   
    13    9   36 1   
    14   10   11 1   
    15   10   37 1   
    16   10   38 1   
    17   11   12 1   
    18   11   39 1   
    19   11   40 1   
    20   12   13 1   
    21   12   17 1   
    22   13   14 1   
    23   13   20 2   
    24   14   15 2   
    25   14   16 1   
    26   16   22 1   
    27   16   41 1   
    28   17   18 2   
    29   17   19 1   
    30   19   20 1   
    31   19   24 1   
    32   20   21 1   
    33   21   22 1   
    34   21   42 1   
    35   22   23 2   
    36   24   25 1   
    37   24   43 1   
    38   24   44 1   
    39   25   26 1   
    40   25   27 1   
    41   25   45 1   
    42   26   46 1   
    43   27   28 1   
    44   27   29 1   
    45   27   47 1   
    46   28   48 1   
    47   29   30 1   
    48   29   31 1   
    49   29   49 1   
    50   30   50 1   
    51   31   32 1   
    52   31   51 1   
    53   31   52 1   
    54   32   53 1   
@<TRIPOS>SUBSTRUCTURE
     1 TSF         1 TEMP              0 ****  ****    0 ROOT
