@<TRIPOS>MOLECULE
TSF
   53    49     1     0     0
SMALL
bcc


@<TRIPOS>ATOM
      1 O2P        -6.7580    1.7140   -3.6650 o         1 TSF     -0.975500
      2 P          -6.3740    0.8310   -2.5210 p3        1 TSF      2.586000
      3 O3P        -7.6220    0.3960   -1.7830 os        1 TSF     -1.172000
      4 O1P        -5.4670    1.5950   -1.5760 o         1 TSF     -0.975500
      5 C19        -5.5020   -0.6270   -3.1470 c3        1 TSF     -0.333000
      6 F1         -6.3970   -1.5350   -3.5620 f         1 TSF     -0.185000
      7 F2         -4.7230   -0.2750   -4.1630 f         1 TSF     -0.185000
      8 C18        -4.6540   -1.2200   -2.0460 c3        1 TSF     -0.217000
      9 C17        -3.4500   -1.9860   -2.6730 c3        1 TSF     -0.148000
     10 C16        -2.3400   -2.1770   -1.6020 c3        1 TSF     -0.183000
     11 C15        -0.9960   -1.7490   -2.1780 c3        1 TSF     -0.040000
     12 N5         -0.0320   -1.5240   -1.0720 n         1 TSF     -0.167000
     13 C9          1.1490   -2.2160   -0.8720 c1        1 TSF     -0.284000
     14 C4          1.7110   -3.3040   -1.5270 c1        1 TSF      0.400500
     15 O2          1.0830   -3.8750   -2.4090 o         1 TSF     -0.386500
     16 N3          2.8960   -3.8150   -1.1010 n2        1 TSF     -0.323000
     17 C6         -0.1140   -0.5510   -0.1260 c2        1 TSF      0.343000
     18 O4         -1.0580    0.1940    0.0510 o         1 TSF     -0.347000
     19 N7          1.0000   -0.6300    0.6570 n2        1 TSF     -0.215000
     20 C8          1.7800   -1.6690    0.1860 c1        1 TSF      0.194000
     21 N1          2.9880   -2.1930    0.6180 n2        1 TSF     -0.323000
     22 C2          3.5370   -3.2570   -0.0230 c1        1 TSF      0.400500
     23 O1          4.5690   -3.7610    0.4020 o         1 TSF     -0.386500
     24 C10         1.2610    0.1510    1.8400 c2        1 TSF     -0.110000
     25 C11         2.0600    1.3920    1.4640 c3        1 TSF      0.174000
     26 O19         1.5250    1.9550    0.3100 oh        1 TSF     -0.701000
     27 C12         1.9910    2.3990    2.5940 c3        1 TSF     -0.033000
     28 O21         0.9630    3.3110    2.3410 oh        1 TSF     -0.371000
     29 C13         3.3100    3.1410    2.6930 c3        1 TSF     -0.028000
     30 O23         4.3300    2.2400    2.9580 oh        1 TSF     -0.346000
     31 C14         3.2320    4.1720    3.8280 c3        1 TSF     -0.063000
     32 O26         4.2420    5.1490    3.6490 oh        1 TSF     -0.358000
     33 H181       -5.1970   -1.8430   -1.5150 hc        1 TSF      0.119000
     34 H182       -4.3210   -0.5040   -1.4690 hc        1 TSF      0.119000
     35 H171       -3.0890   -1.4680   -3.4330 hc        1 TSF      0.083000
     36 H172       -3.7560   -2.8730   -2.9930 hc        1 TSF      0.083000
     37 H161       -2.5460   -1.6340   -0.8190 hc        1 TSF      0.088500
     38 H162       -2.2980   -3.1130   -1.3440 hc        1 TSF      0.088500
     39 H151       -1.1090   -0.9150   -2.6910 h1        1 TSF      0.112500
     40 H152       -0.6570   -2.4480   -2.7660 h1        1 TSF      0.112500
     41 H3          3.2500   -4.5650   -1.5110 hn        1 TSF      0.282000
     42 H1          3.4180   -1.8210    1.3390 hn        1 TSF      0.282000
     43 H101        1.7790   -0.3910    2.4840 ha        1 TSF      0.098000
     44 H102        0.4160    0.4190    2.2470 ha        1 TSF      0.098000
     45 H11         2.9980    1.1420    1.3030 h1        1 TSF     -0.034000
     46 H19         2.1960    2.2370   -0.2280 ho        1 TSF      0.226000
     47 H12         1.8150    1.9330    3.4350 h1        1 TSF      0.084000
     48 H21         0.4190    3.3460    3.0440 ho        1 TSF      0.236000
     49 H13         3.4900    3.5980    1.8490 h1        1 TSF      0.088000
     50 H23         5.1010    2.5680    2.6570 ho        1 TSF      0.198000
     51 H141        3.3630    3.7180    4.6990 h1        1 TSF      0.100500
     52 H142        2.3560    4.6040    3.8150 h1        1 TSF      0.100500
     53 H26         4.2290    5.7300    4.3470 ho        1 TSF      0.190000
@<TRIPOS>BOND
     1    1    2 1   
     2    2    4 1   
     3    2    5 1   
     4    5    6 1   
     5    5    7 1   
     6    5    8 1   
     7    8    9 1   
     8    8   33 1   
     9    8   34 1   
    10    9   10 1   
    11    9   35 1   
    12    9   36 1   
    13   10   11 1   
    14   10   37 1   
    15   10   38 1   
    16   11   12 1   
    17   11   39 1   
    18   11   40 1   
    19   12   13 1   
    20   12   17 1   
    21   13   20 1   
    22   14   15 1   
    23   14   16 1   
    24   16   41 1   
    25   17   18 1   
    26   17   19 1   
    27   19   20 1   
    28   21   22 1   
    29   21   42 1   
    30   22   23 1   
    31   24   25 1   
    32   24   43 1   
    33   24   44 1   
    34   25   26 1   
    35   25   27 1   
    36   25   45 1   
    37   26   46 1   
    38   27   28 1   
    39   27   29 1   
    40   27   47 1   
    41   28   48 1   
    42   29   30 1   
    43   29   31 1   
    44   29   49 1   
    45   30   50 1   
    46   31   32 1   
    47   31   51 1   
    48   31   52 1   
    49   32   53 1   
@<TRIPOS>SUBSTRUCTURE
     1 TSF         1 TEMP              0 ****  ****    0 ROOT
