@<TRIPOS>MOLECULE
TSF
   53    54     1     0     0
SMALL
bcc


@<TRIPOS>ATOM
      1 O2P         2.0790    0.2730    1.9300 o         1 TSF     -0.930167
      2 P           3.3890   -0.1960    1.3650 p5        1 TSF      1.183700
      3 O3P         4.2400   -1.0470    2.2760 o         1 TSF     -0.930167
      4 O1P         4.1730    0.8180    0.5680 o         1 TSF     -0.930167
      5 C19         2.9620   -1.4250    0.0390 c3        1 TSF      0.260400
      6 F1          2.2050   -2.4610    0.5270 f         1 TSF     -0.289800
      7 F2          2.1490   -0.8790   -0.9230 f         1 TSF     -0.289800
      8 C18         4.3380   -1.8420   -0.4690 c3        1 TSF     -0.157400
      9 C17         4.3380   -2.8850   -1.5600 c3        1 TSF     -0.065400
     10 C16         5.7560   -3.2680   -1.9290 c3        1 TSF     -0.104400
     11 C15         5.7680   -4.3940   -2.9580 c3        1 TSF      0.046000
     12 N5          7.0790   -4.9330   -3.3030 n         1 TSF     -0.239000
     13 C9          7.9540   -4.1610   -4.1260 cc        1 TSF     -0.239600
     14 C4          7.6560   -3.4740   -5.3720 c         1 TSF      0.760700
     15 O2          6.5590   -3.4000   -5.9460 o         1 TSF     -0.601500
     16 N3          8.7780   -2.8570   -5.9790 n         1 TSF     -0.588500
     17 C6          7.9100   -5.3900   -2.2080 c         1 TSF      0.760500
     18 O4          7.6040   -6.1500   -1.2820 o         1 TSF     -0.587500
     19 N7          9.3000   -5.0000   -2.4560 n         1 TSF     -0.368000
     20 C8          9.2700   -4.2030   -3.6220 cd        1 TSF      0.152200
     21 N1         10.3300   -3.5800   -4.2550 n         1 TSF     -0.445100
     22 C2         10.0820   -2.9020   -5.4670 c         1 TSF      0.817500
     23 O1         11.0360   -2.3620   -6.0730 o         1 TSF     -0.665500
     24 C10        10.2490   -4.8270   -1.3950 c3        1 TSF      0.087000
     25 C11        11.5040   -5.7100   -1.5580 c3        1 TSF      0.110100
     26 O19        12.2770   -5.1490   -2.6100 oh        1 TSF     -0.624800
     27 C12        12.3260   -5.6970   -0.2550 c3        1 TSF      0.114100
     28 O21        13.1260   -4.5390   -0.1500 oh        1 TSF     -0.585800
     29 C13        13.2180   -6.9480   -0.1380 c3        1 TSF      0.107100
     30 O23        13.7650   -7.2100   -1.4230 oh        1 TSF     -0.627800
     31 C14        12.4080   -8.1440    0.3700 c3        1 TSF      0.089400
     32 O26        13.2950   -9.2540    0.3660 oh        1 TSF     -0.619800
     33 H181        4.8860   -2.2030    0.4460 hc        1 TSF      0.098700
     34 H182        4.8290   -0.8880   -0.8040 hc        1 TSF      0.098700
     35 H171        3.7770   -3.7900   -1.2080 hc        1 TSF      0.027700
     36 H172        3.8030   -2.4880   -2.4620 hc        1 TSF      0.027700
     37 H161        6.2900   -2.3690   -2.3350 hc        1 TSF      0.045700
     38 H162        6.2980   -3.5960   -1.0020 hc        1 TSF      0.045700
     39 H151        5.3020   -4.0390   -3.9210 h1        1 TSF      0.080200
     40 H152        5.1760   -5.2670   -2.5600 h1        1 TSF      0.080200
     41 H3          8.6400   -2.3200   -6.8070 hn        1 TSF      0.349500
     42 H1         11.2670   -3.6670   -3.9220 hn        1 TSF      0.374500
     43 H101        9.7400   -5.1170   -0.4290 h1        1 TSF      0.088200
     44 H102       10.5860   -3.7530   -1.3220 h1        1 TSF      0.088200
     45 H11        11.2200   -6.7690   -1.8090 h1        1 TSF      0.063700
     46 H19        12.9240   -5.8170   -2.8720 ho        1 TSF      0.428000
     47 H12        11.6460   -5.6560    0.6430 h1        1 TSF      0.094700
     48 H21        13.5500   -4.3970   -1.0080 ho        1 TSF      0.418000
     49 H13        14.0610   -6.7340    0.5790 h1        1 TSF      0.064700
     50 H23        14.2220   -8.0600   -1.3640 ho        1 TSF      0.425000
     51 H141       11.5350   -8.3480   -0.3060 h1        1 TSF      0.046200
     52 H142       12.0410   -7.9470    1.4110 h1        1 TSF      0.046200
     53 H26        12.7740  -10.0230    0.6230 ho        1 TSF      0.410000
@<TRIPOS>BOND
     1    1    2 1   
     2    2    3 1   
     3    2    4 1   
     4    2    5 1   
     5    5    6 1   
     6    5    7 1   
     7    5    8 1   
     8    8    9 1   
     9    8   33 1   
    10    8   34 1   
    11    9   10 1   
    12    9   35 1   
    13    9   36 1   
    14   10   11 1   
    15   10   37 1   
    16   10   38 1   
    17   11   12 1   
    18   11   39 1   
    19   11   40 1   
    20   12   13 1   
    21   12   17 1   
    22   13   14 1   
    23   13   20 2   
    24   14   15 2   
    25   14   16 1   
    26   16   22 1   
    27   16   41 1   
    28   17   18 2   
    29   17   19 1   
    30   19   20 1   
    31   19   24 1   
    32   20   21 1   
    33   21   22 1   
    34   21   42 1   
    35   22   23 2   
    36   24   25 1   
    37   24   43 1   
    38   24   44 1   
    39   25   26 1   
    40   25   27 1   
    41   25   45 1   
    42   26   46 1   
    43   27   28 1   
    44   27   29 1   
    45   27   47 1   
    46   28   48 1   
    47   29   30 1   
    48   29   31 1   
    49   29   49 1   
    50   30   50 1   
    51   31   32 1   
    52   31   51 1   
    53   31   52 1   
    54   32   53 1   
@<TRIPOS>SUBSTRUCTURE
     1 TSF         1 TEMP              0 ****  ****    0 ROOT
