@<TRIPOS>MOLECULE
TSH
   22    23     1     0     0
SMALL
bcc


@<TRIPOS>ATOM
      1 N          -0.1700    0.1230    0.0720 n2        1 TSH     -0.769100
      2 CA          1.0810   -0.1280    0.0880 c2        1 TSH      0.432200
      3 CB          2.0550   -0.0220    1.2300 c3        1 TSH     -0.109500
      4 CG          2.9880   -1.1550    1.2630 cc        1 TSH     -0.145400
      5 CD2         4.3450   -1.1630    0.7540 ca        1 TSH     -0.087800
      6 CE3         5.1540   -0.2180    0.1210 ca        1 TSH     -0.085000
      7 CZ3         6.4450   -0.5730   -0.2400 ca        1 TSH     -0.155000
      8 CH2         6.9500   -1.8600    0.0200 ca        1 TSH     -0.112000
      9 CZ2         6.1830   -2.8280    0.6490 ca        1 TSH     -0.144000
     10 CE2         4.8740   -2.4830    1.0200 ca        1 TSH     -0.046200
     11 NE1         3.8790   -3.2260    1.6620 na        1 TSH     -0.190400
     12 CD1         2.7480   -2.4200    1.8020 cd        1 TSH     -0.094100
     13 HN         -0.5770    0.4210    0.9350 hn        1 TSH      0.373400
     14 HA          1.5380   -0.4640   -0.8680 h4        1 TSH      0.020800
     15 HB1         1.5140    0.0510    2.2140 hc        1 TSH      0.059200
     16 HB2         2.6340    0.9350    1.0970 hc        1 TSH      0.059200
     17 HE3         4.7660    0.7900   -0.0850 ha        1 TSH      0.133000
     18 HZ3         7.0930    0.1620   -0.7400 ha        1 TSH      0.130000
     19 HH2         7.9800   -2.1000   -0.2840 ha        1 TSH      0.130000
     20 HZ2         6.5830   -3.8300    0.8500 ha        1 TSH      0.132000
     21 HE1         3.9590   -4.1650    1.9450 hn        1 TSH      0.299700
     22 HD1         1.8460   -2.8070    2.2800 h4        1 TSH      0.167000
@<TRIPOS>BOND
     1    1    2 2   
     2    1   13 1   
     3    2    3 1   
     4    2   14 1   
     5    3    4 1   
     6    3   15 1   
     7    3   16 1   
     8    4    5 1   
     9    4   12 2   
    10    5    6 ar  
    11    5   10 ar  
    12    6    7 ar  
    13    6   17 1   
    14    7    8 ar  
    15    7   18 1   
    16    8    9 ar  
    17    8   19 1   
    18    9   10 ar  
    19    9   20 1   
    20   10   11 1   
    21   11   12 1   
    22   11   21 1   
    23   12   22 1   
@<TRIPOS>SUBSTRUCTURE
     1 TSH         1 TEMP              0 ****  ****    0 ROOT
