@<TRIPOS>MOLECULE
TSH
   22    15     1     0     0
SMALL
bcc


@<TRIPOS>ATOM
      1 N          -3.7220    2.0200   -0.7420 n1        1 TSH     -0.562800
      2 CA         -2.6630    1.2640   -0.7230 c1        1 TSH      0.323300
      3 CB         -1.7040    1.3350    0.4430 c2        1 TSH     -0.117000
      4 CG         -0.7530    0.1670    0.3780 ce        1 TSH     -0.086400
      5 CD2         0.5690   -0.0380    0.0210 cg        1 TSH     -0.109300
      6 CE3         1.5280    0.8070   -0.5490 c1        1 TSH     -0.027500
      7 CZ3         2.8290    0.3280   -0.8070 c1        1 TSH     -0.076000
      8 CH2         3.1600   -0.9790   -0.4970 c1        1 TSH     -0.076000
      9 CZ2         2.2070   -1.8230    0.0710 c1        1 TSH     -0.086500
     10 CE2         0.8970   -1.3400    0.3300 c1        1 TSH     -0.001000
     11 NE1        -0.2180   -1.9410    0.8760 n1        1 TSH     -0.538800
     12 CD1        -1.2380   -1.0080    0.9040 cg        1 TSH      0.225500
     13 HN         -3.8830    2.5830   -0.0640 DU        1 TSH      0.182000
     14 HA         -2.4830    0.6340   -1.4810 ha        1 TSH      0.092500
     15 HB1        -2.2200    1.3020    1.3050 ha        1 TSH      0.098500
     16 HB2        -1.2210    2.1310    0.4030 ha        1 TSH      0.098500
     17 HE3         1.2850    1.7700   -0.7810 ha        1 TSH      0.075500
     18 HZ3         3.4740    0.9010   -1.1890 ha        1 TSH      0.072500
     19 HH2         4.0870   -1.3210   -0.6830 ha        1 TSH      0.072500
     20 HZ2         2.4530   -2.7960    0.3030 ha        1 TSH      0.074500
     21 HE1        -0.2760   -2.8670    1.1850 DU        1 TSH      0.182000
     22 HD1        -2.1070   -1.1330    1.2990 DU        1 TSH      0.182000
@<TRIPOS>BOND
     1    1    2 3   
     2    2   14 1   
     3    3    4 2   
     4    3   15 1   
     5    3   16 1   
     6    4    5 1   
     7    4   12 1   
     8    5    6 3   
     9    6   17 1   
    10    7    8 3   
    11    7   18 1   
    12    8   19 1   
    13    9   10 3   
    14    9   20 1   
    15   11   12 3   
@<TRIPOS>SUBSTRUCTURE
     1 TSH         1 TEMP              0 ****  ****    0 ROOT
