@<TRIPOS>MOLECULE
TSH
   22    23     1     0     0
SMALL
bcc


@<TRIPOS>ATOM
      1 N          -0.1760    0.0880    0.0640 n2        1 TSH     -0.769100
      2 CA          1.0770   -0.1490    0.0870 c2        1 TSH      0.432200
      3 CB          2.0410   -0.0440    1.2390 c3        1 TSH     -0.109500
      4 CG          2.9870   -1.1670    1.2660 cc        1 TSH     -0.145400
      5 CD2         4.3430   -1.1580    0.7560 ca        1 TSH     -0.087800
      6 CE3         5.1410   -0.2020    0.1260 ca        1 TSH     -0.085000
      7 CZ3         6.4350   -0.5410   -0.2380 ca        1 TSH     -0.155000
      8 CH2         6.9540   -1.8240    0.0170 ca        1 TSH     -0.112000
      9 CZ2         6.1990   -2.8030    0.6420 ca        1 TSH     -0.144000
     10 CE2         4.8860   -2.4740    1.0170 ca        1 TSH     -0.046200
     11 NE1         3.9010   -3.2290    1.6570 na        1 TSH     -0.190400
     12 CD1         2.7610   -2.4370    1.8010 cd        1 TSH     -0.094100
     13 HN         -0.5940    0.3710    0.9270 hn        1 TSH      0.373400
     14 HA          1.5460   -0.4690   -0.8680 h4        1 TSH      0.020800
     15 HB1         1.4900    0.0110    2.2190 hc        1 TSH      0.059200
     16 HB2         2.6100    0.9210    1.1210 hc        1 TSH      0.059200
     17 HE3         4.7410    0.8030   -0.0760 ha        1 TSH      0.133000
     18 HZ3         7.0740    0.2020   -0.7370 ha        1 TSH      0.130000
     19 HH2         7.9860   -2.0510   -0.2900 ha        1 TSH      0.130000
     20 HZ2         6.6110   -3.8010    0.8390 ha        1 TSH      0.132000
     21 HE1         3.9910   -4.1690    1.9360 hn        1 TSH      0.299700
     22 HD1         1.8640   -2.8360    2.2790 h4        1 TSH      0.167000
@<TRIPOS>BOND
     1    1    2 2   
     2    1   13 1   
     3    2    3 1   
     4    2   14 1   
     5    3    4 1   
     6    3   15 1   
     7    3   16 1   
     8    4    5 1   
     9    4   12 2   
    10    5    6 ar  
    11    5   10 ar  
    12    6    7 ar  
    13    6   17 1   
    14    7    8 ar  
    15    7   18 1   
    16    8    9 ar  
    17    8   19 1   
    18    9   10 ar  
    19    9   20 1   
    20   10   11 1   
    21   11   12 1   
    22   11   21 1   
    23   12   22 1   
@<TRIPOS>SUBSTRUCTURE
     1 TSH         1 TEMP              0 ****  ****    0 ROOT
