@<TRIPOS>MOLECULE
TSH
   22    23     1     0     0
SMALL
bcc


@<TRIPOS>ATOM
      1 N           4.1170    0.5460    0.5920 n2        1 TSH     -0.776100
      2 CA          2.8730    0.7710    0.4040 c2        1 TSH      0.434200
      3 CB          2.1280    0.2780   -0.8100 c3        1 TSH     -0.064500
      4 CG          0.8850   -0.4050   -0.4250 cc        1 TSH     -0.148400
      5 CD2        -0.4130    0.2090   -0.2320 ca        1 TSH     -0.088800
      6 CE3        -0.8970    1.5150   -0.3230 ca        1 TSH     -0.086000
      7 CZ3        -2.2380    1.7540   -0.0670 ca        1 TSH     -0.156000
      8 CH2        -3.1150    0.7100    0.2790 ca        1 TSH     -0.113000
      9 CZ2        -2.6780   -0.6020    0.3780 ca        1 TSH     -0.144000
     10 CE2        -1.3220   -0.8600    0.1210 ca        1 TSH     -0.047200
     11 NE1        -0.5980   -2.0550    0.1390 na        1 TSH     -0.192400
     12 CD1         0.7270   -1.7720   -0.1940 cd        1 TSH     -0.090100
     13 HN          4.5000    0.9360    1.4280 hn        1 TSH      0.382400
     14 HA          2.2190    1.3450    1.1000 h4        1 TSH     -0.036200
     15 HB1         1.8850    1.1780   -1.4410 hc        1 TSH      0.066700
     16 HB2         2.7650   -0.4080   -1.4310 hc        1 TSH      0.066700
     17 HE3        -0.2170    2.3360   -0.5960 ha        1 TSH      0.132000
     18 HZ3        -2.6330    2.7790   -0.1360 ha        1 TSH      0.130000
     19 HH2        -4.1720    0.9430    0.4740 ha        1 TSH      0.130000
     20 HZ2        -3.3680   -1.4130    0.6470 ha        1 TSH      0.132000
     21 HE1        -0.9680   -2.9440    0.3380 hn        1 TSH      0.299700
     22 HD1         1.4720   -2.5700   -0.2430 h4        1 TSH      0.170000
@<TRIPOS>BOND
     1    1    2 2   
     2    1   13 1   
     3    2    3 1   
     4    2   14 1   
     5    3    4 1   
     6    3   15 1   
     7    3   16 1   
     8    4    5 1   
     9    4   12 2   
    10    5    6 ar  
    11    5   10 ar  
    12    6    7 ar  
    13    6   17 1   
    14    7    8 ar  
    15    7   18 1   
    16    8    9 ar  
    17    8   19 1   
    18    9   10 ar  
    19    9   20 1   
    20   10   11 1   
    21   11   12 1   
    22   11   21 1   
    23   12   22 1   
@<TRIPOS>SUBSTRUCTURE
     1 TSH         1 TEMP              0 ****  ****    0 ROOT
