@<TRIPOS>MOLECULE
TSH
   22    23     1     0     0
SMALL
bcc


@<TRIPOS>ATOM
      1 N          -0.1800    0.0860    0.0690 n2        1 TSH     -0.769100
      2 CA          1.0730   -0.1520    0.0890 c2        1 TSH      0.432200
      3 CB          2.0410   -0.0440    1.2370 c3        1 TSH     -0.109500
      4 CG          2.9870   -1.1670    1.2640 cc        1 TSH     -0.145400
      5 CD2         4.3440   -1.1580    0.7560 ca        1 TSH     -0.087800
      6 CE3         5.1420   -0.2010    0.1260 ca        1 TSH     -0.085000
      7 CZ3         6.4370   -0.5400   -0.2360 ca        1 TSH     -0.155000
      8 CH2         6.9560   -1.8230    0.0190 ca        1 TSH     -0.112000
      9 CZ2         6.1990   -2.8020    0.6430 ca        1 TSH     -0.144000
     10 CE2         4.8860   -2.4730    1.0160 ca        1 TSH     -0.046200
     11 NE1         3.9000   -3.2290    1.6550 na        1 TSH     -0.190400
     12 CD1         2.7600   -2.4370    1.7980 cd        1 TSH     -0.094100
     13 HN         -0.5940    0.3720    0.9330 hn        1 TSH      0.373400
     14 HA          1.5380   -0.4760   -0.8670 h4        1 TSH      0.020800
     15 HB1         1.4950    0.0150    2.2180 hc        1 TSH      0.059200
     16 HB2         2.6100    0.9210    1.1130 hc        1 TSH      0.059200
     17 HE3         4.7430    0.8030   -0.0750 ha        1 TSH      0.133000
     18 HZ3         7.0770    0.2030   -0.7330 ha        1 TSH      0.130000
     19 HH2         7.9880   -2.0510   -0.2860 ha        1 TSH      0.130000
     20 HZ2         6.6110   -3.8010    0.8390 ha        1 TSH      0.132000
     21 HE1         3.9900   -4.1690    1.9330 hn        1 TSH      0.299700
     22 HD1         1.8630   -2.8360    2.2740 h4        1 TSH      0.167000
@<TRIPOS>BOND
     1    1    2 2   
     2    1   13 1   
     3    2    3 1   
     4    2   14 1   
     5    3    4 1   
     6    3   15 1   
     7    3   16 1   
     8    4    5 1   
     9    4   12 2   
    10    5    6 ar  
    11    5   10 ar  
    12    6    7 ar  
    13    6   17 1   
    14    7    8 ar  
    15    7   18 1   
    16    8    9 ar  
    17    8   19 1   
    18    9   10 ar  
    19    9   20 1   
    20   10   11 1   
    21   11   12 1   
    22   11   21 1   
    23   12   22 1   
@<TRIPOS>SUBSTRUCTURE
     1 TSH         1 TEMP              0 ****  ****    0 ROOT
