@<TRIPOS>MOLECULE
TSI
   22    21     1     0     0
SMALL
bcc


@<TRIPOS>ATOM
      1 C2          1.5650    0.0480    0.1240 c3        1 TSI      0.107800
      2 N1          2.1830   -1.2100    0.6280 n4        1 TSI     -0.831600
      3 C3          0.0210   -0.0380    0.0280 c3        1 TSI      0.139800
      4 C5         -0.6150   -0.0290    1.4070 c3        1 TSI     -0.138100
      5 O4         -0.2450   -1.2600   -0.6510 oh        1 TSI     -0.632800
      6 C6         -0.4410    1.1670   -0.8360 c3        1 TSI      0.123100
      7 C8         -1.9400    1.3770   -0.7940 c3        1 TSI     -0.143100
      8 O7          0.2730    2.2910   -0.3370 oh        1 TSI     -0.621800
      9 HC1         1.9850    0.2500   -0.9030 hx        1 TSI      0.128200
     10 HC2         1.8350    0.9010    0.8110 hx        1 TSI      0.128200
     11 HN11        1.8910   -1.3840    1.5950 hn        1 TSI      0.464800
     12 HN12        3.2030   -1.1450    0.5870 hn        1 TSI      0.464800
     13 HC1A       -1.7200   -0.1810    1.3200 hc        1 TSI      0.065700
     14 HC2A       -0.4300    0.9570    1.8990 hc        1 TSI      0.065700
     15 HC3        -0.2110   -0.8490    2.0460 hc        1 TSI      0.065700
     16 HO4        -1.1940   -1.3020   -0.8310 ho        1 TSI      0.451000
     17 HC6        -0.1120    0.9740   -1.8990 h1        1 TSI      0.063700
     18 H81        -2.2350    2.1390   -1.5580 hc        1 TSI      0.064367
     19 H82        -2.2620    1.7460    0.2110 hc        1 TSI      0.064367
     20 H83        -2.4780    0.4270   -1.0230 hc        1 TSI      0.064367
     21 HO7        -0.1870    3.0870   -0.6320 ho        1 TSI      0.440000
     22 H13         1.8620   -1.9960    0.0460 hn        1 TSI      0.464800
@<TRIPOS>BOND
     1    1    2 1   
     2    1    3 1   
     3    1    9 1   
     4    1   10 1   
     5    2   11 1   
     6    2   12 1   
     7    2   22 1   
     8    3    4 1   
     9    3    5 1   
    10    3    6 1   
    11    4   13 1   
    12    4   14 1   
    13    4   15 1   
    14    5   16 1   
    15    6    7 1   
    16    6    8 1   
    17    6   17 1   
    18    7   18 1   
    19    7   19 1   
    20    7   20 1   
    21    8   21 1   
@<TRIPOS>SUBSTRUCTURE
     1 TSI         1 TEMP              0 ****  ****    0 ROOT
