@<TRIPOS>MOLECULE
TSI
   21    20     1     0     0
SMALL
bcc


@<TRIPOS>ATOM
      1 C2          0.7500    0.6040   -1.2780 c3        1 TSI      0.127800
      2 N1          0.5210    0.2630   -2.6540 n3        1 TSI     -0.895800
      3 C3         -0.1610   -0.0970   -0.2350 c3        1 TSI      0.071800
      4 C5          0.0040   -1.6070   -0.3000 c3        1 TSI     -0.093100
      5 O4         -1.5280    0.1620   -0.5450 oh        1 TSI     -0.595800
      6 C6          0.1810    0.4640    1.1670 c3        1 TSI      0.116100
      7 C8         -0.7970   -0.0010    2.2280 c3        1 TSI     -0.127100
      8 O7          1.5180    0.1550    1.5190 oh        1 TSI     -0.590800
      9 HC1         1.8180    0.3700   -1.0080 h1        1 TSI      0.062700
     10 HC2         0.6030    1.7170   -1.1730 h1        1 TSI      0.062700
     11 HN11        0.7610   -0.6940   -2.8280 hn        1 TSI      0.348800
     12 HN12       -0.4440    0.3960   -2.8900 hn        1 TSI      0.348800
     13 HC1A        1.0880   -1.8670   -0.2570 hc        1 TSI      0.048367
     14 HC2A       -0.5290   -2.0920    0.5520 hc        1 TSI      0.048367
     15 HC3        -0.4320   -2.0010   -1.2490 hc        1 TSI      0.048367
     16 HO4        -1.6470    1.1190   -0.5070 ho        1 TSI      0.401000
     17 HC6         0.1740    1.5920    1.1120 h1        1 TSI      0.071700
     18 H81        -0.6450    0.5850    3.1660 hc        1 TSI      0.048700
     19 H82        -1.8450    0.1430    1.8680 hc        1 TSI      0.048700
     20 H83        -0.6460   -1.0820    2.4620 hc        1 TSI      0.048700
     21 HO7         1.5630   -0.7980    1.6690 ho        1 TSI      0.400000
@<TRIPOS>BOND
     1    1    2 1   
     2    1    3 1   
     3    1    9 1   
     4    1   10 1   
     5    2   11 1   
     6    2   12 1   
     7    3    4 1   
     8    3    5 1   
     9    3    6 1   
    10    4   13 1   
    11    4   14 1   
    12    4   15 1   
    13    5   16 1   
    14    6    7 1   
    15    6    8 1   
    16    6   17 1   
    17    7   18 1   
    18    7   19 1   
    19    7   20 1   
    20    8   21 1   
@<TRIPOS>SUBSTRUCTURE
     1 TSI         1 TEMP              0 ****  ****    0 ROOT
