@<TRIPOS>MOLECULE
TSI
   22    21     1     0     0
SMALL
bcc


@<TRIPOS>ATOM
      1 C2          1.5640    0.0480    0.1360 c3        1 TSI      0.107800
      2 N1          2.1790   -1.2060    0.6550 nz        1 TSI     -0.831600
      3 C3          0.0210   -0.0380    0.0300 c3        1 TSI      0.139800
      4 C5         -0.6250   -0.0190    1.4040 c3        1 TSI     -0.138100
      5 O4         -0.2400   -1.2650   -0.6410 oh        1 TSI     -0.632800
      6 C6         -0.4350    1.1610   -0.8460 c3        1 TSI      0.123100
      7 C8         -1.9340    1.3710   -0.8160 c3        1 TSI     -0.143100
      8 O7          0.2760    2.2880   -0.3500 oh        1 TSI     -0.621800
      9 HC1         1.9920    0.2430   -0.8890 hx        1 TSI      0.128200
     10 HC2         1.8300    0.9070    0.8190 hx        1 TSI      0.128200
     11 HN11        1.8790   -1.3720    1.6200 hn        1 TSI      0.464800
     12 HN12        3.1990   -1.1410    0.6200 hn        1 TSI      0.464800
     13 HC1A       -1.7290   -0.1710    1.3110 hc        1 TSI      0.065700
     14 HC2A       -0.4420    0.9710    1.8910 hc        1 TSI      0.065700
     15 HC3        -0.2250   -0.8340    2.0530 hc        1 TSI      0.065700
     16 HO4        -1.1880   -1.3080   -0.8270 ho        1 TSI      0.451000
     17 HC6        -0.0980    0.9600   -1.9050 h1        1 TSI      0.063700
     18 H81        -2.2230    2.1270   -1.5880 hc        1 TSI      0.064367
     19 H82        -2.2630    1.7470    0.1830 hc        1 TSI      0.064367
     20 H83        -2.4700    0.4190   -1.0420 hc        1 TSI      0.064367
     21 HO7        -0.1820    3.0820   -0.6550 ho        1 TSI      0.440000
     22 H13         1.8620   -1.9970    0.0760 hn        1 TSI      0.464800
@<TRIPOS>BOND
     1    1    2 1   
     2    1    3 1   
     3    1    9 1   
     4    1   10 1   
     5    2   11 1   
     6    2   12 1   
     7    2   22 1   
     8    3    4 1   
     9    3    5 1   
    10    3    6 1   
    11    4   13 1   
    12    4   14 1   
    13    4   15 1   
    14    5   16 1   
    15    6    7 1   
    16    6    8 1   
    17    6   17 1   
    18    7   18 1   
    19    7   19 1   
    20    7   20 1   
    21    8   21 1   
@<TRIPOS>SUBSTRUCTURE
     1 TSI         1 TEMP              0 ****  ****    0 ROOT
