@<TRIPOS>MOLECULE
TSI
   22    21     1     0     0
SMALL
bcc


@<TRIPOS>ATOM
      1 C2          1.5630    0.0380    0.1240 c3        1 TSI      0.107800
      2 N1          2.1740   -1.2210    0.6310 n4        1 TSI     -0.831600
      3 C3          0.0190   -0.0380    0.0290 c3        1 TSI      0.139800
      4 C5         -0.6160   -0.0210    1.4080 c3        1 TSI     -0.138100
      5 O4         -0.2550   -1.2600   -0.6460 oh        1 TSI     -0.632800
      6 C6         -0.4360    1.1680   -0.8380 c3        1 TSI      0.123100
      7 C8         -1.9340    1.3870   -0.7960 c3        1 TSI     -0.143100
      8 O7          0.2850    2.2880   -0.3420 oh        1 TSI     -0.621800
      9 HC1         1.8390    0.8920    0.8080 hx        1 TSI      0.128200
     10 HC2         1.9840    0.2350   -0.9040 hx        1 TSI      0.128200
     11 HN11        3.1950   -1.1620    0.5890 hn        1 TSI      0.464800
     12 HN12        1.8810   -1.3910    1.5990 hn        1 TSI      0.464800
     13 HC1A       -0.2160   -0.8410    2.0500 hc        1 TSI      0.065700
     14 HC2A       -0.4240    0.9650    1.8980 hc        1 TSI      0.065700
     15 HC3        -1.7220   -0.1660    1.3230 hc        1 TSI      0.065700
     16 HO4        -1.2040   -1.2970   -0.8250 ho        1 TSI      0.451000
     17 HC6        -0.1090    0.9700   -1.9010 h1        1 TSI      0.063700
     18 H81        -2.2250    2.1480   -1.5620 hc        1 TSI      0.064367
     19 H82        -2.2530    1.7590    0.2070 hc        1 TSI      0.064367
     20 H83        -2.4770    0.4380   -1.0230 hc        1 TSI      0.064367
     21 HO7        -0.1710    3.0870   -0.6390 ho        1 TSI      0.440000
     22 H13         1.8480   -2.0080    0.0520 hn        1 TSI      0.464800
@<TRIPOS>BOND
     1    1    2 1   
     2    1    3 1   
     3    1    9 1   
     4    1   10 1   
     5    2   11 1   
     6    2   12 1   
     7    2   22 1   
     8    3    4 1   
     9    3    5 1   
    10    3    6 1   
    11    4   13 1   
    12    4   14 1   
    13    4   15 1   
    14    5   16 1   
    15    6    7 1   
    16    6    8 1   
    17    6   17 1   
    18    7   18 1   
    19    7   19 1   
    20    7   20 1   
    21    8   21 1   
@<TRIPOS>SUBSTRUCTURE
     1 TSI         1 TEMP              0 ****  ****    0 ROOT
