@<TRIPOS>MOLECULE
TSJ
   44    46     1     0     0
SMALL
bcc


@<TRIPOS>ATOM
      1 F1          0.3060   -0.6040   -0.8020 f         1 TSJ     -0.240967
      2 CAV         1.6250   -0.2930   -0.5640 c3        1 TSJ      0.687200
      3 F2          1.7680   -0.4730    0.7900 f         1 TSJ     -0.240967
      4 F3          2.3120   -1.3500   -1.1130 f         1 TSJ     -0.240967
      5 CAH         2.0480    1.0750   -1.0820 ca        1 TSJ     -0.168300
      6 CAI         2.0140    2.1800   -0.2340 ca        1 TSJ     -0.072000
      7 CAG         2.4480    1.2020   -2.4140 ca        1 TSJ     -0.092000
      8 CAF         2.8190    2.4550   -2.9080 ca        1 TSJ     -0.088300
      9 CAU         3.2610    2.6060   -4.3140 c3        1 TSJ     -0.051800
     10 CAE         2.7840    3.5700   -2.0620 ca        1 TSJ     -0.085000
     11 CAJ         2.3850    3.4420   -0.7250 ca        1 TSJ     -0.093500
     12 CAK         2.3510    4.5920    0.1620 cc        1 TSJ      0.353800
     13 CAO         2.4130    4.5390    1.6070 cc        1 TSJ     -0.302300
     14 NAL         2.2530    5.8910   -0.2600 nd        1 TSJ     -0.527800
     15 NAM         2.2990    6.6600    0.8270 na        1 TSJ     -0.046600
     16 CAN         2.3520    5.8890    2.0240 cd        1 TSJ      0.056300
     17 NAP         2.3730    6.4430    3.2940 ns        1 TSJ     -0.474100
     18 CAQ         2.6250    5.7150    4.4730 c         1 TSJ      0.706700
     19 OAR         2.7780    4.4840    4.4350 o         1 TSJ     -0.581100
     20 C4          2.6680    6.5500    5.7000 ca        1 TSJ     -0.187600
     21 C3          3.5400    7.6470    5.7490 ca        1 TSJ     -0.135000
     22 C2          3.5860    8.4520    6.8810 ca        1 TSJ     -0.117000
     23 C1          2.7560    8.1780    7.9750 ca        1 TSJ     -0.093600
     24 C8          2.7850    9.0840    9.2040 c         1 TSJ      0.906200
     25 O1          2.0240    8.7880   10.1660 o         1 TSJ     -0.819800
     26 O2          3.5640   10.0760    9.1780 o         1 TSJ     -0.819800
     27 C6          1.9000    7.0770    7.9260 ca        1 TSJ     -0.116000
     28 C5          1.8460    6.2500    6.7980 ca        1 TSJ     -0.049300
     29 C7          0.9230    5.0910    6.7720 c3        1 TSJ     -0.060800
     30 H1          1.7010    2.0650    0.8170 ha        1 TSJ      0.163000
     31 H2          2.4730    0.3150   -3.0660 ha        1 TSJ      0.143000
     32 H3          2.8670    3.5570   -4.7510 hc        1 TSJ      0.045033
     33 H4          4.3790    2.6360   -4.3610 hc        1 TSJ      0.045033
     34 H5          2.9060    1.7540   -4.9420 hc        1 TSJ      0.045033
     35 H6          3.0760    4.5560   -2.4570 ha        1 TSJ      0.153000
     36 H7          2.5070    3.6680    2.2480 ha        1 TSJ      0.196000
     37 H9          2.2710    7.4300    3.3810 hn        1 TSJ      0.326500
     38 H10         4.2030    7.8610    4.8980 ha        1 TSJ      0.111000
     39 H11         4.2650    9.3170    6.9450 ha        1 TSJ      0.160000
     40 H13         1.2640    6.8750    8.8050 ha        1 TSJ      0.162000
     41 H14         1.4650    4.1680    6.4420 hc        1 TSJ      0.044367
     42 H15         0.4850    4.9070    7.7830 hc        1 TSJ      0.044367
     43 H16         0.0850    5.2780    6.0540 hc        1 TSJ      0.044367
     44 H8          2.0660    7.6220    0.7560 hn        1 TSJ      0.313700
@<TRIPOS>BOND
     1    1    2 1   
     2    2    3 1   
     3    2    4 1   
     4    2    5 1   
     5    5    6 ar  
     6    5    7 ar  
     7    6   11 ar  
     8    6   30 1   
     9    7    8 ar  
    10    7   31 1   
    11    8    9 1   
    12    8   10 ar  
    13    9   32 1   
    14    9   33 1   
    15    9   34 1   
    16   10   11 ar  
    17   10   35 1   
    18   11   12 1   
    19   12   13 1   
    20   12   14 2   
    21   13   16 2   
    22   13   36 1   
    23   14   15 1   
    24   15   16 1   
    25   15   44 1   
    26   16   17 1   
    27   17   18 1   
    28   17   37 1   
    29   18   19 2   
    30   18   20 1   
    31   20   21 ar  
    32   20   28 ar  
    33   21   22 ar  
    34   21   38 1   
    35   22   23 ar  
    36   22   39 1   
    37   23   24 1   
    38   23   27 ar  
    39   24   25 1   
    40   24   26 1   
    41   27   28 ar  
    42   27   40 1   
    43   28   29 1   
    44   29   41 1   
    45   29   42 1   
    46   29   43 1   
@<TRIPOS>SUBSTRUCTURE
     1 TSJ         1 TEMP              0 ****  ****    0 ROOT
