@<TRIPOS>MOLECULE
TSJ
   44    46     1     0     0
SMALL
bcc


@<TRIPOS>ATOM
      1 F1          0.2760   -0.5950   -0.7970 f         1 TSJ     -0.240967
      2 CAV         1.5970   -0.2940   -0.5550 c3        1 TSJ      0.687200
      3 F2          1.7340   -0.4710    0.7990 f         1 TSJ     -0.240967
      4 F3          2.2770   -1.3570   -1.1010 f         1 TSJ     -0.240967
      5 CAH         2.0320    1.0700   -1.0750 ca        1 TSJ     -0.168300
      6 CAI         2.0040    2.1770   -0.2290 ca        1 TSJ     -0.072000
      7 CAG         2.4370    1.1910   -2.4060 ca        1 TSJ     -0.092000
      8 CAF         2.8200    2.4400   -2.9010 ca        1 TSJ     -0.088300
      9 CAU         3.2670    2.5850   -4.3060 c3        1 TSJ     -0.051800
     10 CAE         2.7900    3.5580   -2.0580 ca        1 TSJ     -0.085000
     11 CAJ         2.3850    3.4350   -0.7220 ca        1 TSJ     -0.093500
     12 CAK         2.3570    4.5880    0.1620 cc        1 TSJ      0.353800
     13 CAO         2.4140    4.5370    1.6070 cc        1 TSJ     -0.302300
     14 NAL         2.2690    5.8870   -0.2630 nd        1 TSJ     -0.527800
     15 NAM         2.3170    6.6570    0.8220 na        1 TSJ     -0.046600
     16 CAN         2.3620    5.8880    2.0210 cd        1 TSJ      0.056300
     17 NAP         2.3830    6.4450    3.2900 n         1 TSJ     -0.474100
     18 CAQ         2.6280    5.7180    4.4710 c         1 TSJ      0.706700
     19 OAR         2.7730    4.4860    4.4360 o         1 TSJ     -0.581100
     20 C4          2.6730    6.5550    5.6960 ca        1 TSJ     -0.187600
     21 C3          3.5500    7.6470    5.7450 ca        1 TSJ     -0.135000
     22 C2          3.5980    8.4540    6.8760 ca        1 TSJ     -0.117000
     23 C1          2.7650    8.1880    7.9690 ca        1 TSJ     -0.093600
     24 C8          2.7960    9.0950    9.1960 c         1 TSJ      0.906200
     25 O1          2.0310    8.8060   10.1570 o         1 TSJ     -0.819800
     26 O2          3.5810   10.0830    9.1700 o         1 TSJ     -0.819800
     27 C6          1.9030    7.0910    7.9200 ca        1 TSJ     -0.116000
     28 C5          1.8460    6.2620    6.7930 ca        1 TSJ     -0.049300
     29 C7          0.9170    5.1080    6.7680 c3        1 TSJ     -0.060800
     30 H1          1.6860    2.0670    0.8210 ha        1 TSJ      0.163000
     31 H2          2.4580    0.3030   -3.0560 ha        1 TSJ      0.143000
     32 H3          4.3850    2.5930   -4.3510 hc        1 TSJ      0.045033
     33 H4          2.8930    3.5440   -4.7430 hc        1 TSJ      0.045033
     34 H5          2.8970    1.7400   -4.9370 hc        1 TSJ      0.045033
     35 H6          3.0900    4.5410   -2.4540 ha        1 TSJ      0.153000
     36 H7          2.5000    3.6670    2.2510 ha        1 TSJ      0.196000
     37 H9          2.2870    7.4330    3.3750 hn        1 TSJ      0.326500
     38 H10         4.2170    7.8560    4.8960 ha        1 TSJ      0.111000
     39 H11         4.2830    9.3160    6.9390 ha        1 TSJ      0.160000
     40 H13         1.2640    6.8940    8.7980 ha        1 TSJ      0.162000
     41 H14         1.4540    4.1820    6.4420 hc        1 TSJ      0.044367
     42 H15         0.4750    4.9290    7.7780 hc        1 TSJ      0.044367
     43 H16         0.0820    5.2990    6.0480 hc        1 TSJ      0.044367
     44 H8          2.0910    7.6210    0.7490 hn        1 TSJ      0.313700
@<TRIPOS>BOND
     1    1    2 1   
     2    2    3 1   
     3    2    4 1   
     4    2    5 1   
     5    5    6 ar  
     6    5    7 ar  
     7    6   11 ar  
     8    6   30 1   
     9    7    8 ar  
    10    7   31 1   
    11    8    9 1   
    12    8   10 ar  
    13    9   32 1   
    14    9   33 1   
    15    9   34 1   
    16   10   11 ar  
    17   10   35 1   
    18   11   12 1   
    19   12   13 1   
    20   12   14 2   
    21   13   16 2   
    22   13   36 1   
    23   14   15 1   
    24   15   16 1   
    25   15   44 1   
    26   16   17 1   
    27   17   18 1   
    28   17   37 1   
    29   18   19 2   
    30   18   20 1   
    31   20   21 ar  
    32   20   28 ar  
    33   21   22 ar  
    34   21   38 1   
    35   22   23 ar  
    36   22   39 1   
    37   23   24 1   
    38   23   27 ar  
    39   24   25 1   
    40   24   26 1   
    41   27   28 ar  
    42   27   40 1   
    43   28   29 1   
    44   29   41 1   
    45   29   42 1   
    46   29   43 1   
@<TRIPOS>SUBSTRUCTURE
     1 TSJ         1 TEMP              0 ****  ****    0 ROOT
