@<TRIPOS>MOLECULE
TSK
   44    48     1     0     0
SMALL
bcc


@<TRIPOS>ATOM
      1 N1          0.3140   -0.2170    0.1610 n         1 TSK     -0.629500
      2 C2          1.6720    0.1650    0.2510 c         1 TSK      0.708700
      3 C3          2.0450    0.0940    1.7200 cc        1 TSK     -0.080200
      4 C4          0.9330   -0.2850    2.4310 cd        1 TSK     -0.030200
      5 C5         -0.2010   -0.5100    1.4430 c         1 TSK      0.703700
      6 O6         -1.3630   -0.8660    1.6490 o         1 TSK     -0.564500
      7 O7          2.3600    0.4830   -0.7200 o         1 TSK     -0.564500
      8 C8          3.3690    0.3580    2.1790 cc        1 TSK     -0.098200
      9 C9          4.2880    1.3870    1.7010 ca        1 TSK     -0.054800
     10 C10         5.4680    1.2340    2.4880 ca        1 TSK      0.021100
     11 O11         5.3220    0.1760    3.3910 os        1 TSK     -0.170200
     12 C12         4.0420   -0.3300    3.1750 cd        1 TSK      0.019100
     13 C13         0.7630   -0.4110    3.8360 cd        1 TSK     -0.130200
     14 C14         1.4350    0.3760    4.7930 cc        1 TSK     -0.045100
     15 N15         1.0570    0.0120    6.0770 na        1 TSK     -0.058400
     16 C16         0.1110   -1.0240    5.9790 ca        1 TSK     -0.077200
     17 C17        -0.0980   -1.3160    4.5770 ca        1 TSK     -0.020800
     18 C18         4.2440    2.3860    0.7290 ca        1 TSK     -0.104000
     19 C19         5.3560    3.2070    0.5740 ca        1 TSK     -0.109000
     20 C20         6.5100    3.0610    1.3570 ca        1 TSK     -0.189000
     21 C21         6.5870    2.0620    2.3340 ca        1 TSK      0.138100
     22 C22        -0.9850   -2.3250    4.2220 ca        1 TSK     -0.118000
     23 C23        -1.6510   -3.0350    5.2340 ca        1 TSK      0.140900
     24 C24        -1.4420   -2.7430    6.6070 ca        1 TSK     -0.000100
     25 C25        -0.5610   -1.7360    6.9780 ca        1 TSK     -0.083000
     26 C26         1.4720    0.6440    7.2870 c3        1 TSK      0.021600
     27 F30        -2.5100   -4.0150    4.8620 f         1 TSK     -0.126900
     28 I31        -2.3800   -3.7380    8.1000 i         1 TSK     -0.118900
     29 O32         7.6600    1.8270    3.1660 os        1 TSK     -0.311900
     30 C33         8.8240    2.6060    2.9080 c3        1 TSK      0.111700
     31 HN1        -0.2010   -0.2760   -0.6800 hn        1 TSK      0.350500
     32 H12         3.7870   -1.1790    3.8080 h4        1 TSK      0.201000
     33 H14         2.1660    1.1720    4.6200 h4        1 TSK      0.184000
     34 H18         3.3590    2.4970    0.0850 ha        1 TSK      0.158000
     35 H19         5.3380    3.9980   -0.1920 ha        1 TSK      0.138000
     36 H20         7.3600    3.7370    1.1920 ha        1 TSK      0.142000
     37 H22        -1.1870   -2.5580    3.1640 ha        1 TSK      0.177000
     38 H25        -0.3880   -1.4950    8.0390 ha        1 TSK      0.150000
     39 H26         0.6550    1.3080    7.6820 h1        1 TSK      0.059033
     40 H26A        2.3890    1.2620    7.0950 h1        1 TSK      0.059033
     41 H26B        1.7070   -0.1390    8.0590 h1        1 TSK      0.059033
     42 H33         8.6190    3.6890    3.0920 h1        1 TSK      0.047033
     43 H33A        9.5660    2.2130    3.6490 h1        1 TSK      0.047033
     44 H33B        9.1850    2.4470    1.8640 h1        1 TSK      0.047033
@<TRIPOS>BOND
     1    1    2 1   
     2    1    5 1   
     3    1   31 1   
     4    2    3 1   
     5    2    7 2   
     6    3    4 2   
     7    3    8 1   
     8    4    5 1   
     9    4   13 1   
    10    5    6 2   
    11    8    9 1   
    12    8   12 2   
    13    9   10 ar  
    14    9   18 ar  
    15   10   11 1   
    16   10   21 ar  
    17   11   12 1   
    18   12   32 1   
    19   13   14 2   
    20   13   17 1   
    21   14   15 1   
    22   14   33 1   
    23   15   16 1   
    24   15   26 1   
    25   16   17 ar  
    26   16   25 ar  
    27   17   22 ar  
    28   18   19 ar  
    29   18   34 1   
    30   19   20 ar  
    31   19   35 1   
    32   20   21 ar  
    33   20   36 1   
    34   21   29 1   
    35   22   23 ar  
    36   22   37 1   
    37   23   24 ar  
    38   23   27 1   
    39   24   25 ar  
    40   24   28 1   
    41   25   38 1   
    42   26   39 1   
    43   26   40 1   
    44   26   41 1   
    45   29   30 1   
    46   30   42 1   
    47   30   43 1   
    48   30   44 1   
@<TRIPOS>SUBSTRUCTURE
     1 TSK         1 TEMP              0 ****  ****    0 ROOT
