@<TRIPOS>MOLECULE
TSK
   44    48     1     0     0
SMALL
bcc


@<TRIPOS>ATOM
      1 N1          0.3230   -0.2110    0.1540 ns        1 TSK     -0.629500
      2 C2          1.6820    0.1670    0.2480 c         1 TSK      0.708700
      3 C3          2.0500    0.0960    1.7180 cc        1 TSK     -0.080200
      4 C4          0.9350   -0.2810    2.4250 cd        1 TSK     -0.030200
      5 C5         -0.1970   -0.5030    1.4330 c         1 TSK      0.703700
      6 O6         -1.3590   -0.8570    1.6360 o         1 TSK     -0.564500
      7 O7          2.3740    0.4830   -0.7210 o         1 TSK     -0.564500
      8 C8          3.3730    0.3560    2.1810 cc        1 TSK     -0.098200
      9 C9          4.2960    1.3830    1.7060 ca        1 TSK     -0.054800
     10 C10         5.4730    1.2280    2.4970 ca        1 TSK      0.021100
     11 O11         5.3220    0.1690    3.4000 os        1 TSK     -0.170200
     12 C12         4.0420   -0.3340    3.1790 cd        1 TSK      0.019100
     13 C13         0.7600   -0.4070    3.8300 cd        1 TSK     -0.130200
     14 C14         1.4310    0.3780    4.7890 cc        1 TSK     -0.045100
     15 N15         1.0480    0.0160    6.0720 na        1 TSK     -0.058400
     16 C16         0.1000   -1.0190    5.9710 ca        1 TSK     -0.077200
     17 C17        -0.1050   -1.3100    4.5690 ca        1 TSK     -0.020800
     18 C18         4.2570    2.3820    0.7350 ca        1 TSK     -0.104000
     19 C19         5.3710    3.2010    0.5830 ca        1 TSK     -0.109000
     20 C20         6.5230    3.0520    1.3700 ca        1 TSK     -0.189000
     21 C21         6.5950    2.0530    2.3460 ca        1 TSK      0.138100
     22 C22        -0.9940   -2.3170    4.2110 ca        1 TSK     -0.118000
     23 C23        -1.6650   -3.0240    5.2200 ca        1 TSK      0.140900
     24 C24        -1.4590   -2.7340    6.5940 ca        1 TSK     -0.000100
     25 C25        -0.5770   -1.7290    6.9680 ca        1 TSK     -0.083000
     26 C26         1.4610    0.6460    7.2830 c3        1 TSK      0.021600
     27 F30        -2.5250   -4.0030    4.8460 f         1 TSK     -0.126900
     28 I31        -2.4050   -3.7250    8.0840 i         1 TSK     -0.118900
     29 O32         7.6640    1.8160    3.1820 os        1 TSK     -0.311900
     30 C33         8.8310    2.5920    2.9290 c3        1 TSK      0.111700
     31 HN1        -0.1890   -0.2700   -0.6890 hn        1 TSK      0.350500
     32 H12         3.7830   -1.1820    3.8110 h4        1 TSK      0.201000
     33 H14         2.1650    1.1720    4.6180 h4        1 TSK      0.184000
     34 H18         3.3740    2.4960    0.0880 ha        1 TSK      0.158000
     35 H19         5.3570    3.9920   -0.1830 ha        1 TSK      0.138000
     36 H20         7.3750    3.7270    1.2070 ha        1 TSK      0.142000
     37 H22        -1.1930   -2.5490    3.1520 ha        1 TSK      0.177000
     38 H25        -0.4070   -1.4880    8.0290 ha        1 TSK      0.150000
     39 H26         0.6450    1.3120    7.6760 h1        1 TSK      0.059033
     40 H26A        2.3790    1.2620    7.0940 h1        1 TSK      0.059033
     41 H26B        1.6920   -0.1370    8.0560 h1        1 TSK      0.059033
     42 H33         8.6280    3.6750    3.1120 h1        1 TSK      0.047033
     43 H33A        9.5690    2.1970    3.6720 h1        1 TSK      0.047033
     44 H33B        9.1950    2.4320    1.8850 h1        1 TSK      0.047033
@<TRIPOS>BOND
     1    1    2 1   
     2    1    5 1   
     3    1   31 1   
     4    2    3 1   
     5    2    7 2   
     6    3    4 2   
     7    3    8 1   
     8    4    5 1   
     9    4   13 1   
    10    5    6 2   
    11    8    9 1   
    12    8   12 2   
    13    9   10 ar  
    14    9   18 ar  
    15   10   11 1   
    16   10   21 ar  
    17   11   12 1   
    18   12   32 1   
    19   13   14 2   
    20   13   17 1   
    21   14   15 1   
    22   14   33 1   
    23   15   16 1   
    24   15   26 1   
    25   16   17 ar  
    26   16   25 ar  
    27   17   22 ar  
    28   18   19 ar  
    29   18   34 1   
    30   19   20 ar  
    31   19   35 1   
    32   20   21 ar  
    33   20   36 1   
    34   21   29 1   
    35   22   23 ar  
    36   22   37 1   
    37   23   24 ar  
    38   23   27 1   
    39   24   25 ar  
    40   24   28 1   
    41   25   38 1   
    42   26   39 1   
    43   26   40 1   
    44   26   41 1   
    45   29   30 1   
    46   30   42 1   
    47   30   43 1   
    48   30   44 1   
@<TRIPOS>SUBSTRUCTURE
     1 TSK         1 TEMP              0 ****  ****    0 ROOT
