@<TRIPOS>MOLECULE
TSK
   44    48     1     0     0
SMALL
bcc


@<TRIPOS>ATOM
      1 N1          2.3220    3.7740   -0.5110 n         1 TSK     -0.629500
      2 C2          3.2530    2.7170   -0.6390 c         1 TSK      0.708700
      3 C3          2.5190    1.4460   -0.2550 cc        1 TSK     -0.080200
      4 C4          1.2350    1.7770    0.0990 cd        1 TSK     -0.030200
      5 C5          1.0740    3.2800   -0.0730 c         1 TSK      0.703700
      6 O6          0.0870    3.9910    0.1210 o         1 TSK     -0.564500
      7 O7          4.4210    2.8730   -0.9960 o         1 TSK     -0.564500
      8 C8          3.1390    0.1640   -0.3260 cc        1 TSK     -0.098200
      9 C9          4.5120   -0.1830    0.0300 ca        1 TSK     -0.054800
     10 C10         4.6230   -1.5840   -0.2130 ca        1 TSK      0.021100
     11 O11         3.4170   -2.0950   -0.7030 os        1 TSK     -0.170200
     12 C12         2.5430   -1.0100   -0.7590 cd        1 TSK      0.019100
     13 C13         0.1980    0.9480    0.6050 cd        1 TSK     -0.130200
     14 C14         0.4090   -0.1920    1.4060 cc        1 TSK     -0.045100
     15 N15        -0.7990   -0.7880    1.7370 na        1 TSK     -0.058400
     16 C16        -1.8340   -0.0310    1.1580 ca        1 TSK     -0.077200
     17 C17        -1.2400    1.0720    0.4370 ca        1 TSK     -0.020800
     18 C18         5.6200    0.5150    0.5110 ca        1 TSK     -0.104000
     19 C19         6.7940   -0.1930    0.7470 ca        1 TSK     -0.109000
     20 C20         6.8960   -1.5730    0.5180 ca        1 TSK     -0.189000
     21 C21         5.8040   -2.2970    0.0280 ca        1 TSK      0.138100
     22 C22        -2.0670    1.9600   -0.2410 ca        1 TSK     -0.118000
     23 C23        -3.4560    1.7600   -0.2070 ca        1 TSK      0.140900
     24 C24        -4.0320    0.6740    0.5030 ca        1 TSK     -0.000100
     25 C25        -3.2200   -0.2200    1.1870 ca        1 TSK     -0.083000
     26 C26        -0.9750   -1.9110    2.5980 c3        1 TSK      0.021600
     27 F30        -4.2410    2.6370   -0.8770 f         1 TSK     -0.126900
     28 I31        -6.0290    0.3450    0.5820 i         1 TSK     -0.118900
     29 O32         5.7820   -3.6510   -0.2290 os        1 TSK     -0.311900
     30 C33         7.0280   -4.3270   -0.0860 c3        1 TSK      0.111700
     31 HN1         2.5150    4.7220   -0.7070 hn        1 TSK      0.350500
     32 H12         1.5520   -1.2570   -1.1380 h4        1 TSK      0.201000
     33 H14         1.3620   -0.6070    1.7520 h4        1 TSK      0.184000
     34 H18         5.5680    1.6020    0.6690 ha        1 TSK      0.158000
     35 H19         7.6780    0.3440    1.1230 ha        1 TSK      0.138000
     36 H20         7.8480   -2.0810    0.7230 ha        1 TSK      0.142000
     37 H22        -1.6500    2.8260   -0.7810 ha        1 TSK      0.177000
     38 H25        -3.6510   -1.0660    1.7460 ha        1 TSK      0.150000
     39 H26        -1.3390   -1.5770    3.6080 h1        1 TSK      0.059033
     40 H26A       -1.7330   -2.6110    2.1540 h1        1 TSK      0.059033
     41 H26B        0.0020   -2.4510    2.7200 h1        1 TSK      0.059033
     42 H33         7.3700   -4.2960    0.9770 h1        1 TSK      0.047033
     43 H33A        6.7870   -5.3760   -0.3940 h1        1 TSK      0.047033
     44 H33B        7.8000   -3.8840   -0.7600 h1        1 TSK      0.047033
@<TRIPOS>BOND
     1    1    2 1   
     2    1    5 1   
     3    1   31 1   
     4    2    3 1   
     5    2    7 2   
     6    3    4 2   
     7    3    8 1   
     8    4    5 1   
     9    4   13 1   
    10    5    6 2   
    11    8    9 1   
    12    8   12 2   
    13    9   10 ar  
    14    9   18 ar  
    15   10   11 1   
    16   10   21 ar  
    17   11   12 1   
    18   12   32 1   
    19   13   14 2   
    20   13   17 1   
    21   14   15 1   
    22   14   33 1   
    23   15   16 1   
    24   15   26 1   
    25   16   17 ar  
    26   16   25 ar  
    27   17   22 ar  
    28   18   19 ar  
    29   18   34 1   
    30   19   20 ar  
    31   19   35 1   
    32   20   21 ar  
    33   20   36 1   
    34   21   29 1   
    35   22   23 ar  
    36   22   37 1   
    37   23   24 ar  
    38   23   27 1   
    39   24   25 ar  
    40   24   28 1   
    41   25   38 1   
    42   26   39 1   
    43   26   40 1   
    44   26   41 1   
    45   29   30 1   
    46   30   42 1   
    47   30   43 1   
    48   30   44 1   
@<TRIPOS>SUBSTRUCTURE
     1 TSK         1 TEMP              0 ****  ****    0 ROOT
