@<TRIPOS>MOLECULE
TSL
   28    28     1     0     0
SMALL
bcc


@<TRIPOS>ATOM
      1 C14         0.4030   -0.4960   -0.6860 c3        1 TSL     -0.076100
      2 C2          1.5900    0.0630    0.0550 c3        1 TSL     -0.039200
      3 S1          3.0260   -1.1110    0.0590 s6        1 TSL      0.511400
      4 O12         2.6930   -1.9250   -1.4170 oh        1 TSL     -0.703700
      5 O13         2.4660   -2.2210    0.8720 o         1 TSL     -0.626800
      6 C20         2.0710    1.3330   -0.6130 c3        1 TSL     -0.076100
      7 C3          1.2990    0.3720    1.5280 c3        1 TSL      0.005500
      8 C9          2.6910    0.4910    2.2500 c         1 TSL      0.759600
      9 O11         2.8280    1.2430    3.2200 o         1 TSL     -0.668500
     10 O10         3.5940   -0.2570    1.7190 os        1 TSL     -0.435800
     11 N4          0.5000   -0.7260    2.1810 ny        1 TSL     -0.651800
     12 C5          0.6310   -0.7110    3.6300 c2        1 TSL     -0.065000
     13 C6          1.0560   -1.7640    4.3400 ce        1 TSL     -0.178200
     14 C7          1.4840   -3.0670    3.7750 c         1 TSL      0.525100
     15 O8          0.9880   -4.1250    4.1580 o         1 TSL     -0.490100
     16 H141        0.6160   -0.4940   -1.7860 hc        1 TSL      0.048367
     17 H142       -0.5130    0.1140   -0.5020 hc        1 TSL      0.048367
     18 H143        0.2070   -1.5580   -0.3940 hc        1 TSL      0.048367
     19 H12         2.2700   -2.7750   -1.3290 ho        1 TSL      0.424000
     20 H201        1.2470    2.0840   -0.6780 hc        1 TSL      0.048367
     21 H202        2.4190    1.1010   -1.6500 hc        1 TSL      0.048367
     22 H203        2.9180    1.7800   -0.0360 hc        1 TSL      0.048367
     23 H3          0.7300    1.3340    1.6480 hx        1 TSL      0.099700
     24 HN4        -0.4840   -0.6210    1.9230 hn        1 TSL      0.462300
     25 H5          0.4120    0.2800    4.0770 hx        1 TSL      0.198000
     26 H6          1.1310   -1.6760    5.4410 ha        1 TSL      0.187000
     27 H7          2.2920   -3.0150    3.0010 h4        1 TSL      0.089200
     28 H42         0.8510   -1.6350    1.8020 hn        1 TSL      0.462300
@<TRIPOS>BOND
     1    1    2 1   
     2    1   16 1   
     3    1   17 1   
     4    1   18 1   
     5    2    3 1   
     6    2    6 1   
     7    2    7 1   
     8    3    4 1   
     9    3    5 2   
    10    3   10 1   
    11    4   19 1   
    12    6   20 1   
    13    6   21 1   
    14    6   22 1   
    15    7    8 1   
    16    7   11 1   
    17    7   23 1   
    18    8    9 2   
    19    8   10 1   
    20   11   12 1   
    21   11   24 1   
    22   11   28 1   
    23   12   13 2   
    24   12   25 1   
    25   13   14 1   
    26   13   26 1   
    27   14   15 2   
    28   14   27 1   
@<TRIPOS>SUBSTRUCTURE
     1 TSL         1 TEMP              0 ****  ****    0 ROOT
