@<TRIPOS>MOLECULE
TSL
   28    28     1     0     0
SMALL
bcc


@<TRIPOS>ATOM
      1 C14         0.3690   -0.4770   -0.6650 c3        1 TSL     -0.076100
      2 C2          1.5750    0.0660    0.0550 c3        1 TSL     -0.039200
      3 S1          2.9980   -1.1250    0.0290 s6        1 TSL      0.511400
      4 O12         2.6280   -1.9300   -1.4420 oh        1 TSL     -0.703700
      5 O13         2.4390   -2.2310    0.8490 o         1 TSL     -0.626800
      6 C20         2.0590    1.3320   -0.6170 c3        1 TSL     -0.076100
      7 C3          1.3150    0.3730    1.5350 c3        1 TSL      0.005500
      8 C9          2.7210    0.4730    2.2320 c         1 TSL      0.759600
      9 O11         2.8840    1.2210    3.2020 o         1 TSL     -0.668500
     10 O10         3.6050   -0.2840    1.6810 os        1 TSL     -0.435800
     11 N4          0.5150   -0.7170    2.1980 n4        1 TSL     -0.651800
     12 C5          0.6730   -0.7090    3.6450 c2        1 TSL     -0.065000
     13 C6          1.0980   -1.7700    4.3440 ce        1 TSL     -0.178200
     14 C7          1.5010   -3.0750    3.7670 c         1 TSL      0.525100
     15 O8          0.9990   -4.1290    4.1550 o         1 TSL     -0.490100
     16 H141        0.1650   -1.5370   -0.3730 hc        1 TSL      0.048367
     17 H142        0.5610   -0.4740   -1.7690 hc        1 TSL      0.048367
     18 H143       -0.5370    0.1440   -0.4630 hc        1 TSL      0.048367
     19 H12         2.1970   -2.7750   -1.3500 ho        1 TSL      0.424000
     20 H201        1.2430    2.0940   -0.6640 hc        1 TSL      0.048367
     21 H202        2.9220    1.7680   -0.0540 hc        1 TSL      0.048367
     22 H203        2.3850    1.1000   -1.6610 hc        1 TSL      0.048367
     23 H3          0.7600    1.3410    1.6680 hx        1 TSL      0.099700
     24 HN4        -0.4730   -0.6000    1.9590 hn        1 TSL      0.462300
     25 H5          0.4730    0.2820    4.0990 hx        1 TSL      0.198000
     26 H6          1.1940   -1.6860    5.4430 ha        1 TSL      0.187000
     27 H7          2.2950   -3.0310    2.9780 h4        1 TSL      0.089200
     28 H42         0.8480   -1.6290    1.8100 hn        1 TSL      0.462300
@<TRIPOS>BOND
     1    1    2 1   
     2    1   16 1   
     3    1   17 1   
     4    1   18 1   
     5    2    3 1   
     6    2    6 1   
     7    2    7 1   
     8    3    4 1   
     9    3    5 2   
    10    3   10 1   
    11    4   19 1   
    12    6   20 1   
    13    6   21 1   
    14    6   22 1   
    15    7    8 1   
    16    7   11 1   
    17    7   23 1   
    18    8    9 2   
    19    8   10 1   
    20   11   12 1   
    21   11   24 1   
    22   11   28 1   
    23   12   13 2   
    24   12   25 1   
    25   13   14 1   
    26   13   26 1   
    27   14   15 2   
    28   14   27 1   
@<TRIPOS>SUBSTRUCTURE
     1 TSL         1 TEMP              0 ****  ****    0 ROOT
