@<TRIPOS>MOLECULE
TSL
   27    25     1     0     0
SMALL
bcc


@<TRIPOS>ATOM
      1 C14        -0.3610    1.3010   -1.6730 c3        1 TSL     -0.195500
      2 C2          0.2760   -0.0290   -1.3420 c3        1 TSL     -0.502000
      3 S1         -0.9350   -1.3260   -1.5060 s4        1 TSL      1.442000
      4 O12        -0.5130   -2.6950   -1.9910 oh        1 TSL     -0.616000
      5 O13        -2.2940   -1.1080   -1.0520 o         1 TSL     -0.812000
      6 C20         1.4460   -0.2940   -2.3120 c3        1 TSL     -0.195500
      7 C3          0.7940    0.0020    0.0770 c3        1 TSL     -0.045000
      8 C9          1.2060   -1.3960    0.4970 c2        1 TSL      0.343000
      9 O11         0.3280   -2.2580    0.7590 o         1 TSL     -0.551000
     10 O10         2.4230   -1.7000    0.5590 o         1 TSL     -0.551000
     11 N4         -0.2300    0.4780    0.9470 n3        1 TSL     -0.272000
     12 C5          0.0580    1.5020    1.8940 c2        1 TSL      0.104000
     13 C6         -0.4870    1.4520    3.1300 c1        1 TSL     -0.461000
     14 C7         -1.3960    0.3190    3.5040 c1        1 TSL      0.240000
     15 O8         -2.5970    0.4790    3.4970 o         1 TSL     -0.387000
     16 H141       -1.2030    1.3920   -1.1800 hc        1 TSL      0.079833
     17 H142       -0.5380    1.3470   -2.6280 hc        1 TSL      0.079833
     18 H143        0.2500    2.0310   -1.4160 hc        1 TSL      0.079833
     19 H12        -1.1740   -3.0560   -2.4810 ho        1 TSL      0.295000
     20 H201        2.1520    0.3860   -2.1720 hc        1 TSL      0.079833
     21 H202        1.1230   -0.2430   -3.2330 hc        1 TSL      0.079833
     22 H203        1.8150   -1.1890   -2.1430 hc        1 TSL      0.079833
     23 H3          1.5710    0.6020    0.1280 h1        1 TSL      0.096000
     24 HN4        -1.0630    0.1280    0.8980 hn        1 TSL      0.262000
     25 H5          0.6550    2.2460    1.6490 h4        1 TSL      0.118000
     26 H6         -0.2890    2.1550    3.7800 ha        1 TSL      0.129000
     27 H7         -1.0190   -0.5260    3.8100 ha        1 TSL      0.079000
@<TRIPOS>BOND
     1    1    2 1   
     2    1   16 1   
     3    1   17 1   
     4    1   18 1   
     5    2    3 1   
     6    2    6 1   
     7    2    7 1   
     8    3    4 1   
     9    3    5 1   
    10    4   19 1   
    11    6   20 1   
    12    6   21 1   
    13    6   22 1   
    14    7    8 1   
    15    7   11 1   
    16    7   23 1   
    17    8    9 1   
    18    8   10 1   
    19   11   12 1   
    20   11   24 1   
    21   12   13 1   
    22   12   25 1   
    23   13   26 1   
    24   14   15 1   
    25   14   27 1   
@<TRIPOS>SUBSTRUCTURE
     1 TSL         1 TEMP              0 ****  ****    0 ROOT
