@<TRIPOS>MOLECULE
TSL
   28    28     1     0     0
SMALL
bcc


@<TRIPOS>ATOM
      1 C14         0.1150   -0.1520   -0.0390 c3        1 TSL     -0.074600
      2 C2          1.6080    0.0100    0.0490 c3        1 TSL     -0.040200
      3 S1          2.4940   -1.2830   -0.9410 s6        1 TSL      0.508400
      4 O12         1.2780   -1.6140   -2.1110 oh        1 TSL     -0.706700
      5 O13         2.1570   -2.4870   -0.1490 o         1 TSL     -0.607800
      6 C20         2.0100    1.3480   -0.5380 c3        1 TSL     -0.074600
      7 C3          2.1840   -0.0790    1.4640 c3        1 TSL      0.002500
      8 C9          3.7380   -0.3290    1.3060 c         1 TSL      0.755600
      9 O11         4.5060    0.0420    2.1990 o         1 TSL     -0.667500
     10 O10         4.0350   -0.9560    0.2250 os        1 TSL     -0.424800
     11 N4          1.6650   -1.2260    2.2890 n4        1 TSL     -0.663800
     12 C5          0.4600   -0.9080    3.0270 c2        1 TSL     -0.004000
     13 C6          0.1820   -1.3270    4.2720 ce        1 TSL     -0.239200
     14 C7          1.0440   -2.1650    5.1230 c         1 TSL      0.554100
     15 O8          2.0940   -2.6710    4.7200 o         1 TSL     -0.508100
     16 H141       -0.4150    0.6170    0.5740 hc        1 TSL      0.046867
     17 H142       -0.2070   -0.0260   -1.1060 hc        1 TSL      0.046867
     18 H143       -0.2040   -1.1740    0.2830 hc        1 TSL      0.046867
     19 H12         0.7590   -2.3960   -1.9460 ho        1 TSL      0.422000
     20 H201        1.7050    1.3910   -1.6130 hc        1 TSL      0.046867
     21 H202        1.5100    2.1870    0.0040 hc        1 TSL      0.046867
     22 H203        3.1170    1.4880   -0.4690 hc        1 TSL      0.046867
     23 H3          2.0110    0.8740    2.0350 hx        1 TSL      0.098700
     24 HN4         1.4890   -2.0350    1.6450 hn        1 TSL      0.495800
     25 H5         -0.2430   -0.2650    2.4560 hx        1 TSL      0.192000
     26 H6         -0.7780   -1.0220    4.7270 ha        1 TSL      0.172000
     27 H7          0.6810   -2.3130    6.1640 h4        1 TSL      0.036200
     28 H42         2.4200   -1.5120    2.9400 hn        1 TSL      0.495800
@<TRIPOS>BOND
     1    1    2 1   
     2    1   16 1   
     3    1   17 1   
     4    1   18 1   
     5    2    3 1   
     6    2    6 1   
     7    2    7 1   
     8    3    4 1   
     9    3    5 2   
    10    3   10 1   
    11    4   19 1   
    12    6   20 1   
    13    6   21 1   
    14    6   22 1   
    15    7    8 1   
    16    7   11 1   
    17    7   23 1   
    18    8    9 2   
    19    8   10 1   
    20   11   12 1   
    21   11   24 1   
    22   11   28 1   
    23   12   13 2   
    24   12   25 1   
    25   13   14 1   
    26   13   26 1   
    27   14   15 2   
    28   14   27 1   
@<TRIPOS>SUBSTRUCTURE
     1 TSL         1 TEMP              0 ****  ****    0 ROOT
