@<TRIPOS>MOLECULE
TSL
   27    27     1     0     0
SMALL
bcc


@<TRIPOS>ATOM
      1 C14         1.2390   -1.2590   -1.6410 c3        1 TSL     -0.057100
      2 C2          1.4770   -0.0040   -0.8430 c3        1 TSL     -0.033200
      3 S1          2.2600   -0.3640    0.7810 s6        1 TSL      0.473400
      4 O12         3.2440   -1.7290    0.3190 oh        1 TSL     -0.738700
      5 O13         1.2720   -1.2270    1.4460 o         1 TSL     -0.586800
      6 C20         2.4190    0.9140   -1.5880 c3        1 TSL     -0.057100
      7 C3          0.1810    0.7720   -0.5190 c3        1 TSL      0.122500
      8 C9          0.5390    1.7140    0.6710 c         1 TSL      0.735600
      9 O11         0.0230    2.8350    0.8090 o         1 TSL     -0.718500
     10 O10         1.4390    1.2320    1.4730 os        1 TSL     -0.468800
     11 N4         -0.9230   -0.0960   -0.1700 nh        1 TSL     -0.727000
     12 C5         -2.2050    0.2320   -0.4550 c2        1 TSL      0.195000
     13 C6         -3.3130   -0.4790   -0.0680 ce        1 TSL     -0.472200
     14 C7         -4.6290   -0.0790   -0.4890 c         1 TSL      0.594100
     15 O8         -5.6760   -0.6840   -0.2040 o         1 TSL     -0.614100
     16 H141        0.7540   -2.0420   -1.0060 hc        1 TSL      0.032367
     17 H142        0.5890   -1.0550   -2.5250 hc        1 TSL      0.032367
     18 H143        2.2160   -1.6680   -2.0000 hc        1 TSL      0.032367
     19 H12         2.8410   -2.5750    0.4790 ho        1 TSL      0.398000
     20 H201        2.0260    1.1450   -2.6080 hc        1 TSL      0.032367
     21 H202        2.5450    1.8760   -1.0310 hc        1 TSL      0.032367
     22 H203        3.4170    0.4240   -1.6970 hc        1 TSL      0.032367
     23 H3         -0.1130    1.4050   -1.4040 h1        1 TSL      0.061700
     24 HN4        -0.7170   -0.8070    0.5060 hn        1 TSL      0.470800
     25 H5         -2.3320    1.1380   -1.0890 h4        1 TSL      0.129000
     26 H6         -3.2390   -1.3670    0.5730 ha        1 TSL      0.145000
     27 H7         -4.6820    0.8450   -1.1170 h4        1 TSL     -0.046800
@<TRIPOS>BOND
     1    1    2 1   
     2    1   16 1   
     3    1   17 1   
     4    1   18 1   
     5    2    3 1   
     6    2    6 1   
     7    2    7 1   
     8    3    4 1   
     9    3    5 2   
    10    3   10 1   
    11    4   19 1   
    12    6   20 1   
    13    6   21 1   
    14    6   22 1   
    15    7    8 1   
    16    7   11 1   
    17    7   23 1   
    18    8    9 2   
    19    8   10 1   
    20   11   12 1   
    21   11   24 1   
    22   12   13 2   
    23   12   25 1   
    24   13   14 1   
    25   13   26 1   
    26   14   15 2   
    27   14   27 1   
@<TRIPOS>SUBSTRUCTURE
     1 TSL         1 TEMP              0 ****  ****    0 ROOT
