@<TRIPOS>MOLECULE
TSM
   17    16     1     0     0
SMALL
bcc


@<TRIPOS>ATOM
      1 S           0.0740   -0.0220    0.0420 s6        1 TSM      1.421800
      2 O1S         1.4330    0.3510    0.1640 o         1 TSM     -0.747200
      3 O2S        -0.6730    0.1490    1.2310 o         1 TSM     -0.747200
      4 C          -0.6390    1.1850   -1.1360 c3        1 TSM     -0.238200
      5 C1         -2.1000    0.8660   -1.3330 c3        1 TSM     -0.050100
      6 C2         -0.4820    2.5720   -0.5630 c3        1 TSM     -0.050100
      7 C3          0.0990    1.0770   -2.4480 c3        1 TSM     -0.050100
      8 H11        -2.2130   -0.1690   -1.7390 hc        1 TSM      0.023033
      9 H12        -2.6390    0.9280   -0.3550 hc        1 TSM      0.023033
     10 H13        -2.5760    1.5820   -2.0470 hc        1 TSM      0.023033
     11 H21        -1.0140    2.6420    0.4180 hc        1 TSM      0.023033
     12 H22        -0.9050    3.3430   -1.2520 hc        1 TSM      0.023033
     13 H23         0.6020    2.7970   -0.4000 hc        1 TSM      0.023033
     14 H31        -0.3050    1.8000   -3.1970 hc        1 TSM      0.023033
     15 H32        -0.0040    0.0430   -2.8590 hc        1 TSM      0.023033
     16 H33         1.1850    1.2950   -2.2930 hc        1 TSM      0.023033
     17 O3         -0.1170   -1.2820   -0.5730 o         1 TSM     -0.747200
@<TRIPOS>BOND
     1    1    2 1   
     2    1    3 1   
     3    1    4 1   
     4    1   17 1   
     5    4    5 1   
     6    4    6 1   
     7    4    7 1   
     8    5    8 1   
     9    5    9 1   
    10    5   10 1   
    11    6   11 1   
    12    6   12 1   
    13    6   13 1   
    14    7   14 1   
    15    7   15 1   
    16    7   16 1   
@<TRIPOS>SUBSTRUCTURE
     1 TSM         1 TEMP              0 ****  ****    0 ROOT
