@<TRIPOS>MOLECULE
TSM
   17    16     1     0     0
SMALL
bcc


@<TRIPOS>ATOM
      1 S           0.1300   -0.0180    0.0100 s6        1 TSM      1.421800
      2 O1S         1.4630    0.4310    0.1610 o         1 TSM     -0.747200
      3 O2S        -0.6360    0.0680    1.1960 o         1 TSM     -0.747200
      4 C          -0.6420    1.1850   -1.1340 c3        1 TSM     -0.238200
      5 C1         -2.0790    0.7860   -1.3600 c3        1 TSM     -0.050100
      6 C2         -0.5740    2.5580   -0.5130 c3        1 TSM     -0.050100
      7 C3          0.1140    1.1660   -2.4400 c3        1 TSM     -0.050100
      8 H11        -2.1260   -0.2400   -1.8020 hc        1 TSM      0.023033
      9 H12        -2.6310    0.7830   -0.3870 hc        1 TSM      0.023033
     10 H13        -2.5900    1.4960   -2.0550 hc        1 TSM      0.023033
     11 H21        -1.1180    2.5620    0.4630 hc        1 TSM      0.023033
     12 H22        -1.0360    3.3250   -1.1810 hc        1 TSM      0.023033
     13 H23         0.4920    2.8420   -0.3300 hc        1 TSM      0.023033
     14 H31        -0.3260    1.8890   -3.1700 hc        1 TSM      0.023033
     15 H32         0.0780    0.1420   -2.8870 hc        1 TSM      0.023033
     16 H33         1.1830    1.4430   -2.2650 hc        1 TSM      0.023033
     17 O3          0.0210   -1.2650   -0.6480 o         1 TSM     -0.747200
@<TRIPOS>BOND
     1    1    2 1   
     2    1    3 1   
     3    1    4 1   
     4    1   17 1   
     5    4    5 1   
     6    4    6 1   
     7    4    7 1   
     8    5    8 1   
     9    5    9 1   
    10    5   10 1   
    11    6   11 1   
    12    6   12 1   
    13    6   13 1   
    14    7   14 1   
    15    7   15 1   
    16    7   16 1   
@<TRIPOS>SUBSTRUCTURE
     1 TSM         1 TEMP              0 ****  ****    0 ROOT
