@<TRIPOS>MOLECULE
TSM
   17    16     1     0     0
SMALL
bcc


@<TRIPOS>ATOM
      1 S           0.7640   -0.0000   -0.0620 s6        1 TSM      1.421800
      2 O1S         1.0850   -1.1850   -0.7650 o         1 TSM     -0.747200
      3 O2S         1.0850    1.1840   -0.7650 o         1 TSM     -0.747200
      4 C          -1.0630    0.0000    0.0450 c3        1 TSM     -0.238200
      5 C1         -1.5060    1.2370    0.7870 c3        1 TSM     -0.050100
      6 C2         -1.6310    0.0000   -1.3530 c3        1 TSM     -0.050100
      7 C3         -1.5060   -1.2370    0.7870 c3        1 TSM     -0.050100
      8 H11        -1.1590    2.1510    0.2440 hc        1 TSM      0.023033
      9 H12        -2.6190    1.2770    0.8750 hc        1 TSM      0.023033
     10 H13        -1.0670    1.2430    1.8150 hc        1 TSM      0.023033
     11 H21        -1.2850   -0.9090   -1.9050 hc        1 TSM      0.023033
     12 H22        -2.7480    0.0000   -1.3330 hc        1 TSM      0.023033
     13 H23        -1.2850    0.9090   -1.9050 hc        1 TSM      0.023033
     14 H31        -1.0670   -1.2430    1.8150 hc        1 TSM      0.023033
     15 H32        -2.6190   -1.2770    0.8750 hc        1 TSM      0.023033
     16 H33        -1.1590   -2.1510    0.2440 hc        1 TSM      0.023033
     17 O3          1.2050   -0.0000    1.2830 o         1 TSM     -0.747200
@<TRIPOS>BOND
     1    1    2 1   
     2    1    3 1   
     3    1    4 1   
     4    1   17 1   
     5    4    5 1   
     6    4    6 1   
     7    4    7 1   
     8    5    8 1   
     9    5    9 1   
    10    5   10 1   
    11    6   11 1   
    12    6   12 1   
    13    6   13 1   
    14    7   14 1   
    15    7   15 1   
    16    7   16 1   
@<TRIPOS>SUBSTRUCTURE
     1 TSM         1 TEMP              0 ****  ****    0 ROOT
