@<TRIPOS>MOLECULE
TSN
   46    44     1     0     0
SMALL
bcc


@<TRIPOS>ATOM
      1 O1       -442.7540  106.0920 -165.9660 oh        1 TSN     -0.477000
      2 O2       -443.5680  106.1780 -168.5090 o         1 TSN      0.050000
      3 N1       -445.2450  106.9170 -166.8490 n3        1 TSN     -0.146000
      4 N2        277.4470  -64.5820  101.4020 n4        1 TSN      0.021000
      5 C1        273.8800  -63.3920  102.0410 c2        1 TSN     -0.147000
      6 C2        274.3390  -62.7680  100.7320 c3        1 TSN     -0.202000
      7 C3        275.7450  -63.0260  100.4830 c1        1 TSN      0.008000
      8 C4        276.7370  -63.2670  101.5960 c3        1 TSN     -0.104000
      9 C5        276.1320  -63.0610  102.9770 c2        1 TSN     -0.218000
     10 C6        274.8320  -63.2770  102.9510 c1        1 TSN     -0.046000
     11 C7        272.6250  -64.1680  102.0740 c2        1 TSN      0.277000
     12 C8        271.8810  -64.1260  103.3730 c3        1 TSN     -0.193000
     13 C9       -449.9510  106.2530 -165.7400 c1        1 TSN      0.376000
     14 C10      -448.9930  106.6700 -166.5790 c2        1 TSN     -0.437000
     15 C11      -447.5870  106.5280 -166.3050 c2        1 TSN      0.031000
     16 C12      -446.6340  106.9650 -167.1610 c2        1 TSN     -0.175000
     17 C13      -444.3720  106.4440 -167.7000 c1        1 TSN      0.460000
     18 C14       270.7930  -65.1650  103.4510 c3        1 TSN     -0.213000
     19 C15      -449.4400  107.3130 -167.8530 c3        1 TSN     -0.158000
     20 C17       278.5200  -64.7550  102.4150 c3        1 TSN     -0.192500
     21 C16       277.9960  -64.6980  100.0230 c3        1 TSN     -0.192500
     22 HO1      -442.4320  105.2220 -165.7050 ho        1 TSN      0.246500
     23 HN1      -442.0100  106.6810 -165.7980 ho        1 TSN      0.246500
     24 H21       274.1550  -61.6520  100.6690 hc        1 TSN      0.211000
     25 H31       273.7250  -63.2240   99.8900 hc        1 TSN      0.211000
     26 H51       277.5130  -62.4400  101.4660 hx        1 TSN      0.189000
     27 H61       276.7240  -62.5880  103.7660 ha        1 TSN      0.193000
     28 H8        272.6140  -64.2600  104.2140 hc        1 TSN      0.118500
     29 H9        271.4370  -63.0970  103.4790 hc        1 TSN      0.118500
     30 H111     -447.3270  106.0520 -165.3390 ha        1 TSN      0.150000
     31 H121     -446.8500  107.4420 -168.1360 h4        1 TSN      0.196000
     32 H141      270.2270  -65.0510  104.4070 hc        1 TSN      0.094667
     33 H142      271.2260  -66.1940  103.4120 hc        1 TSN      0.094667
     34 H143      270.0820  -65.0550  102.5960 hc        1 TSN      0.094667
     35 H151     -450.5560  107.3540 -167.9190 hc        1 TSN      0.104667
     36 H152     -449.0600  106.7280 -168.7270 hc        1 TSN      0.104667
     37 H153     -449.0480  108.3590 -167.9080 hc        1 TSN      0.104667
     38 H171      278.0790  -64.6690  103.4450 hx        1 TSN      0.148667
     39 H172      279.3020  -63.9620  102.2750 hx        1 TSN      0.148667
     40 H173      278.9860  -65.7690  102.2840 hx        1 TSN      0.148667
     41 H161      278.4330  -65.7230   99.8910 hx        1 TSN      0.148667
     42 H162      278.7930  -63.9220   99.8720 hx        1 TSN      0.148667
     43 H163      277.1710  -64.5250   99.2760 hx        1 TSN      0.148667
     44 H12      -444.9470  106.9230 -165.8760 hn        1 TSN      0.323000
     45 H211      276.7520  -65.3290  101.5410 hn        1 TSN      0.247000
     46 O3        272.2500  -64.7740  101.0660 o         1 TSN     -0.263000
@<TRIPOS>BOND
     1    1   22 1   
     2    1   23 1   
     3    2   17 1   
     4    3   16 1   
     5    3   17 1   
     6    3   44 1   
     7    4    8 1   
     8    4   20 1   
     9    4   21 1   
    10    4   45 1   
    11    5    6 1   
    12    5   10 1   
    13    5   11 1   
    14    6    7 1   
    15    6   24 1   
    16    6   25 1   
    17    7    8 1   
    18    8    9 1   
    19    8   26 1   
    20    9   10 1   
    21    9   27 1   
    22   11   12 1   
    23   11   46 1   
    24   12   18 1   
    25   12   28 1   
    26   12   29 1   
    27   13   14 1   
    28   14   15 1   
    29   14   19 1   
    30   15   16 1   
    31   15   30 1   
    32   16   31 1   
    33   18   32 1   
    34   18   33 1   
    35   18   34 1   
    36   19   35 1   
    37   19   36 1   
    38   19   37 1   
    39   20   38 1   
    40   20   39 1   
    41   20   40 1   
    42   21   41 1   
    43   21   42 1   
    44   21   43 1   
@<TRIPOS>SUBSTRUCTURE
     1 TSN         1 TEMP              0 ****  ****    0 ROOT
