@<TRIPOS>MOLECULE
TSN
   44    44     1     0     0
SMALL
bcc


@<TRIPOS>ATOM
      1 O1         -1.4680   -1.6020    7.7180 oh        1 TSN     -0.441100
      2 O2          0.5950   -1.1440    6.1310 o         1 TSN     -0.571100
      3 N1         -1.5760   -0.6600    6.7770 n         1 TSN     -0.345400
      4 N2         -0.9270   -0.2600   -6.2450 nh        1 TSN     -0.650000
      5 C1          0.8090    0.0310   -2.3810 ca        1 TSN     -0.210600
      6 C2          0.9790   -1.1280   -3.1510 ca        1 TSN     -0.054000
      7 C3          0.3870   -1.2530   -4.4000 ca        1 TSN     -0.192500
      8 C4         -0.3890   -0.2010   -4.9430 ca        1 TSN      0.178600
      9 C5         -0.5390    0.9750   -4.1640 ca        1 TSN     -0.192500
     10 C6          0.0480    1.0790   -2.9110 ca        1 TSN     -0.054000
     11 C7          1.4520    0.1020   -1.0560 c         1 TSN      0.588700
     12 C8          0.8710    1.0800   -0.0470 c3        1 TSN     -0.133500
     13 C9          0.9160    0.5020    1.3250 c2        1 TSN     -0.116200
     14 C10         0.0360    0.7690    2.3100 ce        1 TSN     -0.114200
     15 C11         0.1920    0.1010    3.5960 ce        1 TSN     -0.026000
     16 C12        -0.7540    0.0550    4.5490 cf        1 TSN     -0.257200
     17 C13        -0.5070   -0.6580    5.8180 c         1 TSN      0.589300
     18 C14         1.6620    2.3770   -0.0960 c3        1 TSN     -0.085100
     19 C15        -1.1010    1.7110    2.1630 c3        1 TSN     -0.062900
     20 C17        -0.5430   -1.3800   -7.0680 c3        1 TSN      0.177600
     21 C16        -2.3040    0.1410   -6.4110 c3        1 TSN      0.177600
     22 HO1        -0.7030   -1.3430    8.2700 ho        1 TSN      0.436000
     23 HN1        -2.4840   -0.7760    6.3390 hn        1 TSN      0.292500
     24 H21         1.5930   -1.9520   -2.7470 ha        1 TSN      0.143000
     25 H31         0.5350   -2.1890   -4.9590 ha        1 TSN      0.139000
     26 H51        -1.1080    1.8320   -4.5540 ha        1 TSN      0.139000
     27 H61        -0.0790    2.0140   -2.3430 ha        1 TSN      0.143000
     28 H8         -0.2010    1.2880   -0.3300 hc        1 TSN      0.071700
     29 H9          1.7560   -0.1980    1.4980 ha        1 TSN      0.153000
     30 H111        1.1630   -0.4050    3.7660 ha        1 TSN      0.152000
     31 H121       -1.7340    0.5410    4.4240 ha        1 TSN      0.139000
     32 H141        2.7290    2.1910    0.1780 hc        1 TSN      0.048033
     33 H142        1.6280    2.8130   -1.1230 hc        1 TSN      0.048033
     34 H143        1.2290    3.1130    0.6230 hc        1 TSN      0.048033
     35 H151       -0.9390    2.4220    1.3160 hc        1 TSN      0.045367
     36 H152       -2.0470    1.1430    1.9730 hc        1 TSN      0.045367
     37 H153       -1.2340    2.3140    3.0960 hc        1 TSN      0.045367
     38 H171       -0.8970   -1.1890   -8.1160 h1        1 TSN      0.040200
     39 H172        0.5760   -1.4670   -7.0780 h1        1 TSN      0.040200
     40 H173       -0.9820   -2.3530   -6.7150 h1        1 TSN      0.040200
     41 H161       -2.5410    1.0240   -5.7640 h1        1 TSN      0.040200
     42 H162       -2.4580    0.4320   -7.4840 h1        1 TSN      0.040200
     43 H163       -3.0190   -0.6890   -6.1590 h1        1 TSN      0.040200
     44 O3          2.4200   -0.6130   -0.7670 o         1 TSN     -0.536100
@<TRIPOS>BOND
     1    1    3 1   
     2    1   22 1   
     3    2   17 2   
     4    3   17 1   
     5    3   23 1   
     6    4    8 1   
     7    4   20 1   
     8    4   21 1   
     9    5    6 ar  
    10    5   10 ar  
    11    5   11 1   
    12    6    7 ar  
    13    6   24 1   
    14    7    8 ar  
    15    7   25 1   
    16    8    9 ar  
    17    9   10 ar  
    18    9   26 1   
    19   10   27 1   
    20   11   12 1   
    21   11   44 2   
    22   12   13 1   
    23   12   18 1   
    24   12   28 1   
    25   13   14 2   
    26   13   29 1   
    27   14   15 1   
    28   14   19 1   
    29   15   16 2   
    30   15   30 1   
    31   16   17 1   
    32   16   31 1   
    33   18   32 1   
    34   18   33 1   
    35   18   34 1   
    36   19   35 1   
    37   19   36 1   
    38   19   37 1   
    39   20   38 1   
    40   20   39 1   
    41   20   40 1   
    42   21   41 1   
    43   21   42 1   
    44   21   43 1   
@<TRIPOS>SUBSTRUCTURE
     1 TSN         1 TEMP              0 ****  ****    0 ROOT
