@<TRIPOS>MOLECULE
TSN
   45    43     1     0     0
SMALL
bcc


@<TRIPOS>ATOM
      1 O1         -0.3970   -1.2840    1.4260 oh        1 TSN     -0.877000
      2 O2          0.0420    1.3130    0.9000 o         1 TSN     -0.192500
      3 N1          2.0620   -0.1120    0.9130 nh        1 TSN     -0.161600
      4 N2         14.2090   -1.5970    1.7950 ne        1 TSN     -0.582100
      5 C1         10.1540   -1.3030    2.9830 ca        1 TSN     -0.194600
      6 C2         10.8140   -2.5400    3.0550 ca        1 TSN     -0.071000
      7 C3         12.1520   -2.6540    2.7000 ca        1 TSN     -0.145500
      8 C4         12.8770   -1.5260    2.2590 ca        1 TSN      0.170400
      9 C5         12.2110   -0.2800    2.2000 ca        1 TSN     -0.145500
     10 C6         10.8730   -0.1780    2.5590 ca        1 TSN     -0.071000
     11 C7          8.7340   -1.2500    3.3630 c         1 TSN      0.589700
     12 C8          7.9460    0.0040    3.0030 c3        1 TSN     -0.153500
     13 C9          6.5100   -0.3260    2.8000 c2        1 TSN     -0.033200
     14 C10         5.6430    0.3660    2.0250 ce        1 TSN     -0.157200
     15 C11         4.2810   -0.1200    1.9200 ce        1 TSN      0.007000
     16 C12         3.3640    0.4380    1.0940 c2        1 TSN     -0.218100
     17 C13         0.9910    0.6330    1.0020 c1        1 TSN      0.686500
     18 C14         8.0920    1.0270    4.1200 c3        1 TSN     -0.088100
     19 C15         6.0000    1.5900    1.2670 c3        1 TSN     -0.065900
     20 C17        14.7690   -4.8850    5.0030 c3        1 TSN     -0.113800
     21 C16        15.0940   -2.3340    2.3510 c2        1 TSN      0.465100
     22 HO1        -0.8620   -1.4360    2.2560 ho        1 TSN      0.446000
     23 HN1        -0.9570   -1.7000    0.7610 ho        1 TSN      0.446000
     24 H21         6.1700   -1.2260    3.3510 ha        1 TSN      0.158000
     25 H31        10.2560   -3.4260    3.4030 ha        1 TSN      0.144500
     26 H51        12.6450   -3.6390    2.7600 ha        1 TSN      0.151500
     27 H61        12.7550    0.6180    1.8650 ha        1 TSN      0.151500
     28 H8         10.3900    0.8100    2.5110 ha        1 TSN      0.144500
     29 H9          8.3730    0.4270    2.0480 hc        1 TSN      0.088700
     30 H111        4.0330   -1.0020    2.5440 ha        1 TSN      0.147000
     31 H121        3.5590    1.3170    0.4510 h4        1 TSN      0.195000
     32 H141        7.5650    1.9720    3.8430 hc        1 TSN      0.056033
     33 H142        7.6560    0.6340    5.0690 hc        1 TSN      0.056033
     34 H143        9.1720    1.2540    4.2930 hc        1 TSN      0.056033
     35 H151        5.2810    2.4160    1.4960 hc        1 TSN      0.054700
     36 H152        5.9740    1.3880    0.1660 hc        1 TSN      0.054700
     37 H153        7.0250    1.9510    1.5310 hc        1 TSN      0.054700
     38 H171       14.6360   -5.6940    5.7540 hc        1 TSN      0.028450
     39 H172       15.5750   -5.1700    4.2930 hc        1 TSN      0.028450
     40 H173       15.0460   -3.9410    5.5220 hc        1 TSN      0.028450
     41 H161       13.8170   -4.7380    4.4460 hc        1 TSN      0.028450
     42 H162       16.1050   -2.3310    1.8990 h4        1 TSN     -0.000700
     43 H163       14.9640   -2.9760    3.2460 h4        1 TSN     -0.000700
     44 H12         1.9150   -1.1060    1.0780 hn        1 TSN      0.369700
     45 O3          8.1720   -2.1890    3.9440 o         1 TSN     -0.539100
@<TRIPOS>BOND
     1    1   22 1   
     2    1   23 1   
     3    2   17 2   
     4    3   16 1   
     5    3   17 2   
     6    3   44 1   
     7    4    8 1   
     8    4   21 2   
     9    5    6 ar  
    10    5   10 ar  
    11    5   11 1   
    12    6    7 ar  
    13    6   25 1   
    14    7    8 ar  
    15    7   26 1   
    16    8    9 ar  
    17    9   10 ar  
    18    9   27 1   
    19   10   28 1   
    20   11   12 1   
    21   11   45 2   
    22   12   13 1   
    23   12   18 1   
    24   12   29 1   
    25   13   14 2   
    26   13   24 1   
    27   14   15 1   
    28   14   19 1   
    29   15   16 2   
    30   15   30 1   
    31   16   31 1   
    32   18   32 1   
    33   18   33 1   
    34   18   34 1   
    35   19   35 1   
    36   19   36 1   
    37   19   37 1   
    38   20   38 1   
    39   20   39 1   
    40   20   40 1   
    41   20   41 1   
    42   21   42 1   
    43   21   43 1   
@<TRIPOS>SUBSTRUCTURE
     1 TSN         1 TEMP              0 ****  ****    0 ROOT
