@<TRIPOS>MOLECULE
TSN
   45    45     1     0     0
SMALL
bcc


@<TRIPOS>ATOM
      1 O1          3.1830    1.3810   -0.8400 oh        1 TSN     -0.434000
      2 O2          3.0390   -1.7370    1.8850 o         1 TSN     -0.159000
      3 N1          3.6420    0.6980    1.9290 ns        1 TSN     -0.161000
      4 N2         11.3330   -3.4630    2.7240 n3        1 TSN     -0.247000
      5 C1         10.1170    0.3790    4.2600 c3        1 TSN     -0.069000
      6 C2         10.3240    1.8360    4.3960 c2        1 TSN     -0.513000
      7 C3         10.5500    2.7380    3.4650 c1        1 TSN      0.252000
      8 C4         10.7220   -2.3200    3.1380 c2        1 TSN      0.081000
      9 C5         10.3340   -1.2860    2.3300 c2        1 TSN     -0.405000
     10 C6          9.6840   -0.0480    2.8390 c3        1 TSN     -0.070000
     11 C7          8.9970   -0.0890    5.1840 c2        1 TSN      0.220000
     12 C8          7.8180   -0.5630    4.3460 c3        1 TSN     -0.230000
     13 C9          8.2430   -0.4170    2.9420 c2        1 TSN      0.322000
     14 C10         7.2970   -0.5810    1.8260 c3        1 TSN     -0.181000
     15 C11         5.9880   -0.0450    2.2750 c1        1 TSN     -0.041000
     16 C12         4.8820    0.0460    1.3960 cx        1 TSN     -0.305000
     17 C13         3.5570   -0.6570    1.7620 cu        1 TSN      0.357000
     18 C14         7.3250   -1.9380    4.7440 c3        1 TSN     -0.191000
     19 C15         7.8050   -0.0300    0.5080 c3        1 TSN     -0.232000
     20 C17        11.8280   -4.4180    3.6840 c3        1 TSN     -0.093000
     21 C16        11.7480   -3.6240    1.3540 c3        1 TSN     -0.093000
     22 HO1         2.4740    1.0390   -1.3940 ho        1 TSN      0.219000
     23 HN1         3.3760    2.2430   -1.2210 ho        1 TSN      0.219000
     24 H21        11.0770   -0.1420    4.5450 hc        1 TSN      0.157000
     25 H31        10.3340    2.1990    5.4530 ha        1 TSN      0.225000
     26 H51        10.5130   -2.2780    4.2310 h4        1 TSN      0.143000
     27 H61        10.5420   -1.2870    1.2500 ha        1 TSN      0.159000
     28 H8          9.8480    0.7860    2.0970 hc        1 TSN      0.165000
     29 H9          6.9310    0.1600    4.4730 hc        1 TSN      0.248000
     30 H111        7.1370   -1.7120    1.7150 hc        1 TSN      0.204000
     31 H121        5.0670    0.1600    0.2970 h1        1 TSN      0.149000
     32 H141        6.3980   -2.1960    4.1770 hc        1 TSN      0.109333
     33 H142        8.1070   -2.7110    4.5480 hc        1 TSN      0.109333
     34 H143        7.0910   -1.9350    5.8390 hc        1 TSN      0.109333
     35 H151        7.8960    1.0830    0.5530 hc        1 TSN      0.108667
     36 H152        8.8030   -0.4620    0.2550 hc        1 TSN      0.108667
     37 H153        7.0920   -0.2940   -0.3120 hc        1 TSN      0.108667
     38 H171       11.5530   -5.4530    3.3450 h1        1 TSN      0.099667
     39 H172       11.3800   -4.2370    4.6960 h1        1 TSN      0.099667
     40 H173       12.9470   -4.3470    3.7630 h1        1 TSN      0.099667
     41 H161       12.2410   -4.6230    1.2200 h1        1 TSN      0.099667
     42 H162       10.8520   -3.5670    0.6790 h1        1 TSN      0.099667
     43 H163       12.4740   -2.8170    1.0600 h1        1 TSN      0.099667
     44 H12         3.1540    1.3440    1.3330 hn        1 TSN      0.256000
     45 O3          9.0300   -0.0870    6.4060 o         1 TSN     -0.205000
@<TRIPOS>BOND
     1    1   22 1   
     2    1   23 1   
     3    2   17 1   
     4    3   16 1   
     5    3   17 1   
     6    3   44 1   
     7    4    8 1   
     8    4   20 1   
     9    4   21 1   
    10    5    6 1   
    11    5   10 1   
    12    5   11 1   
    13    5   24 1   
    14    6    7 1   
    15    6   25 1   
    16    8    9 1   
    17    8   26 1   
    18    9   10 1   
    19    9   27 1   
    20   10   13 1   
    21   10   28 1   
    22   11   12 1   
    23   11   45 1   
    24   12   13 1   
    25   12   18 1   
    26   12   29 1   
    27   13   14 1   
    28   14   15 1   
    29   14   19 1   
    30   14   30 1   
    31   15   16 1   
    32   16   17 1   
    33   16   31 1   
    34   18   32 1   
    35   18   33 1   
    36   18   34 1   
    37   19   35 1   
    38   19   36 1   
    39   19   37 1   
    40   20   38 1   
    41   20   39 1   
    42   20   40 1   
    43   21   41 1   
    44   21   42 1   
    45   21   43 1   
@<TRIPOS>SUBSTRUCTURE
     1 TSN         1 TEMP              0 ****  ****    0 ROOT
