@<TRIPOS>MOLECULE
TSO
   26    24     1     0     0
SMALL
bcc


@<TRIPOS>ATOM
      1 C2         -0.5270    0.7740   -1.0880 c1        1 TSO     -0.163500
      2 C3          1.1030    0.7740   -1.0880 c1        1 TSO     -0.163500
      3 C4          1.7130    0.7740    0.2190 c2        1 TSO      0.009000
      4 O4          2.0140    2.1040    0.6310 oh        1 TSO     -0.361000
      5 C6         -0.3740    0.2870    1.4090 c3        1 TSO     -0.159000
      6 C7         -2.5860    0.8030    0.2840 c1        1 TSO      0.341000
      7 O71        -2.7040    2.0470    0.4410 os        1 TSO     -0.596000
      8 O72        -3.6080    0.0680    0.2910 o         1 TSO     -0.593000
      9 C8         -1.2970   -1.1940   -0.1770 c3        1 TSO     -0.141000
     10 C1'         0.1280   -1.8510   -0.3690 c3        1 TSO     -0.027000
     11 O1'         0.8070   -1.5960    1.0200 os        1 TSO     -0.282000
     12 C2'         0.8550   -1.3470   -1.4710 c2        1 TSO      0.320000
     13 O'L         2.1120   -1.2930   -1.4240 o         1 TSO     -0.594500
     14 O'M         0.2460   -0.9590   -2.5020 o         1 TSO     -0.594500
     15 C5          0.7660   -0.0430    1.3620 c3        1 TSO      0.052000
     16 C1         -1.1440    0.1600    0.0850 c2        1 TSO     -0.094000
     17 H2         -1.0150    1.4460   -1.6010 ha        1 TSO      0.110000
     18 H3          1.5910    1.1300   -1.8540 ha        1 TSO      0.110000
     19 H4          2.6070    0.3840    0.1850 h4        1 TSO      0.160000
     20 HA          2.8940    2.2220    0.6300 ho        1 TSO      0.171000
     21 H5          1.1620    0.0910    2.2440 h1        1 TSO      0.080000
     22 H61C       -0.4120    1.2180    1.6970 hc        1 TSO      0.083500
     23 H62C       -0.8240   -0.2620    2.0790 hc        1 TSO      0.083500
     24 H81C       -1.7550   -1.6220    0.5720 hc        1 TSO      0.090500
     25 H82C       -1.8230   -1.3120   -0.9910 hc        1 TSO      0.090500
     26 H1'         0.0710   -2.8020   -0.5840 h1        1 TSO      0.067000
@<TRIPOS>BOND
     1    1    2 1   
     2    1   17 1   
     3    2   18 1   
     4    3    4 1   
     5    3   15 1   
     6    3   19 1   
     7    4   20 1   
     8    5   15 1   
     9    5   16 1   
    10    5   22 1   
    11    5   23 1   
    12    6    8 1   
    13    6   16 1   
    14    9   10 1   
    15    9   16 1   
    16    9   24 1   
    17    9   25 1   
    18   10   11 1   
    19   10   12 1   
    20   10   26 1   
    21   11   15 1   
    22   12   13 1   
    23   12   14 1   
    24   15   21 1   
@<TRIPOS>SUBSTRUCTURE
     1 TSO         1 TEMP              0 ****  ****    0 ROOT
