@<TRIPOS>MOLECULE
TSO
   26    27     1     0     0
SMALL
bcc


@<TRIPOS>ATOM
      1 C2          0.5040   -0.0410   -1.3880 c2        1 TSO     -0.082200
      2 C3         -0.7060   -0.5280   -1.6820 c2        1 TSO     -0.256200
      3 C4         -1.6240   -1.1070   -0.6560 c3        1 TSO      0.130300
      4 O4         -2.1430   -2.3640   -1.0990 oh        1 TSO     -0.630800
      5 C6          0.5440   -1.4080    0.6400 c3        1 TSO     -0.084400
      6 C7          2.6400   -0.2190   -0.0700 c         1 TSO      0.921600
      7 O71         3.2380    0.0680   -1.1480 o         1 TSO     -0.859300
      8 O72         3.2550   -0.5840    0.9750 o         1 TSO     -0.859300
      9 C8          0.6690    1.0640    0.8300 c3        1 TSO     -0.061400
     10 C1'        -0.7470    1.0480    1.4030 c3        1 TSO      0.033100
     11 O1'        -1.3310   -0.2390    1.6230 os        1 TSO     -0.420600
     12 C2'        -1.7190    2.0080    0.6730 c         1 TSO      0.901600
     13 O'L        -2.8060    1.5830    0.1850 o         1 TSO     -0.858800
     14 O'M        -1.3980    3.2350    0.6610 o         1 TSO     -0.858800
     15 C5         -0.9690   -1.2810    0.7320 c3        1 TSO      0.132100
     16 C1          1.0850   -0.1410   -0.0160 c3        1 TSO     -0.138800
     17 H2          1.1540    0.4390   -2.1370 ha        1 TSO      0.139000
     18 H3         -1.1280   -0.4730   -2.6950 ha        1 TSO      0.096000
     19 H4         -2.5320   -0.4360   -0.5370 h1        1 TSO      0.146700
     20 HA         -1.3790   -2.9270   -1.2650 ho        1 TSO      0.373000
     21 H5         -1.4150   -2.1970    1.2190 h1        1 TSO      0.029700
     22 H61C        0.9960   -1.5160    1.6580 hc        1 TSO      0.039200
     23 H62C        0.8170   -2.3070    0.0330 hc        1 TSO      0.039200
     24 H81C        0.7810    2.0000    0.2230 hc        1 TSO      0.051200
     25 H82C        1.3950    1.1220    1.6870 hc        1 TSO      0.051200
     26 H1'        -0.6850    1.4460    2.4640 h1        1 TSO      0.027700
@<TRIPOS>BOND
     1    1    2 2   
     2    1   16 1   
     3    1   17 1   
     4    2    3 1   
     5    2   18 1   
     6    3    4 1   
     7    3   15 1   
     8    3   19 1   
     9    4   20 1   
    10    5   15 1   
    11    5   16 1   
    12    5   22 1   
    13    5   23 1   
    14    6    7 1   
    15    6    8 1   
    16    6   16 1   
    17    9   10 1   
    18    9   16 1   
    19    9   24 1   
    20    9   25 1   
    21   10   11 1   
    22   10   12 1   
    23   10   26 1   
    24   11   15 1   
    25   12   13 1   
    26   12   14 1   
    27   15   21 1   
@<TRIPOS>SUBSTRUCTURE
     1 TSO         1 TEMP              0 ****  ****    0 ROOT
