@<TRIPOS>MOLECULE
TSO
   26    27     1     0     0
SMALL
bcc


@<TRIPOS>ATOM
      1 C2         -0.0320    0.4630   -0.0610 c2        1 TSO     -0.076200
      2 C3          1.3040    0.5180   -0.0730 c2        1 TSO     -0.259200
      3 C4          2.1400    0.0910    1.0880 c3        1 TSO      0.124300
      4 O4          3.1510    1.0630    1.3930 oh        1 TSO     -0.633800
      5 C6          0.0020    0.5940    2.3770 c3        1 TSO     -0.080400
      6 C7         -2.1990    0.7780    1.1740 c         1 TSO      0.921600
      7 O71        -2.6430    1.2880    0.1030 o         1 TSO     -0.859800
      8 O72        -2.8500    0.8000    2.2600 o         1 TSO     -0.859800
      9 C8         -0.9680   -1.4130    1.2810 c3        1 TSO     -0.062400
     10 C1'         0.2200   -2.2160    1.8080 c3        1 TSO      0.034100
     11 O1'         1.1530   -1.5170    2.6380 os        1 TSO     -0.425600
     12 C2'         0.9260   -3.0510    0.7100 c         1 TSO      0.900600
     13 O'L         2.1620   -2.9180    0.4790 o         1 TSO     -0.859800
     14 O'M         0.2130   -3.9130    0.1120 o         1 TSO     -0.859800
     15 C5          1.3380   -0.1310    2.3880 c3        1 TSO      0.163100
     16 C1         -0.7950    0.1030    1.1720 c3        1 TSO     -0.139800
     17 H2         -0.6500    0.7060   -0.9410 ha        1 TSO      0.138000
     18 H3          1.8650    0.8100   -0.9730 ha        1 TSO      0.082000
     19 H4          2.6470   -0.8920    0.8270 h1        1 TSO      0.120700
     20 HA          3.5500    1.3010    0.5510 ho        1 TSO      0.372000
     21 H5          1.9690    0.2050    3.2600 h1        1 TSO      0.040700
     22 H61C        0.1640    1.6970    2.3140 hc        1 TSO      0.044200
     23 H62C       -0.5720    0.3710    3.3120 hc        1 TSO      0.044200
     24 H81C       -1.8400   -1.5880    1.9690 hc        1 TSO      0.051200
     25 H82C       -1.2430   -1.8270    0.2750 hc        1 TSO      0.051200
     26 H1'        -0.1910   -2.9840    2.5360 h1        1 TSO      0.027700
@<TRIPOS>BOND
     1    1    2 2   
     2    1   16 1   
     3    1   17 1   
     4    2    3 1   
     5    2   18 1   
     6    3    4 1   
     7    3   15 1   
     8    3   19 1   
     9    4   20 1   
    10    5   15 1   
    11    5   16 1   
    12    5   22 1   
    13    5   23 1   
    14    6    7 1   
    15    6    8 1   
    16    6   16 1   
    17    9   10 1   
    18    9   16 1   
    19    9   24 1   
    20    9   25 1   
    21   10   11 1   
    22   10   12 1   
    23   10   26 1   
    24   11   15 1   
    25   12   13 1   
    26   12   14 1   
    27   15   21 1   
@<TRIPOS>SUBSTRUCTURE
     1 TSO         1 TEMP              0 ****  ****    0 ROOT
