@<TRIPOS>MOLECULE
TSO
   26    27     1     0     0
SMALL
bcc


@<TRIPOS>ATOM
      1 C2         -0.0160    0.5340   -0.0190 c2        1 TSO     -0.076200
      2 C3          1.3200    0.5880   -0.0180 c2        1 TSO     -0.259200
      3 C4          2.1470    0.0980    1.1260 c3        1 TSO      0.124300
      4 O4          3.1570    1.0520    1.4890 oh        1 TSO     -0.633800
      5 C6         -0.0000    0.5350    2.4240 c3        1 TSO     -0.080400
      6 C7         -2.1920    0.7870    1.2160 c         1 TSO      0.921600
      7 O71        -2.6270    1.3540    0.1700 o         1 TSO     -0.859800
      8 O72        -2.8510    0.7520    2.2960 o         1 TSO     -0.859800
      9 C8         -0.9640   -1.4090    1.2160 c3        1 TSO     -0.062400
     10 C1'         0.2190   -2.2400    1.7080 c3        1 TSO      0.034100
     11 O1'         1.1470   -1.5870    2.5810 os        1 TSO     -0.425600
     12 C2'         0.9320   -3.0170    0.5730 c         1 TSO      0.900600
     13 O'L         2.1710   -2.8740    0.3580 o         1 TSO     -0.859800
     14 O'M         0.2230   -3.8460   -0.0750 o         1 TSO     -0.859800
     15 C5          1.3360   -0.1910    2.4060 c3        1 TSO      0.163100
     16 C1         -0.7890    0.1110    1.1890 c3        1 TSO     -0.139800
     17 H2         -0.6270    0.8240   -0.8880 ha        1 TSO      0.138000
     18 H3          1.8880    0.9250   -0.8960 ha        1 TSO      0.082000
     19 H4          2.6550   -0.8700    0.8170 h1        1 TSO      0.120700
     20 HA          3.5630    1.3330    0.6640 ho        1 TSO      0.372000
     21 H5          1.9610    0.0970    3.2990 h1        1 TSO      0.040700
     22 H61C       -0.5810    0.2640    3.3410 hc        1 TSO      0.044200
     23 H62C        0.1640    1.6410    2.4200 hc        1 TSO      0.044200
     24 H81C       -1.8410   -1.6190    1.8870 hc        1 TSO      0.051200
     25 H82C       -1.2320   -1.7690    0.1870 hc        1 TSO      0.051200
     26 H1'        -0.1980   -3.0450    2.3920 h1        1 TSO      0.027700
@<TRIPOS>BOND
     1    1    2 2   
     2    1   16 1   
     3    1   17 1   
     4    2    3 1   
     5    2   18 1   
     6    3    4 1   
     7    3   15 1   
     8    3   19 1   
     9    4   20 1   
    10    5   15 1   
    11    5   16 1   
    12    5   22 1   
    13    5   23 1   
    14    6    7 1   
    15    6    8 1   
    16    6   16 1   
    17    9   10 1   
    18    9   16 1   
    19    9   24 1   
    20    9   25 1   
    21   10   11 1   
    22   10   12 1   
    23   10   26 1   
    24   11   15 1   
    25   12   13 1   
    26   12   14 1   
    27   15   21 1   
@<TRIPOS>SUBSTRUCTURE
     1 TSO         1 TEMP              0 ****  ****    0 ROOT
