@<TRIPOS>MOLECULE
TSP
   34    35     1     0     0
SMALL
bcc


@<TRIPOS>ATOM
      1 P          -0.8080    2.3350    0.1150 p5        1 TSP      1.429800
      2 OP1        -0.0730    1.0640    0.3010 o         1 TSP     -0.842500
      3 OP2        -0.9910    3.3870    1.1330 o         1 TSP     -0.842500
      4 OP3        -2.2480    1.8540   -0.4840 oh        1 TSP     -0.779400
      5 O5'        -0.1900    3.0610   -1.2360 os        1 TSP     -0.587200
      6 C5'         0.3100    2.2390   -2.2440 c3        1 TSP      0.160400
      7 C4'        -0.3840    2.4890   -3.5920 c3        1 TSP      0.107100
      8 O4'        -0.6150    3.9050   -3.7880 os        1 TSP     -0.401600
      9 C3'         0.4690    1.9810   -4.7680 c3        1 TSP      0.069600
     10 S3'        -0.3920    0.9240   -5.8570 s         1 TSP     -0.960300
     11 C2'         0.9510    3.2460   -5.4810 c3        1 TSP     -0.106400
     12 C1'         0.2650    4.4280   -4.7670 c3        1 TSP      0.307500
     13 N1          1.2020    5.3940   -4.1300 n         1 TSP     -0.371000
     14 C2          1.8820    6.3040   -4.9660 c         1 TSP      0.794500
     15 O2          1.7210    6.3420   -6.2100 o         1 TSP     -0.679500
     16 N3          2.7740    7.2190   -4.3740 n         1 TSP     -0.597500
     17 C4          2.9830    7.2970   -2.9850 c         1 TSP      0.721700
     18 O4          3.7960    8.1520   -2.5710 o         1 TSP     -0.685500
     19 C5          2.2140    6.3640   -2.1660 cc        1 TSP     -0.325400
     20 C5M         2.3800    6.4250   -0.7020 c3        1 TSP     -0.015900
     21 C6          1.3650    5.4660   -2.7640 cd        1 TSP      0.084600
     22 H5'         0.1880    1.1550   -1.9680 h1        1 TSP      0.031200
     23 H5''        1.4120    2.4640   -2.3570 h1        1 TSP      0.031200
     24 H4'        -1.4140    2.0420   -3.6000 h1        1 TSP      0.101700
     25 H3'         1.3520    1.4210   -4.3660 h1        1 TSP      0.031700
     26 HS3'       -2.1800    1.0410   -0.9720 ho        1 TSP      0.426000
     27 H2'         2.0640    3.3280   -5.4630 hc        1 TSP      0.060700
     28 H2''        0.6170    3.2290   -6.5500 hc        1 TSP      0.060700
     29 H1'        -0.3640    5.0450   -5.4740 h2        1 TSP      0.075700
     30 HN3         3.2580    7.8360   -4.9840 hn        1 TSP      0.325500
     31 H71         1.6650    5.7340   -0.1890 hc        1 TSP      0.042033
     32 H72         3.4240    6.1380   -0.4200 hc        1 TSP      0.042033
     33 H73         2.2020    7.4680   -0.3370 hc        1 TSP      0.042033
     34 H6          0.7460    4.7460   -2.1660 h4        1 TSP      0.253000
@<TRIPOS>BOND
     1    1    2 1   
     2    1    3 1   
     3    1    4 1   
     4    1    5 1   
     5    4   26 1   
     6    5    6 1   
     7    6    7 1   
     8    6   22 1   
     9    6   23 1   
    10    7    8 1   
    11    7    9 1   
    12    7   24 1   
    13    8   12 1   
    14    9   10 1   
    15    9   11 1   
    16    9   25 1   
    17   11   12 1   
    18   11   27 1   
    19   11   28 1   
    20   12   13 1   
    21   12   29 1   
    22   13   14 1   
    23   13   21 1   
    24   14   15 2   
    25   14   16 1   
    26   16   17 1   
    27   16   30 1   
    28   17   18 2   
    29   17   19 1   
    30   19   20 1   
    31   19   21 2   
    32   20   31 1   
    33   20   32 1   
    34   20   33 1   
    35   21   34 1   
@<TRIPOS>SUBSTRUCTURE
     1 TSP         1 TEMP              0 ****  ****    0 ROOT
