@<TRIPOS>MOLECULE
TSP
   34    35     1     0     0
SMALL
bcc


@<TRIPOS>ATOM
      1 P          -0.8490    2.4040    0.1270 p5        1 TSP      1.429800
      2 OP1        -0.0750    1.1710    0.3940 o         1 TSP     -0.842500
      3 OP2        -1.1060    3.4900    1.0920 o         1 TSP     -0.842500
      4 OP3        -2.2480    1.8440   -0.4990 oh        1 TSP     -0.779400
      5 O5'        -0.2100    3.0950   -1.2320 os        1 TSP     -0.587200
      6 C5'         0.3560    2.2510   -2.1860 c3        1 TSP      0.160400
      7 C4'        -0.2980    2.4170   -3.5660 c3        1 TSP      0.107100
      8 O4'        -0.5740    3.8130   -3.8320 os        1 TSP     -0.401600
      9 C3'         0.6140    1.8930   -4.6890 c3        1 TSP      0.069600
     10 S3'        -0.1690    0.7590   -5.7600 s         1 TSP     -0.960300
     11 C2'         1.0730    3.1440   -5.4400 c3        1 TSP     -0.106400
     12 C1'         0.3210    4.3290   -4.8010 c3        1 TSP      0.307500
     13 N1          1.1980    5.3560   -4.1760 n         1 TSP     -0.371000
     14 C2          1.8740    6.2530   -5.0270 c         1 TSP      0.794500
     15 O2          1.7560    6.2340   -6.2770 o         1 TSP     -0.679500
     16 N3          2.7110    7.2260   -4.4460 n         1 TSP     -0.597500
     17 C4          2.8680    7.3700   -3.0550 c         1 TSP      0.721700
     18 O4          3.6340    8.2720   -2.6510 o         1 TSP     -0.685500
     19 C5          2.1040    6.4440   -2.2230 cc        1 TSP     -0.325400
     20 C5M         2.2160    6.5740   -0.7580 c3        1 TSP     -0.015900
     21 C6          1.3100    5.4910   -2.8090 cd        1 TSP      0.084600
     22 H5'         1.4520    2.5120   -2.2700 h1        1 TSP      0.031200
     23 H5''        0.2640    1.1750   -1.8670 h1        1 TSP      0.031200
     24 H4'        -1.3110    1.9310   -3.5900 h1        1 TSP      0.101700
     25 H3'         1.5020    1.3850   -4.2340 h1        1 TSP      0.031700
     26 HS3'       -2.1330    1.0150   -0.9490 ho        1 TSP      0.426000
     27 H2'         0.7790    3.0690   -6.5180 hc        1 TSP      0.060700
     28 H2''        2.1820    3.2680   -5.3890 hc        1 TSP      0.060700
     29 H1'        -0.3050    4.8910   -5.5560 h2        1 TSP      0.075700
     30 HN3         3.1940    7.8350   -5.0650 hn        1 TSP      0.325500
     31 H71         3.2600    6.3390   -0.4280 hc        1 TSP      0.042033
     32 H72         1.9860    7.6230   -0.4450 hc        1 TSP      0.042033
     33 H73         1.5100    5.8770   -0.2400 hc        1 TSP      0.042033
     34 H6          0.6970    4.7740   -2.2020 h4        1 TSP      0.253000
@<TRIPOS>BOND
     1    1    2 1   
     2    1    3 1   
     3    1    4 1   
     4    1    5 1   
     5    4   26 1   
     6    5    6 1   
     7    6    7 1   
     8    6   22 1   
     9    6   23 1   
    10    7    8 1   
    11    7    9 1   
    12    7   24 1   
    13    8   12 1   
    14    9   10 1   
    15    9   11 1   
    16    9   25 1   
    17   11   12 1   
    18   11   27 1   
    19   11   28 1   
    20   12   13 1   
    21   12   29 1   
    22   13   14 1   
    23   13   21 1   
    24   14   15 2   
    25   14   16 1   
    26   16   17 1   
    27   16   30 1   
    28   17   18 2   
    29   17   19 1   
    30   19   20 1   
    31   19   21 2   
    32   20   31 1   
    33   20   32 1   
    34   20   33 1   
    35   21   34 1   
@<TRIPOS>SUBSTRUCTURE
     1 TSP         1 TEMP              0 ****  ****    0 ROOT
