@<TRIPOS>MOLECULE
TSP
   34    35     1     0     0
SMALL
bcc


@<TRIPOS>ATOM
      1 P           1.6180   -1.6310   -2.2320 p5        1 TSP      1.429800
      2 OP1         1.9370   -0.4780   -3.1030 o         1 TSP     -0.842500
      3 OP2         2.5890   -2.5980   -1.6860 o         1 TSP     -0.842500
      4 OP3         0.4290   -2.4010   -3.0440 oh        1 TSP     -0.779400
      5 O5'         0.7350   -1.0500   -0.9610 os        1 TSP     -0.587200
      6 C5'        -0.0700    0.0660   -1.1840 c3        1 TSP      0.160400
      7 C4'        -1.5430   -0.2070   -0.8460 c3        1 TSP      0.107100
      8 O4'        -1.6480   -1.0120    0.3530 os        1 TSP     -0.401600
      9 C3'        -2.3180    1.1010   -0.6080 c3        1 TSP      0.069600
     10 S3'        -3.7810    1.2340   -1.5490 s         1 TSP     -0.960300
     11 C2'        -2.6170    1.1150    0.8930 c3        1 TSP     -0.106400
     12 C1'        -2.1110   -0.2340    1.4430 c3        1 TSP      0.307500
     13 N1         -1.0380   -0.1220    2.4680 n         1 TSP     -0.371000
     14 C2         -1.4080    0.2630    3.7730 c         1 TSP      0.794500
     15 O2         -2.5940    0.4980    4.1070 o         1 TSP     -0.679500
     16 N3         -0.3990    0.3770    4.7490 n         1 TSP     -0.597500
     17 C4          0.9530    0.0820    4.4940 c         1 TSP      0.721700
     18 O4          1.7610    0.2130    5.4380 o         1 TSP     -0.685500
     19 C5          1.2680   -0.3600    3.1370 cc        1 TSP     -0.325400
     20 C5M         2.6680   -0.7060    2.8280 c3        1 TSP     -0.015900
     21 C6          0.2740   -0.4450    2.1950 cd        1 TSP      0.084600
     22 H5'         0.0020    0.3970   -2.2570 h1        1 TSP      0.031200
     23 H5''        0.3060    0.8990   -0.5200 h1        1 TSP      0.031200
     24 H4'        -2.0260   -0.8390   -1.6390 h1        1 TSP      0.101700
     25 H3'        -1.6590    1.9700   -0.8640 h1        1 TSP      0.031700
     26 HS3'       -0.0800   -1.8060   -3.5820 ho        1 TSP      0.426000
     27 H2'        -3.7220    1.1800    1.0590 hc        1 TSP      0.060700
     28 H2''       -2.1360    1.9860    1.3990 hc        1 TSP      0.060700
     29 H1'        -2.9360   -0.8270    1.9390 h2        1 TSP      0.075700
     30 HN3        -0.6790    0.6700    5.6570 hn        1 TSP      0.325500
     31 H71         3.3170    0.2020    2.9070 hc        1 TSP      0.042033
     32 H72         3.0490   -1.4630    3.5590 hc        1 TSP      0.042033
     33 H73         2.7580   -1.1240    1.7940 hc        1 TSP      0.042033
     34 H6          0.4770   -0.7960    1.1490 h4        1 TSP      0.253000
@<TRIPOS>BOND
     1    1    2 1   
     2    1    3 1   
     3    1    4 1   
     4    1    5 1   
     5    4   26 1   
     6    5    6 1   
     7    6    7 1   
     8    6   22 1   
     9    6   23 1   
    10    7    8 1   
    11    7    9 1   
    12    7   24 1   
    13    8   12 1   
    14    9   10 1   
    15    9   11 1   
    16    9   25 1   
    17   11   12 1   
    18   11   27 1   
    19   11   28 1   
    20   12   13 1   
    21   12   29 1   
    22   13   14 1   
    23   13   21 1   
    24   14   15 2   
    25   14   16 1   
    26   16   17 1   
    27   16   30 1   
    28   17   18 2   
    29   17   19 1   
    30   19   20 1   
    31   19   21 2   
    32   20   31 1   
    33   20   32 1   
    34   20   33 1   
    35   21   34 1   
@<TRIPOS>SUBSTRUCTURE
     1 TSP         1 TEMP              0 ****  ****    0 ROOT
