@<TRIPOS>MOLECULE
TSP
   34    35     1     0     0
SMALL
bcc


@<TRIPOS>ATOM
      1 P          -0.6470    2.2490    0.1470 p5        1 TSP      1.429800
      2 OP1         0.1680    1.0270    0.3280 o         1 TSP     -0.842500
      3 OP2        -0.8800    3.2920    1.1640 o         1 TSP     -0.842500
      4 OP3        -2.0630    1.6770   -0.4280 oh        1 TSP     -0.779400
      5 O5'        -0.0950    3.0050   -1.2150 os        1 TSP     -0.587200
      6 C5'         0.4410    2.2110   -2.2280 c3        1 TSP      0.160400
      7 C4'        -0.2870    2.4110   -3.5660 c3        1 TSP      0.107100
      8 O4'        -0.6080    3.8090   -3.7640 os        1 TSP     -0.401600
      9 C3'         0.5780    1.9510   -4.7530 c3        1 TSP      0.069600
     10 S3'        -0.2320    0.8380   -5.8240 s         1 TSP     -0.960300
     11 C2'         0.9700    3.2400   -5.4780 c3        1 TSP     -0.106400
     12 C1'         0.2240    4.3810   -4.7580 c3        1 TSP      0.307500
     13 N1          1.1080    5.4060   -4.1390 n         1 TSP     -0.371000
     14 C2          1.7180    6.3520   -4.9890 c         1 TSP      0.794500
     15 O2          1.5370    6.3750   -6.2300 o         1 TSP     -0.679500
     16 N3          2.5610    7.3230   -4.4130 ns        1 TSP     -0.597500
     17 C4          2.7850    7.4200   -3.0280 c         1 TSP      0.721700
     18 O4          3.5490    8.3260   -2.6290 o         1 TSP     -0.685500
     19 C5          2.0870    6.4460   -2.1940 cc        1 TSP     -0.325400
     20 C5M         2.2710    6.5240   -0.7320 c3        1 TSP     -0.015900
     21 C6          1.2860    5.4940   -2.7750 cd        1 TSP      0.084600
     22 H5'         0.3900    1.1220   -1.9450 h1        1 TSP      0.031200
     23 H5''        1.5240    2.5020   -2.3570 h1        1 TSP      0.031200
     24 H4'        -1.2880    1.9010   -3.5580 h1        1 TSP      0.101700
     25 H3'         1.5000    1.4490   -4.3620 h1        1 TSP      0.031700
     26 HS3'       -1.9530    0.8680   -0.9140 ho        1 TSP      0.426000
     27 H2'         2.0760    3.3900   -5.4770 hc        1 TSP      0.060700
     28 H2''        0.6230    3.1970   -6.5410 hc        1 TSP      0.060700
     29 H1'        -0.4530    4.9550   -5.4580 h2        1 TSP      0.075700
     30 HN3         2.9970    7.9660   -5.0330 hn        1 TSP      0.325500
     31 H71         3.3340    6.3020   -0.4650 hc        1 TSP      0.042033
     32 H72         2.0350    7.5550   -0.3690 hc        1 TSP      0.042033
     33 H73         1.6070    5.7930   -0.2060 hc        1 TSP      0.042033
     34 H6          0.7220    4.7400   -2.1650 h4        1 TSP      0.253000
@<TRIPOS>BOND
     1    1    2 1   
     2    1    3 1   
     3    1    4 1   
     4    1    5 1   
     5    4   26 1   
     6    5    6 1   
     7    6    7 1   
     8    6   22 1   
     9    6   23 1   
    10    7    8 1   
    11    7    9 1   
    12    7   24 1   
    13    8   12 1   
    14    9   10 1   
    15    9   11 1   
    16    9   25 1   
    17   11   12 1   
    18   11   27 1   
    19   11   28 1   
    20   12   13 1   
    21   12   29 1   
    22   13   14 1   
    23   13   21 1   
    24   14   15 2   
    25   14   16 1   
    26   16   17 1   
    27   16   30 1   
    28   17   18 2   
    29   17   19 1   
    30   19   20 1   
    31   19   21 2   
    32   20   31 1   
    33   20   32 1   
    34   20   33 1   
    35   21   34 1   
@<TRIPOS>SUBSTRUCTURE
     1 TSP         1 TEMP              0 ****  ****    0 ROOT
