@<TRIPOS>MOLECULE
TSR
   23    24     1     0     0
SMALL
bcc


@<TRIPOS>ATOM
      1 O1          4.1460   -0.3090   -0.3960 o         1 TSR     -0.623100
      2 CA          2.9550    0.0640   -0.3720 c         1 TSR      0.654100
      3 N           2.5720    1.1240    0.4120 n         1 TSR     -0.666000
      4 CB          1.9080   -0.5980   -1.2570 c3        1 TSR     -0.078200
      5 CG          0.6410   -0.8590   -0.5670 cc        1 TSR     -0.160400
      6 CD1         0.2510   -2.0630    0.0230 cd        1 TSR     -0.083100
      7 NE1        -1.0260   -1.9410    0.5690 na        1 TSR     -0.189400
      8 CE2        -1.4860   -0.6420    0.3310 ca        1 TSR     -0.047200
      9 CD2        -0.4540    0.0730   -0.3870 ca        1 TSR     -0.096800
     10 CZ2        -2.6970   -0.0190    0.6710 ca        1 TSR     -0.140000
     11 CH2        -2.8700    1.3020    0.2910 ca        1 TSR     -0.113000
     12 CZ3        -1.8740    2.0050   -0.4120 ca        1 TSR     -0.151000
     13 CE3        -0.6720    1.4030   -0.7530 ca        1 TSR     -0.097000
     14 HN1         3.2260    1.5220    1.0390 hn        1 TSR      0.311500
     15 HN2         1.6120    1.3270    0.5350 hn        1 TSR      0.311500
     16 HB1         1.7330    0.0750   -2.1410 hc        1 TSR      0.079200
     17 HB2         2.3530   -1.5570   -1.6380 hc        1 TSR      0.079200
     18 HD1         0.8010   -3.0050    0.0920 h4        1 TSR      0.173000
     19 HE1        -1.5300   -2.6500    1.0300 hn        1 TSR      0.301700
     20 HZ2        -3.4800   -0.5620    1.2170 ha        1 TSR      0.134000
     21 HH2        -3.8100    1.8180    0.5420 ha        1 TSR      0.132000
     22 HZ3        -2.0610    3.0510   -0.6950 ha        1 TSR      0.132000
     23 HE3         0.0990    1.9550   -1.3100 ha        1 TSR      0.137000
@<TRIPOS>BOND
     1    1    2 2   
     2    2    3 1   
     3    2    4 1   
     4    3   14 1   
     5    3   15 1   
     6    4    5 1   
     7    4   16 1   
     8    4   17 1   
     9    5    6 2   
    10    5    9 1   
    11    6    7 1   
    12    6   18 1   
    13    7    8 1   
    14    7   19 1   
    15    8    9 ar  
    16    8   10 ar  
    17    9   13 ar  
    18   10   11 ar  
    19   10   20 1   
    20   11   12 ar  
    21   11   21 1   
    22   12   13 ar  
    23   12   22 1   
    24   13   23 1   
@<TRIPOS>SUBSTRUCTURE
     1 TSR         1 TEMP              0 ****  ****    0 ROOT
