@<TRIPOS>MOLECULE
TSR
   24    25     1     0     0
SMALL
bcc


@<TRIPOS>ATOM
      1 O1          2.2810   -0.6550    1.0430 o         1 TSR     -0.407100
      2 CA          1.7020   -0.3280    0.0220 c         1 TSR      0.545100
      3 N           0.5040    0.5790    0.2300 nz        1 TSR     -0.760400
      4 CB          2.0210   -0.6820   -1.4060 c3        1 TSR     -0.048200
      5 CG          0.9680   -0.3290   -2.3530 cc        1 TSR     -0.284400
      6 CD1         0.1550   -1.2240   -3.0680 cd        1 TSR     -0.025100
      7 NE1        -0.6900   -0.5260   -3.9120 na        1 TSR     -0.160400
      8 CE2        -0.4150    0.8440   -3.7890 ca        1 TSR     -0.051200
      9 CD2         0.6350    1.0050   -2.8120 ca        1 TSR     -0.113800
     10 CZ2        -0.9820    1.9540   -4.4380 ca        1 TSR     -0.106000
     11 CH2        -0.4870    3.2080   -4.1150 ca        1 TSR     -0.103000
     12 CZ3         0.5540    3.3720   -3.1800 ca        1 TSR     -0.108000
     13 CE3         1.1180    2.2860   -2.5300 ca        1 TSR     -0.156000
     14 HN1         0.3920    0.8210    1.2190 hn        1 TSR      0.470467
     15 HN2         0.6240    1.4340   -0.3330 hn        1 TSR      0.470467
     16 HB1         2.2420   -1.7880   -1.4260 hc        1 TSR      0.127700
     17 HB2         2.9820   -0.1400   -1.6590 hc        1 TSR      0.127700
     18 HD1         0.1340   -2.3190   -3.0250 h4        1 TSR      0.189000
     19 HE1        -1.3120   -0.9240   -4.5710 hn        1 TSR      0.326700
     20 HZ2        -1.7810    1.8310   -5.1830 ha        1 TSR      0.159000
     21 HH2        -0.9040    4.0990   -4.6120 ha        1 TSR      0.160000
     22 HZ3         0.9320    4.3880   -2.9800 ha        1 TSR      0.154000
     23 HE3         1.9720    2.4260   -1.8500 ha        1 TSR      0.127000
     24 HN3        -0.3370    0.1000   -0.1070 hn        1 TSR      0.470467
@<TRIPOS>BOND
     1    1    2 2   
     2    2    3 1   
     3    2    4 1   
     4    3   14 1   
     5    3   15 1   
     6    3   24 1   
     7    4    5 1   
     8    4   16 1   
     9    4   17 1   
    10    5    6 2   
    11    5    9 1   
    12    6    7 1   
    13    6   18 1   
    14    7    8 1   
    15    7   19 1   
    16    8    9 ar  
    17    8   10 ar  
    18    9   13 ar  
    19   10   11 ar  
    20   10   20 1   
    21   11   12 ar  
    22   11   21 1   
    23   12   13 ar  
    24   12   22 1   
    25   13   23 1   
@<TRIPOS>SUBSTRUCTURE
     1 TSR         1 TEMP              0 ****  ****    0 ROOT
