@<TRIPOS>MOLECULE
TSR
   24    25     1     0     0
SMALL
bcc


@<TRIPOS>ATOM
      1 O1          2.5430   -0.5150    0.9510 o         1 TSR     -0.407100
      2 CA          1.8950   -0.2340   -0.0420 c         1 TSR      0.545100
      3 N           0.6240    0.5500    0.2240 n4        1 TSR     -0.760400
      4 CB          2.1910   -0.5390   -1.4870 c3        1 TSR     -0.048200
      5 CG          1.0720   -0.2790   -2.3880 cc        1 TSR     -0.284400
      6 CD1         0.3220   -1.2400   -3.0850 cd        1 TSR     -0.025100
      7 NE1        -0.6180   -0.6170   -3.8860 na        1 TSR     -0.160400
      8 CE2        -0.4730    0.7720   -3.7530 ca        1 TSR     -0.051200
      9 CD2         0.5950    1.0220   -2.8130 ca        1 TSR     -0.113800
     10 CZ2        -1.1680    1.8290   -4.3620 ca        1 TSR     -0.106000
     11 CH2        -0.7840    3.1210   -4.0390 ca        1 TSR     -0.103000
     12 CZ3         0.2710    3.3750   -3.1420 ca        1 TSR     -0.108000
     13 CE3         0.9630    2.3410   -2.5300 ca        1 TSR     -0.156000
     14 HN1         0.5290    0.7680    1.2210 hn        1 TSR      0.470467
     15 HN2         0.6390    1.4180   -0.3290 hn        1 TSR      0.470467
     16 HB1         2.5160   -1.6180   -1.5330 hc        1 TSR      0.127700
     17 HB2         3.0840    0.0960   -1.7670 hc        1 TSR      0.127700
     18 HD1         0.4090   -2.3320   -3.0590 h4        1 TSR      0.189000
     19 HE1        -1.2250   -1.0660   -4.5270 hn        1 TSR      0.326700
     20 HZ2        -1.9800    1.6380   -5.0790 ha        1 TSR      0.159000
     21 HH2        -1.3050    3.9740   -4.5050 ha        1 TSR      0.160000
     22 HZ3         0.5570    4.4200   -2.9390 ha        1 TSR      0.154000
     23 HE3         1.8250    2.5550   -1.8810 ha        1 TSR      0.127000
     24 HN3        -0.1790   -0.0050   -0.0880 hn        1 TSR      0.470467
@<TRIPOS>BOND
     1    1    2 2   
     2    2    3 1   
     3    2    4 1   
     4    3   14 1   
     5    3   15 1   
     6    3   24 1   
     7    4    5 1   
     8    4   16 1   
     9    4   17 1   
    10    5    6 2   
    11    5    9 1   
    12    6    7 1   
    13    6   18 1   
    14    7    8 1   
    15    7   19 1   
    16    8    9 ar  
    17    8   10 ar  
    18    9   13 ar  
    19   10   11 ar  
    20   10   20 1   
    21   11   12 ar  
    22   11   21 1   
    23   12   13 ar  
    24   12   22 1   
    25   13   23 1   
@<TRIPOS>SUBSTRUCTURE
     1 TSR         1 TEMP              0 ****  ****    0 ROOT
