@<TRIPOS>MOLECULE
TSR
   24    25     1     0     0
SMALL
bcc


@<TRIPOS>ATOM
      1 O1          2.1990   -0.7070    1.0630 o         1 TSR     -0.407100
      2 CA          1.6470   -0.3650    0.0310 c         1 TSR      0.545100
      3 N           0.4220    0.5110    0.2210 n4        1 TSR     -0.760400
      4 CB          2.0210   -0.6740   -1.3940 c3        1 TSR     -0.048200
      5 CG          0.9940   -0.3180   -2.3670 cc        1 TSR     -0.284400
      6 CD1         0.2250   -1.2090   -3.1340 cd        1 TSR     -0.025100
      7 NE1        -0.6050   -0.5060   -3.9880 na        1 TSR     -0.160400
      8 CE2        -0.3640    0.8660   -3.8190 ca        1 TSR     -0.051200
      9 CD2         0.6490    1.0210   -2.8020 ca        1 TSR     -0.113800
     10 CZ2        -0.9310    1.9810   -4.4580 ca        1 TSR     -0.106000
     11 CH2        -0.4740    3.2360   -4.0850 ca        1 TSR     -0.103000
     12 CZ3         0.5300    3.3960   -3.1110 ca        1 TSR     -0.108000
     13 CE3         1.0950    2.3040   -2.4700 ca        1 TSR     -0.156000
     14 HN1         0.2720    0.7240    1.2120 hn        1 TSR      0.470467
     15 HN2        -0.3960    0.0220   -0.1570 hn        1 TSR      0.470467
     16 HB1         2.2660   -1.7750   -1.4350 hc        1 TSR      0.127700
     17 HB2         2.9780   -0.1070   -1.5990 hc        1 TSR      0.127700
     18 HD1         0.2260   -2.3040   -3.1200 h4        1 TSR      0.189000
     19 HE1        -1.1960   -0.8980   -4.6780 hn        1 TSR      0.326700
     20 HZ2        -1.7020    1.8620   -5.2340 ha        1 TSR      0.159000
     21 HH2        -0.8930    4.1320   -4.5720 ha        1 TSR      0.160000
     22 HZ3         0.8790    4.4130   -2.8700 ha        1 TSR      0.154000
     23 HE3         1.9210    2.4430   -1.7570 ha        1 TSR      0.127000
     24 HN3         0.5420    1.3820   -0.3150 hn        1 TSR      0.470467
@<TRIPOS>BOND
     1    1    2 2   
     2    2    3 1   
     3    2    4 1   
     4    3   14 1   
     5    3   15 1   
     6    3   24 1   
     7    4    5 1   
     8    4   16 1   
     9    4   17 1   
    10    5    6 2   
    11    5    9 1   
    12    6    7 1   
    13    6   18 1   
    14    7    8 1   
    15    7   19 1   
    16    8    9 ar  
    17    8   10 ar  
    18    9   13 ar  
    19   10   11 ar  
    20   10   20 1   
    21   11   12 ar  
    22   11   21 1   
    23   12   13 ar  
    24   12   22 1   
    25   13   23 1   
@<TRIPOS>SUBSTRUCTURE
     1 TSR         1 TEMP              0 ****  ****    0 ROOT
