@<TRIPOS>MOLECULE
TSS
   24    20     1     0     0
SMALL
bcc


@<TRIPOS>ATOM
      1 N1          0.4200    3.3920   -2.1790 n3        1 TSS     -0.917800
      2 CA          0.5490    2.0230   -1.8020 c3        1 TSS      0.157800
      3 CB         -0.1490    1.7960   -0.4790 c3        1 TSS     -0.009200
      4 CG          0.2650    0.4560    0.0860 ce        1 TSS     -0.179000
      5 CD1         1.3140    0.6230    0.9680 c1        1 TSS      0.204500
      6 NE1         1.3750   -0.4840    1.7670 nf        1 TSS     -0.489400
      7 CE2         0.3630   -1.3460    1.3850 ch        1 TSS      0.051000
      8 CD2        -0.3200   -0.7640    0.3480 cg        1 TSS     -0.110300
      9 CZ2        -0.0290   -2.6080    1.8640 c1        1 TSS     -0.067500
     10 CH2        -1.1080   -3.2640    1.2880 c1        1 TSS     -0.067500
     11 CZ3        -1.7990   -2.6750    0.2380 c1        1 TSS     -0.067500
     12 CE3        -1.4130   -1.4290   -0.2350 c1        1 TSS     -0.067500
     13 HN11        0.1870    3.4440   -3.0640 hn        1 TSS      0.346300
     14 HN12        1.2190    3.8210   -2.0480 hn        1 TSS      0.346300
     15 HA1         0.1410    1.4550   -2.4880 h1        1 TSS      0.029700
     16 HA2         1.4980    1.7960   -1.7130 h1        1 TSS      0.029700
     17 HB1        -1.1180    1.8070   -0.6160 hc        1 TSS      0.051200
     18 HB2         0.1000    2.5050    0.1470 hc        1 TSS      0.051200
     19 HD1         1.9050    1.3980    1.0160 DU        1 TSS      0.206000
     20 HE1         1.9780   -0.6300    2.4360 DU        1 TSS      0.206000
     21 HZ2         0.4570   -3.0230    2.6020 ha        1 TSS      0.074000
     22 HH2        -1.3800   -4.1410    1.6210 ha        1 TSS      0.074000
     23 HZ3        -2.5580   -3.1370   -0.1670 ha        1 TSS      0.074000
     24 HE3        -1.8990   -1.0150   -0.9730 ha        1 TSS      0.074000
@<TRIPOS>BOND
     1    1    2 1   
     2    1   13 1   
     3    1   14 1   
     4    2    3 1   
     5    2   15 1   
     6    2   16 1   
     7    3    4 1   
     8    3   17 1   
     9    3   18 1   
    10    4    5 2   
    11    4    8 1   
    12    5    6 2   
    13    6    7 1   
    14    7    8 3   
    15    9   10 3   
    16    9   21 1   
    17   10   22 1   
    18   11   12 3   
    19   11   23 1   
    20   12   24 1   
@<TRIPOS>SUBSTRUCTURE
     1 TSS         1 TEMP              0 ****  ****    0 ROOT
