@<TRIPOS>MOLECULE
TSS
   25    26     1     0     0
SMALL
bcc


@<TRIPOS>ATOM
      1 N1          0.0150    0.2240    0.0020 nz        1 TSS     -0.839600
      2 CA          1.5050    0.1390    0.0670 c3        1 TSS      0.090800
      3 CB          2.0210   -0.1510    1.4800 c3        1 TSS     -0.001200
      4 CG          3.4840   -0.0980    1.4630 cc        1 TSS     -0.224400
      5 CD1         4.3610   -1.1780    1.6320 cd        1 TSS     -0.050100
      6 NE1         5.6740   -0.7360    1.5810 na        1 TSS     -0.166400
      7 CE2         5.6710    0.6530    1.3910 ca        1 TSS     -0.048200
      8 CD2         4.2960    1.0910    1.3120 ca        1 TSS     -0.086800
      9 CZ2         6.7330    1.5650    1.2800 ca        1 TSS     -0.118000
     10 CH2         6.4150    2.9010    1.0960 ca        1 TSS     -0.105000
     11 CZ3         5.0790    3.3390    1.0250 ca        1 TSS     -0.124000
     12 CE3         4.0220    2.4490    1.1310 ca        1 TSS     -0.116000
     13 HN11       -0.3210    0.9680    0.6220 hn        1 TSS      0.457800
     14 HN12       -0.4010   -0.6630    0.3030 hn        1 TSS      0.457800
     15 HA1         1.8360   -0.6740   -0.6410 hx        1 TSS      0.117700
     16 HA2         1.9260    1.1260   -0.2900 hx        1 TSS      0.117700
     17 HB1         1.6250    0.6200    2.1980 hc        1 TSS      0.064700
     18 HB2         1.6670   -1.1600    1.8210 hc        1 TSS      0.064700
     19 HD1         4.1310   -2.2350    1.7920 h4        1 TSS      0.175000
     20 HE1         6.4800   -1.2920    1.7110 hn        1 TSS      0.317700
     21 HZ2         7.7780    1.2300    1.3400 ha        1 TSS      0.150000
     22 HH2         7.2250    3.6430    1.0080 ha        1 TSS      0.150000
     23 HZ3         4.8790    4.4130    0.8870 ha        1 TSS      0.143000
     24 HE3         2.9840    2.8040    1.0900 ha        1 TSS      0.113000
     25 H13        -0.2860    0.4260   -0.9560 hn        1 TSS      0.457800
@<TRIPOS>BOND
     1    1    2 1   
     2    1   13 1   
     3    1   14 1   
     4    1   25 1   
     5    2    3 1   
     6    2   15 1   
     7    2   16 1   
     8    3    4 1   
     9    3   17 1   
    10    3   18 1   
    11    4    5 2   
    12    4    8 1   
    13    5    6 1   
    14    5   19 1   
    15    6    7 1   
    16    6   20 1   
    17    7    8 ar  
    18    7    9 ar  
    19    8   12 ar  
    20    9   10 ar  
    21    9   21 1   
    22   10   11 ar  
    23   10   22 1   
    24   11   12 ar  
    25   11   23 1   
    26   12   24 1   
@<TRIPOS>SUBSTRUCTURE
     1 TSS         1 TEMP              0 ****  ****    0 ROOT
