@<TRIPOS>MOLECULE
TSS
   25    26     1     0     0
SMALL
bcc


@<TRIPOS>ATOM
      1 N1          0.0230    0.2000   -0.0140 n4        1 TSS     -0.839600
      2 CA          1.5140    0.1230    0.0590 c3        1 TSS      0.090800
      3 CB          2.0230   -0.1550    1.4770 c3        1 TSS     -0.001200
      4 CG          3.4860   -0.0960    1.4680 cc        1 TSS     -0.224400
      5 CD1         4.3670   -1.1700    1.6480 cd        1 TSS     -0.050100
      6 NE1         5.6780   -0.7210    1.6010 na        1 TSS     -0.166400
      7 CE2         5.6690    0.6660    1.4030 ca        1 TSS     -0.048200
      8 CD2         4.2930    1.0970    1.3140 ca        1 TSS     -0.086800
      9 CZ2         6.7270    1.5830    1.2920 ca        1 TSS     -0.118000
     10 CH2         6.4040    2.9160    1.0990 ca        1 TSS     -0.105000
     11 CZ3         5.0660    3.3470    1.0180 ca        1 TSS     -0.124000
     12 CE3         4.0130    2.4520    1.1240 ca        1 TSS     -0.116000
     13 HN11       -0.3200    0.9460    0.6000 hn        1 TSS      0.457800
     14 HN12       -0.3900   -0.6870    0.2900 hn        1 TSS      0.457800
     15 HA1         1.8520   -0.6930   -0.6410 hx        1 TSS      0.117700
     16 HA2         1.9320    1.1100   -0.3010 hx        1 TSS      0.117700
     17 HB1         1.6200    0.6180    2.1880 hc        1 TSS      0.064700
     18 HB2         1.6720   -1.1650    1.8220 hc        1 TSS      0.064700
     19 HD1         4.1420   -2.2280    1.8130 h4        1 TSS      0.175000
     20 HE1         6.4860   -1.2720    1.7400 hn        1 TSS      0.317700
     21 HZ2         7.7740    1.2540    1.3600 ha        1 TSS      0.150000
     22 HH2         7.2100    3.6620    1.0110 ha        1 TSS      0.150000
     23 HZ3         4.8610    4.4190    0.8730 ha        1 TSS      0.143000
     24 HE3         2.9730    2.8020    1.0750 ha        1 TSS      0.113000
     25 H13        -0.2730    0.3950   -0.9750 hn        1 TSS      0.457800
@<TRIPOS>BOND
     1    1    2 1   
     2    1   13 1   
     3    1   14 1   
     4    1   25 1   
     5    2    3 1   
     6    2   15 1   
     7    2   16 1   
     8    3    4 1   
     9    3   17 1   
    10    3   18 1   
    11    4    5 2   
    12    4    8 1   
    13    5    6 1   
    14    5   19 1   
    15    6    7 1   
    16    6   20 1   
    17    7    8 ar  
    18    7    9 ar  
    19    8   12 ar  
    20    9   10 ar  
    21    9   21 1   
    22   10   11 ar  
    23   10   22 1   
    24   11   12 ar  
    25   11   23 1   
    26   12   24 1   
@<TRIPOS>SUBSTRUCTURE
     1 TSS         1 TEMP              0 ****  ****    0 ROOT
