@<TRIPOS>MOLECULE
TSS
   24    25     1     0     0
SMALL
bcc


@<TRIPOS>ATOM
      1 N1          4.1120    0.9530    0.3390 n3        1 TSS     -0.917800
      2 CA          2.7670    0.4830    0.5740 c3        1 TSS      0.157800
      3 CB          2.1380   -0.1780   -0.6570 c3        1 TSS     -0.008200
      4 CG          0.7890   -0.6760   -0.3550 cc        1 TSS     -0.139400
      5 CD1         0.4130   -2.0110   -0.2020 cd        1 TSS     -0.100100
      6 NE1        -0.9560   -2.1000    0.0620 na        1 TSS     -0.194400
      7 CE2        -1.4860   -0.8080    0.0790 ca        1 TSS     -0.046200
      8 CD2        -0.4080    0.1220   -0.1810 ca        1 TSS     -0.088800
      9 CZ2        -2.7970   -0.3540    0.2950 ca        1 TSS     -0.146000
     10 CH2        -3.0220    1.0120    0.2500 ca        1 TSS     -0.113000
     11 CZ3        -1.9800    1.9240   -0.0030 ca        1 TSS     -0.158000
     12 CE3        -0.6810    1.4910   -0.2180 ca        1 TSS     -0.084000
     13 HN11        4.1510    1.5450   -0.4670 hn        1 TSS      0.346800
     14 HN12        4.4440    1.4610    1.1350 hn        1 TSS      0.346800
     15 HA1         2.8160   -0.2740    1.4070 h1        1 TSS      0.029700
     16 HA2         2.0700    1.3070    0.9150 h1        1 TSS      0.029700
     17 HB1         2.0780    0.5680   -1.4960 hc        1 TSS      0.050700
     18 HB2         2.7900   -1.0240   -1.0040 hc        1 TSS      0.050700
     19 HD1         1.0270   -2.9110   -0.2630 h4        1 TSS      0.167000
     20 HE1        -1.4660   -2.9290    0.2010 hn        1 TSS      0.298700
     21 HZ2        -3.6150   -1.0590    0.4930 ha        1 TSS      0.131000
     22 HH2        -4.0390    1.3980    0.4150 ha        1 TSS      0.129000
     23 HZ3        -2.2090    2.9990   -0.0300 ha        1 TSS      0.128000
     24 HE3         0.1310    2.2060   -0.4150 ha        1 TSS      0.131000
@<TRIPOS>BOND
     1    1    2 1   
     2    1   13 1   
     3    1   14 1   
     4    2    3 1   
     5    2   15 1   
     6    2   16 1   
     7    3    4 1   
     8    3   17 1   
     9    3   18 1   
    10    4    5 2   
    11    4    8 1   
    12    5    6 1   
    13    5   19 1   
    14    6    7 1   
    15    6   20 1   
    16    7    8 ar  
    17    7    9 ar  
    18    8   12 ar  
    19    9   10 ar  
    20    9   21 1   
    21   10   11 ar  
    22   10   22 1   
    23   11   12 ar  
    24   11   23 1   
    25   12   24 1   
@<TRIPOS>SUBSTRUCTURE
     1 TSS         1 TEMP              0 ****  ****    0 ROOT
