@<TRIPOS>MOLECULE
TST
   52    53     1     0     0
SMALL
bcc


@<TRIPOS>ATOM
      1 S1         -1.6020   -2.8820   -1.9780 ss        1 TST     -0.290200
      2 C1         -2.8880   -2.7230   -0.7840 c3        1 TST     -0.044300
      3 C2         -2.3410   -2.6260    0.6340 c3        1 TST      0.203800
      4 N1         -1.4360   -1.5180    0.8600 n3        1 TST     -0.797500
      5 C3         -0.2370   -1.6240    0.0500 c3        1 TST      0.169500
      6 C4         -0.5060   -1.6020   -1.4630 c3        1 TST     -0.055300
      7 C5          0.8400   -0.5240    0.2500 c         1 TST      0.645100
      8 N2          2.1520   -0.9290    0.0930 n         1 TST     -0.467900
      9 O1          0.5030    0.6440    0.5330 o         1 TST     -0.637100
     10 C6          3.0950   -0.0190   -0.5510 c3        1 TST     -0.074300
     11 C7          4.4700   -0.0320    0.1140 c3        1 TST     -0.058400
     12 C8          3.2760   -0.3610   -2.0790 c         1 TST      0.903600
     13 O2          4.0830    0.3490   -2.7280 o         1 TST     -0.831800
     14 O3          2.5900   -1.3120   -2.5580 o         1 TST     -0.831800
     15 C9          4.4700    0.4080    1.5690 c3        1 TST     -0.067700
     16 C10         5.8890    0.3920    2.1050 c3        1 TST     -0.088100
     17 S2         -1.8690   -0.3710    1.9530 sy        1 TST      1.507200
     18 C11        -2.5020    0.8990    1.0380 ca        1 TST     -0.366500
     19 C12        -3.7580    0.7730    0.4290 ca        1 TST      0.003000
     20 C13        -4.3160    1.8190   -0.2930 ca        1 TST     -0.168500
     21 C14        -3.6210    3.0300   -0.4270 ca        1 TST     -0.021300
     22 C15        -2.3720    3.1690    0.1840 ca        1 TST     -0.168500
     23 C16        -1.8190    2.1130    0.9070 ca        1 TST      0.003000
     24 C17        -4.1970    4.1390   -1.2220 c3        1 TST     -0.061800
     25 O4         -2.9570   -0.8940    2.7150 o         1 TST     -0.655800
     26 O5         -0.8000    0.0590    2.7550 o         1 TST     -0.655800
     27 C18         3.8580    1.7820    1.7450 c3        1 TST     -0.088100
     28 H11        -3.5290   -1.8380   -1.0140 h1        1 TST      0.066700
     29 H12A       -3.5170   -3.6420   -0.8710 h1        1 TST      0.066700
     30 H21        -3.2160   -2.5520    1.3460 h1        1 TST      0.069200
     31 H22        -1.7980   -3.5890    0.8710 h1        1 TST      0.069200
     32 H3          0.2240   -2.6320    0.3050 h1        1 TST      0.070700
     33 H41        -0.9050   -0.6040   -1.7650 h1        1 TST      0.123700
     34 H42         0.4650   -1.7650   -2.0210 h1        1 TST      0.123700
     35 HN2         2.2500   -1.8560   -0.2830 hn        1 TST      0.296500
     36 H6          2.6800    1.0290   -0.5010 h1        1 TST      0.074700
     37 H71         5.1190    0.6540   -0.4950 hc        1 TST      0.050700
     38 H72         4.9120   -1.0610    0.0460 hc        1 TST      0.050700
     39 H9          3.8610   -0.3260    2.1680 hc        1 TST      0.049700
     40 H101        5.9000    0.6630    3.1880 hc        1 TST      0.026700
     41 H102        6.3380   -0.6230    1.9880 hc        1 TST      0.026700
     42 H103        6.5240    1.1250    1.5510 hc        1 TST      0.026700
     43 H12        -4.3150   -0.1740    0.5400 ha        1 TST      0.160000
     44 H13        -5.3020    1.7010   -0.7650 ha        1 TST      0.132500
     45 H15        -1.8130    4.1120    0.0860 ha        1 TST      0.132500
     46 H16        -0.8210    2.2240    1.3750 ha        1 TST      0.160000
     47 H171       -3.8610    5.1300   -0.8290 hc        1 TST      0.045367
     48 H172       -3.8610    4.0520   -2.2860 hc        1 TST      0.045367
     49 H173       -5.3140    4.1090   -1.2030 hc        1 TST      0.045367
     50 H181        4.3290    2.5140    1.0470 hc        1 TST      0.026700
     51 H182        2.7600    1.7420    1.5350 hc        1 TST      0.026700
     52 H183        4.0050    2.1420    2.7920 hc        1 TST      0.026700
@<TRIPOS>BOND
     1    1    2 1   
     2    1    6 1   
     3    2    3 1   
     4    2   28 1   
     5    2   29 1   
     6    3    4 1   
     7    3   30 1   
     8    3   31 1   
     9    4    5 1   
    10    4   17 1   
    11    5    6 1   
    12    5    7 1   
    13    5   32 1   
    14    6   33 1   
    15    6   34 1   
    16    7    8 1   
    17    7    9 2   
    18    8   10 1   
    19    8   35 1   
    20   10   11 1   
    21   10   12 1   
    22   10   36 1   
    23   11   15 1   
    24   11   37 1   
    25   11   38 1   
    26   12   13 1   
    27   12   14 1   
    28   15   16 1   
    29   15   27 1   
    30   15   39 1   
    31   16   40 1   
    32   16   41 1   
    33   16   42 1   
    34   17   18 1   
    35   17   25 2   
    36   17   26 2   
    37   18   19 ar  
    38   18   23 ar  
    39   19   20 ar  
    40   19   43 1   
    41   20   21 ar  
    42   20   44 1   
    43   21   22 ar  
    44   21   24 1   
    45   22   23 ar  
    46   22   45 1   
    47   23   46 1   
    48   24   47 1   
    49   24   48 1   
    50   24   49 1   
    51   27   50 1   
    52   27   51 1   
    53   27   52 1   
@<TRIPOS>SUBSTRUCTURE
     1 TST         1 TEMP              0 ****  ****    0 ROOT
