@<TRIPOS>MOLECULE
TSU
   18    14     1     0     0
SMALL
bcc


@<TRIPOS>ATOM
      1 S           1.1540    2.5510    1.2490 ss        1 TSU      2.872000
      2 O1          2.4440    2.2570    1.9770 o         1 TSU     -1.070000
      3 O2          0.2810    3.0350    2.3830 o         1 TSU     -1.070000
      4 O3          1.3450    3.6270    0.2080 os        1 TSU     -1.066000
      5 C1          0.4870    1.0870    0.5040 c1        1 TSU     -0.702000
      6 C2          1.3380    0.0810    0.0710 c1        1 TSU     -0.042000
      7 C3          0.8150   -1.0770   -0.4830 c1        1 TSU     -0.169000
      8 C4         -0.5570   -1.2300   -0.6030 c1        1 TSU     -0.075000
      9 C5         -1.4070   -0.2250   -0.1700 c1        1 TSU     -0.169000
     10 C6         -0.8850    0.9340    0.3830 c2        1 TSU     -0.042000
     11 C7         -1.1270   -2.4860   -1.2270 c3        1 TSU     -0.168000
     12 H2          2.3040    0.1890    0.1560 ha        1 TSU      0.143000
     13 H3          1.4140   -1.7850   -0.7870 ha        1 TSU      0.107000
     14 H5         -2.3740   -0.3320   -0.2550 ha        1 TSU      0.107000
     15 H6         -1.4830    1.6460    0.6790 ha        1 TSU      0.143000
     16 H71        -1.1510   -3.2010   -0.5580 hc        1 TSU      0.067000
     17 H72        -2.0360   -2.3080   -1.5480 hc        1 TSU      0.067000
     18 H73        -0.5620   -2.7620   -1.9800 hc        1 TSU      0.067000
@<TRIPOS>BOND
     1    1    2 1   
     2    1    3 1   
     3    5    6 1   
     4    5   10 1   
     5    6   12 1   
     6    7    8 1   
     7    7   13 1   
     8    8   11 1   
     9    9   10 1   
    10    9   14 1   
    11   10   15 1   
    12   11   16 1   
    13   11   17 1   
    14   11   18 1   
@<TRIPOS>SUBSTRUCTURE
     1 TSU         1 TEMP              0 ****  ****    0 ROOT
