@<TRIPOS>MOLECULE
TSU
   18    18     1     0     0
SMALL
bcc


@<TRIPOS>ATOM
      1 S          -0.0120    0.0730   -0.0220 s6        1 TSU      1.459100
      2 O1          1.3940   -0.0360    0.0970 o         1 TSU     -0.745867
      3 O2         -0.7090   -0.0190    1.2070 o         1 TSU     -0.745867
      4 O3         -0.4260    1.1630   -0.8220 o         1 TSU     -0.745867
      5 C1         -0.5010   -1.3740   -0.9260 ca        1 TSU     -0.257500
      6 C2          0.3620   -1.9610   -1.8500 ca        1 TSU     -0.042000
      7 C3         -0.0220   -3.0870   -2.5770 ca        1 TSU     -0.169000
      8 C4         -1.2890   -3.6500   -2.3840 ca        1 TSU     -0.082300
      9 C5         -2.1560   -3.0690   -1.4520 ca        1 TSU     -0.169000
     10 C6         -1.7590   -1.9430   -0.7330 ca        1 TSU     -0.042000
     11 C7         -1.7000   -4.8540   -3.1420 c3        1 TSU     -0.042800
     12 H2          1.3660   -1.5270   -1.9910 ha        1 TSU      0.143000
     13 H3          0.6690   -3.5370   -3.3030 ha        1 TSU      0.107000
     14 H5         -3.1520   -3.5040   -1.2900 ha        1 TSU      0.107000
     15 H6         -2.4370   -1.4940    0.0120 ha        1 TSU      0.143000
     16 H71        -1.1820   -4.9010   -4.1320 hc        1 TSU      0.028033
     17 H72        -1.4360   -5.7770   -2.5670 hc        1 TSU      0.028033
     18 H73        -2.8030   -4.8580   -3.3200 hc        1 TSU      0.028033
@<TRIPOS>BOND
     1    1    2 1   
     2    1    3 1   
     3    1    4 1   
     4    1    5 1   
     5    5    6 ar  
     6    5   10 ar  
     7    6    7 ar  
     8    6   12 1   
     9    7    8 ar  
    10    7   13 1   
    11    8    9 ar  
    12    8   11 1   
    13    9   10 ar  
    14    9   14 1   
    15   10   15 1   
    16   11   16 1   
    17   11   17 1   
    18   11   18 1   
@<TRIPOS>SUBSTRUCTURE
     1 TSU         1 TEMP              0 ****  ****    0 ROOT
