@<TRIPOS>MOLECULE
TSU
   18    18     1     0     0
SMALL
bcc


@<TRIPOS>ATOM
      1 S          -1.8410    0.0000   -0.0280 s6        1 TSU      1.459100
      2 O1         -2.1950   -1.1880   -0.7100 o         1 TSU     -0.745867
      3 O2         -2.1950    1.1890   -0.7090 o         1 TSU     -0.745867
      4 O3         -2.2170   -0.0000    1.3350 o         1 TSU     -0.745867
      5 C1         -0.0660    0.0000   -0.0150 ca        1 TSU     -0.257500
      6 C2          0.6460   -1.1990   -0.0070 ca        1 TSU     -0.042000
      7 C3          2.0400   -1.2060    0.0210 ca        1 TSU     -0.169000
      8 C4          2.7480   -0.0000    0.0370 ca        1 TSU     -0.082300
      9 C5          2.0400    1.2060    0.0210 ca        1 TSU     -0.169000
     10 C6          0.6460    1.1990   -0.0060 ca        1 TSU     -0.042000
     11 C7          4.2290   -0.0000    0.0530 c3        1 TSU     -0.042800
     12 H2          0.0870   -2.1490   -0.0350 ha        1 TSU      0.143000
     13 H3          2.5860   -2.1600    0.0290 ha        1 TSU      0.107000
     14 H5          2.5860    2.1600    0.0300 ha        1 TSU      0.107000
     15 H6          0.0870    2.1490   -0.0340 ha        1 TSU      0.143000
     16 H71         4.6240    0.0010   -0.9940 hc        1 TSU      0.027700
     17 H72         4.6250    0.9060    0.5740 hc        1 TSU      0.027700
     18 H73         4.6250   -0.9070    0.5730 hc        1 TSU      0.027700
@<TRIPOS>BOND
     1    1    2 1   
     2    1    3 1   
     3    1    4 1   
     4    1    5 1   
     5    5    6 ar  
     6    5   10 ar  
     7    6    7 ar  
     8    6   12 1   
     9    7    8 ar  
    10    7   13 1   
    11    8    9 ar  
    12    8   11 1   
    13    9   10 ar  
    14    9   14 1   
    15   10   15 1   
    16   11   16 1   
    17   11   17 1   
    18   11   18 1   
@<TRIPOS>SUBSTRUCTURE
     1 TSU         1 TEMP              0 ****  ****    0 ROOT
