@<TRIPOS>MOLECULE
TSU
   18    18     1     0     0
SMALL
bcc


@<TRIPOS>ATOM
      1 S          -0.0120    0.0720   -0.0220 s6        1 TSU      1.459100
      2 O1          1.3940   -0.0400    0.1020 o         1 TSU     -0.745867
      3 O2         -0.7120   -0.0170    1.2050 o         1 TSU     -0.745867
      4 O3         -0.4200    1.1620   -0.8240 o         1 TSU     -0.745867
      5 C1         -0.5010   -1.3740   -0.9260 ca        1 TSU     -0.257500
      6 C2          0.3630   -1.9640   -1.8470 ca        1 TSU     -0.042000
      7 C3         -0.0210   -3.0900   -2.5740 ca        1 TSU     -0.169000
      8 C4         -1.2890   -3.6490   -2.3840 ca        1 TSU     -0.082300
      9 C5         -2.1580   -3.0670   -1.4550 ca        1 TSU     -0.169000
     10 C6         -1.7600   -1.9410   -0.7350 ca        1 TSU     -0.042000
     11 C7         -1.7000   -4.8530   -3.1430 c3        1 TSU     -0.042800
     12 H2          1.3680   -1.5310   -1.9860 ha        1 TSU      0.143000
     13 H3          0.6710   -3.5410   -3.2990 ha        1 TSU      0.107000
     14 H5         -3.1550   -3.5000   -1.2950 ha        1 TSU      0.107000
     15 H6         -2.4390   -1.4900    0.0080 ha        1 TSU      0.143000
     16 H71        -1.2000   -4.8870   -4.1420 hc        1 TSU      0.027700
     17 H72        -1.4140   -5.7770   -2.5790 hc        1 TSU      0.027700
     18 H73        -2.8060   -4.8700   -3.3000 hc        1 TSU      0.027700
@<TRIPOS>BOND
     1    1    2 1   
     2    1    3 1   
     3    1    4 1   
     4    1    5 1   
     5    5    6 ar  
     6    5   10 ar  
     7    6    7 ar  
     8    6   12 1   
     9    7    8 ar  
    10    7   13 1   
    11    8    9 ar  
    12    8   11 1   
    13    9   10 ar  
    14    9   14 1   
    15   10   15 1   
    16   11   16 1   
    17   11   17 1   
    18   11   18 1   
@<TRIPOS>SUBSTRUCTURE
     1 TSU         1 TEMP              0 ****  ****    0 ROOT
