@<TRIPOS>MOLECULE
TSX
   54    56     1     0     0
SMALL
bcc


@<TRIPOS>ATOM
      1 O13        -0.0040    0.7330    0.5410 o         1 TSX     -0.641500
      2 C5          0.9640    0.2440   -0.0830 c         1 TSX      0.813500
      3 N4          1.8450   -0.6550    0.5750 n         1 TSX     -0.481400
      4 C31         1.5120   -1.0290    1.9420 c3        1 TSX      0.126200
      5 C32         0.3690   -1.9900    2.0550 c2        1 TSX     -0.193200
      6 C33         0.4820   -3.1840    2.6310 c2        1 TSX     -0.198000
      7 N6          1.1520    0.5830   -1.4480 n         1 TSX     -0.413300
      8 C41         0.3260    1.6030   -2.0600 c3        1 TSX      0.104000
      9 C42         0.9100    3.0150   -2.0130 c3        1 TSX     -0.104400
     10 C43        -0.0350    3.9810   -2.6950 c3        1 TSX     -0.077400
     11 C44         0.5060    5.3870   -2.6650 c3        1 TSX     -0.092100
     12 C7          2.2700    0.0780   -2.0990 cc        1 TSX      0.489200
     13 N12         2.7140    0.2910   -3.4110 nc        1 TSX     -0.692000
     14 C8          3.1510   -0.8320   -1.4300 cd        1 TSX     -0.356200
     15 C3          2.9630   -1.2470   -0.0530 c         1 TSX      0.764100
     16 O12         3.7160   -2.0300    0.5540 o         1 TSX     -0.626500
     17 N9          4.1360   -1.1740   -2.3520 na        1 TSX     -0.253900
     18 C11         3.8390   -0.4860   -3.5290 cd        1 TSX      0.459800
     19 C14         4.6740   -0.5700   -4.7680 c3        1 TSX     -0.063400
     20 C21         5.6680   -1.6760   -4.7300 ca        1 TSX     -0.144300
     21 C22         5.4600   -2.8470   -5.4640 ca        1 TSX     -0.096000
     22 C23         6.3930   -3.8780   -5.4560 ca        1 TSX     -0.172000
     23 C24         7.5790   -3.7590   -4.6990 ca        1 TSX      0.084600
     24 C25         7.7870   -2.5670   -3.9590 ca        1 TSX     -0.172000
     25 C26         6.8440   -1.5500   -3.9820 ca        1 TSX     -0.096000
     26 N           8.5590   -4.7580   -4.6400 ns        1 TSX     -0.476100
     27 C           8.5730   -5.9810   -5.3060 c         1 TSX      0.667100
     28 O           7.6650   -6.3450   -6.0740 o         1 TSX     -0.582100
     29 C4          9.7730   -6.8610   -5.0410 c3        1 TSX     -0.179100
     30 H311        1.2320   -0.0850    2.4970 h1        1 TSX      0.080700
     31 H312        2.4430   -1.4630    2.4110 h1        1 TSX      0.080700
     32 H32        -0.5880   -1.6190    1.6520 ha        1 TSX      0.140000
     33 H331        1.4310   -3.5690    3.0270 ha        1 TSX      0.115000
     34 H332       -0.3770   -3.8580    2.7460 ha        1 TSX      0.115000
     35 H411       -0.6700    1.5990   -1.5280 h1        1 TSX      0.077200
     36 H412        0.1620    1.3060   -3.1350 h1        1 TSX      0.077200
     37 H421        1.9070    3.0370   -2.5270 hc        1 TSX      0.054200
     38 H422        1.0690    3.3290   -0.9490 hc        1 TSX      0.054200
     39 H431       -0.1960    3.6620   -3.7580 hc        1 TSX      0.041700
     40 H432       -1.0340    3.9520   -2.1840 hc        1 TSX      0.041700
     41 H441       -0.2030    6.0860   -3.1720 hc        1 TSX      0.034033
     42 H442        1.4910    5.4420   -3.1890 hc        1 TSX      0.034033
     43 H443        0.6500    5.7330   -1.6130 hc        1 TSX      0.034033
     44 H91         4.8750   -1.8150   -2.2020 hn        1 TSX      0.330700
     45 H141        5.2050    0.4160   -4.8940 hc        1 TSX      0.084200
     46 H142        3.9860   -0.6950   -5.6500 hc        1 TSX      0.084200
     47 H22         4.5420   -2.9620   -6.0630 ha        1 TSX      0.139500
     48 H23         6.1920   -4.7870   -6.0490 ha        1 TSX      0.157000
     49 H25         8.7010   -2.4340   -3.3600 ha        1 TSX      0.157000
     50 H26         7.0300   -0.6280   -3.4080 ha        1 TSX      0.139500
     51 HN1         9.3390   -4.5590   -4.0540 hn        1 TSX      0.316500
     52 H41        10.7140   -6.3470   -5.3530 hc        1 TSX      0.071033
     53 H42         9.6600   -7.8010   -5.6340 hc        1 TSX      0.071033
     54 H43         9.8380   -7.1210   -3.9570 hc        1 TSX      0.071033
@<TRIPOS>BOND
     1    1    2 2   
     2    2    3 1   
     3    2    7 1   
     4    3    4 1   
     5    3   15 1   
     6    4    5 1   
     7    4   30 1   
     8    4   31 1   
     9    5    6 2   
    10    5   32 1   
    11    6   33 1   
    12    6   34 1   
    13    7    8 1   
    14    7   12 1   
    15    8    9 1   
    16    8   35 1   
    17    8   36 1   
    18    9   10 1   
    19    9   37 1   
    20    9   38 1   
    21   10   11 1   
    22   10   39 1   
    23   10   40 1   
    24   11   41 1   
    25   11   42 1   
    26   11   43 1   
    27   12   13 1   
    28   12   14 2   
    29   13   18 2   
    30   14   15 1   
    31   14   17 1   
    32   15   16 2   
    33   17   18 1   
    34   17   44 1   
    35   18   19 1   
    36   19   20 1   
    37   19   45 1   
    38   19   46 1   
    39   20   21 ar  
    40   20   25 ar  
    41   21   22 ar  
    42   21   47 1   
    43   22   23 ar  
    44   22   48 1   
    45   23   24 ar  
    46   23   26 1   
    47   24   25 ar  
    48   24   49 1   
    49   25   50 1   
    50   26   27 1   
    51   26   51 1   
    52   27   28 2   
    53   27   29 1   
    54   29   52 1   
    55   29   53 1   
    56   29   54 1   
@<TRIPOS>SUBSTRUCTURE
     1 TSX         1 TEMP              0 ****  ****    0 ROOT
