@<TRIPOS>MOLECULE
TSX
   55    57     1     0     0
SMALL
bcc


@<TRIPOS>ATOM
      1 O13        -0.0130    0.1040    0.2850 o         1 TSX     -0.616500
      2 C5          1.2340    0.0720    0.2190 c         1 TSX      0.812500
      3 N4          2.0150    0.2880    1.3840 n         1 TSX     -0.476400
      4 C31         1.2980    0.4640    2.6430 c3        1 TSX      0.125200
      5 C32         0.7450   -0.8040    3.2130 c2        1 TSX     -0.204200
      6 C33         1.0980   -1.2740    4.4060 c2        1 TSX     -0.185000
      7 N6          1.8480   -0.2100   -1.0360 n         1 TSX     -0.415300
      8 C41         1.0380   -0.2350   -2.2380 c3        1 TSX      0.102000
      9 C42         0.9260    1.1030   -2.9680 c3        1 TSX     -0.106400
     10 C43         0.0640    0.9410   -4.2030 c3        1 TSX     -0.076400
     11 C44        -0.0690    2.2430   -4.9500 c3        1 TSX     -0.094100
     12 C7          3.2330   -0.1690   -1.1050 cc        1 TSX      0.491200
     13 N12         4.0850   -0.3550   -2.2030 nc        1 TSX     -0.698000
     14 C8          4.0130    0.0440    0.0760 cd        1 TSX     -0.334200
     15 C3          3.4230    0.2720    1.3890 c         1 TSX      0.760100
     16 O12         4.0900    0.4570    2.4210 o         1 TSX     -0.606500
     17 N9          5.3470   -0.0220   -0.3080 na        1 TSX     -0.246900
     18 C11         5.3500   -0.2570   -1.6840 cd        1 TSX      0.420800
     19 C14         6.6050   -0.3670   -2.4900 c3        1 TSX     -0.075400
     20 C21         6.5600   -1.5440   -3.4050 ca        1 TSX     -0.010300
     21 C22         5.7420   -1.5190   -4.5440 ca        1 TSX     -0.088500
     22 C23         5.6830   -2.6140   -5.4000 ca        1 TSX     -0.102500
     23 C24         6.4610   -3.7520   -5.1150 ca        1 TSX     -0.068400
     24 C25         7.2920   -3.7860   -3.9830 ca        1 TSX     -0.102500
     25 C26         7.3340   -2.6790   -3.1380 ca        1 TSX     -0.088500
     26 N           6.3860   -4.9230   -5.9920 n4        1 TSX     -0.551200
     27 C           7.5530   -4.9620   -6.9770 c         1 TSX      0.560100
     28 O           8.4000   -5.8030   -6.7290 o         1 TSX     -0.401100
     29 C4          7.4880   -3.9940   -8.1040 c3        1 TSX     -0.183100
     30 H311        0.4370    1.1700    2.4480 h1        1 TSX      0.086200
     31 H312        2.0100    0.9520    3.3710 h1        1 TSX      0.086200
     32 H32        -0.0120   -1.3030    2.5850 ha        1 TSX      0.140000
     33 H331        1.8530   -0.7890    5.0410 ha        1 TSX      0.120000
     34 H332        0.6450   -2.1790    4.8330 ha        1 TSX      0.120000
     35 H411        0.0040   -0.5800   -1.9410 h1        1 TSX      0.075700
     36 H412        1.4870   -1.0020   -2.9310 h1        1 TSX      0.075700
     37 H421        0.4690    1.8710   -2.2900 hc        1 TSX      0.055700
     38 H422        1.9430    1.4710   -3.2610 hc        1 TSX      0.055700
     39 H431       -0.9540    0.5730   -3.9040 hc        1 TSX      0.039200
     40 H432        0.5130    0.1630   -4.8760 hc        1 TSX      0.039200
     41 H441       -0.5400    3.0220   -4.3030 hc        1 TSX      0.038033
     42 H442        0.9320    2.6170   -5.2750 hc        1 TSX      0.038033
     43 H443       -0.7060    2.1040   -5.8570 hc        1 TSX      0.038033
     44 H91         6.1210    0.1170    0.2920 hn        1 TSX      0.331700
     45 H141        6.7160    0.5770   -3.0980 hc        1 TSX      0.087700
     46 H142        7.5000   -0.4380   -1.8130 hc        1 TSX      0.087700
     47 H22         5.1190   -0.6310   -4.7530 ha        1 TSX      0.178500
     48 H23         5.0180   -2.5760   -6.2780 ha        1 TSX      0.158500
     49 H25         7.9080   -4.6700   -3.7470 ha        1 TSX      0.158500
     50 H26         7.9830   -2.7110   -2.2460 ha        1 TSX      0.178500
     51 HN1         5.5030   -4.8980   -6.5130 hn        1 TSX      0.463300
     52 H41         7.1040   -2.9950   -7.7760 hc        1 TSX      0.115367
     53 H42         6.8240   -4.4020   -8.9100 hc        1 TSX      0.115367
     54 H43         8.5210   -3.8690   -8.5250 hc        1 TSX      0.115367
     55 HN3         6.4070   -5.7730   -5.4090 hn        1 TSX      0.463300
@<TRIPOS>BOND
     1    1    2 2   
     2    2    3 1   
     3    2    7 1   
     4    3    4 1   
     5    3   15 1   
     6    4    5 1   
     7    4   30 1   
     8    4   31 1   
     9    5    6 2   
    10    5   32 1   
    11    6   33 1   
    12    6   34 1   
    13    7    8 1   
    14    7   12 1   
    15    8    9 1   
    16    8   35 1   
    17    8   36 1   
    18    9   10 1   
    19    9   37 1   
    20    9   38 1   
    21   10   11 1   
    22   10   39 1   
    23   10   40 1   
    24   11   41 1   
    25   11   42 1   
    26   11   43 1   
    27   12   13 1   
    28   12   14 2   
    29   13   18 2   
    30   14   15 1   
    31   14   17 1   
    32   15   16 2   
    33   17   18 1   
    34   17   44 1   
    35   18   19 1   
    36   19   20 1   
    37   19   45 1   
    38   19   46 1   
    39   20   21 ar  
    40   20   25 ar  
    41   21   22 ar  
    42   21   47 1   
    43   22   23 ar  
    44   22   48 1   
    45   23   24 ar  
    46   23   26 1   
    47   24   25 ar  
    48   24   49 1   
    49   25   50 1   
    50   26   27 1   
    51   26   51 1   
    52   26   55 1   
    53   27   28 2   
    54   27   29 1   
    55   29   52 1   
    56   29   53 1   
    57   29   54 1   
@<TRIPOS>SUBSTRUCTURE
     1 TSX         1 TEMP              0 ****  ****    0 ROOT
