@<TRIPOS>MOLECULE
TSX
   54    56     1     0     0
SMALL
bcc


@<TRIPOS>ATOM
      1 O13         1.0120   -0.6730   -4.8980 o         1 TSX     -0.641500
      2 C5          0.7070   -0.5500   -3.6910 c         1 TSX      0.812500
      3 N4         -0.6310   -0.7780   -3.2740 n         1 TSX     -0.481400
      4 C31        -1.5720   -1.2370   -4.2860 c3        1 TSX      0.126200
      5 C32        -1.3990   -2.6710   -4.6820 c2        1 TSX     -0.193200
      6 C33        -2.3630   -3.5770   -4.5560 c2        1 TSX     -0.198000
      7 N6          1.7140   -0.2020   -2.7530 n         1 TSX     -0.413300
      8 C41         3.0390    0.1600   -3.2160 c3        1 TSX      0.104000
      9 C42         3.2530    1.6560   -3.4430 c3        1 TSX     -0.104400
     10 C43         4.6720    1.9030   -3.9080 c3        1 TSX     -0.077400
     11 C44         4.9210    3.3710   -4.1460 c3        1 TSX     -0.092100
     12 C7          1.3380   -0.0070   -1.4310 cc        1 TSX      0.489200
     13 N12         2.1100    0.3820   -0.3290 nc        1 TSX     -0.693000
     14 C8         -0.0130   -0.2450   -1.0190 cd        1 TSX     -0.356200
     15 C3         -1.0600   -0.6550   -1.9350 c         1 TSX      0.764100
     16 O12        -2.2420   -0.8620   -1.6050 o         1 TSX     -0.626500
     17 N9         -0.0540    0.0020    0.3510 na        1 TSX     -0.253900
     18 C11         1.2360    0.3700    0.7300 cd        1 TSX      0.459800
     19 C14         1.6140    0.7370    2.1320 c3        1 TSX     -0.063400
     20 C21         0.5670    0.3880    3.1290 ca        1 TSX     -0.144300
     21 C22         0.7240   -0.7160    3.9710 ca        1 TSX     -0.096000
     22 C23        -0.2360   -1.0390    4.9250 ca        1 TSX     -0.172000
     23 C24        -1.3980   -0.2480    5.0600 ca        1 TSX      0.084600
     24 C25        -1.5520    0.8730    4.2040 ca        1 TSX     -0.172000
     25 C26        -0.5810    1.1780    3.2610 ca        1 TSX     -0.096000
     26 N          -2.4080   -0.5160    5.9930 n         1 TSX     -0.476100
     27 C          -2.4460   -1.5350    6.9410 c         1 TSX      0.667100
     28 O          -1.5350   -2.3700    7.0750 o         1 TSX     -0.582100
     29 C4         -3.6780   -1.5740    7.8150 c3        1 TSX     -0.179100
     30 H311       -2.6130   -1.0580   -3.8870 h1        1 TSX      0.080700
     31 H312       -1.4210   -0.5990   -5.2080 h1        1 TSX      0.080700
     32 H32        -0.4150   -2.9140   -5.1180 ha        1 TSX      0.140000
     33 H331       -2.2350   -4.6150   -4.8920 ha        1 TSX      0.115000
     34 H332       -3.3430   -3.3500   -4.1140 ha        1 TSX      0.115000
     35 H411        3.2230   -0.3900   -4.1850 h1        1 TSX      0.077200
     36 H412        3.7780   -0.2090   -2.4480 h1        1 TSX      0.077200
     37 H421        3.0630    2.2210   -2.4930 hc        1 TSX      0.054200
     38 H422        2.5320    2.0340   -4.2140 hc        1 TSX      0.054200
     39 H431        4.8620    1.3310   -4.8540 hc        1 TSX      0.041700
     40 H432        5.3920    1.5200   -3.1370 hc        1 TSX      0.041700
     41 H441        5.9710    3.5340   -4.4880 hc        1 TSX      0.034033
     42 H442        4.2290    3.7660   -4.9290 hc        1 TSX      0.034033
     43 H443        4.7590    3.9550   -3.2080 hc        1 TSX      0.034033
     44 H91        -0.8440   -0.1080    0.9380 hn        1 TSX      0.330700
     45 H141        2.5800    0.2180    2.3840 hc        1 TSX      0.084200
     46 H142        1.8100    1.8450    2.1570 hc        1 TSX      0.084200
     47 H22         1.6240   -1.3470    3.8850 ha        1 TSX      0.139500
     48 H23        -0.0740   -1.9180    5.5710 ha        1 TSX      0.157000
     49 H25        -2.4420    1.5160    4.2810 ha        1 TSX      0.157000
     50 H26        -0.7150    2.0590    2.6140 ha        1 TSX      0.139500
     51 HN1        -3.1860    0.1060    5.9720 hn        1 TSX      0.316500
     52 H41        -3.5800   -2.4300    8.5270 hc        1 TSX      0.071033
     53 H42        -3.7770   -0.6270    8.3990 hc        1 TSX      0.071033
     54 H43        -4.5960   -1.7220    7.1960 hc        1 TSX      0.071033
@<TRIPOS>BOND
     1    1    2 2   
     2    2    3 1   
     3    2    7 1   
     4    3    4 1   
     5    3   15 1   
     6    4    5 1   
     7    4   30 1   
     8    4   31 1   
     9    5    6 2   
    10    5   32 1   
    11    6   33 1   
    12    6   34 1   
    13    7    8 1   
    14    7   12 1   
    15    8    9 1   
    16    8   35 1   
    17    8   36 1   
    18    9   10 1   
    19    9   37 1   
    20    9   38 1   
    21   10   11 1   
    22   10   39 1   
    23   10   40 1   
    24   11   41 1   
    25   11   42 1   
    26   11   43 1   
    27   12   13 1   
    28   12   14 2   
    29   13   18 2   
    30   14   15 1   
    31   14   17 1   
    32   15   16 2   
    33   17   18 1   
    34   17   44 1   
    35   18   19 1   
    36   19   20 1   
    37   19   45 1   
    38   19   46 1   
    39   20   21 ar  
    40   20   25 ar  
    41   21   22 ar  
    42   21   47 1   
    43   22   23 ar  
    44   22   48 1   
    45   23   24 ar  
    46   23   26 1   
    47   24   25 ar  
    48   24   49 1   
    49   25   50 1   
    50   26   27 1   
    51   26   51 1   
    52   27   28 2   
    53   27   29 1   
    54   29   52 1   
    55   29   53 1   
    56   29   54 1   
@<TRIPOS>SUBSTRUCTURE
     1 TSX         1 TEMP              0 ****  ****    0 ROOT
