@<TRIPOS>MOLECULE
TSY
   15    14     1     0     0
SMALL
bcc


@<TRIPOS>ATOM
      1 S2         -3.1560   -0.4710   -0.7250 sh        1 TSY     -0.344800
      2 S1         -1.9840    1.1410   -0.4630 ss        1 TSY      0.015000
      3 SG         -0.9200    1.3520    1.1620 ss        1 TSY     -0.180100
      4 CB          0.7630    0.7850    0.9820 c3        1 TSY      0.015700
      5 CA          1.0890   -0.0800   -0.2180 c3        1 TSY      0.002500
      6 N           0.3450   -1.3330   -0.2410 n3        1 TSY     -0.901800
      7 C           2.6550   -0.2480   -0.2750 c         1 TSY      0.898600
      8 O           3.1040   -1.4090   -0.4800 o         1 TSY     -0.827800
      9 H1         -2.3780   -1.2720   -1.4490 hs        1 TSY      0.233800
     10 HB2         1.4080    1.7010    0.9270 h1        1 TSY      0.088700
     11 HB3         0.9830    0.2450    1.9350 h1        1 TSY      0.088700
     12 HA          0.8050    0.4840   -1.1550 h1        1 TSY      0.060700
     13 H           0.7380   -1.8930   -0.9810 hn        1 TSY      0.339800
     14 H2          0.5300   -1.8300    0.6140 hn        1 TSY      0.339800
     15 OXT         3.3490    0.7920   -0.1330 o         1 TSY     -0.827800
@<TRIPOS>BOND
     1    1    2 1   
     2    1    9 1   
     3    2    3 1   
     4    3    4 1   
     5    4    5 1   
     6    4   10 1   
     7    4   11 1   
     8    5    6 1   
     9    5    7 1   
    10    5   12 1   
    11    6   13 1   
    12    6   14 1   
    13    7    8 1   
    14    7   15 1   
@<TRIPOS>SUBSTRUCTURE
     1 TSY         1 TEMP              0 ****  ****    0 ROOT
