@<TRIPOS>MOLECULE
TSY
   15    14     1     0     0
SMALL
bcc


@<TRIPOS>ATOM
      1 S2         -1.1370   -2.4710   -3.8140 sh        1 TSY     -0.505800
      2 S1         -1.1120   -0.6540   -2.8660 ss        1 TSY     -0.490000
      3 SG         -0.0750   -0.8160   -1.1050 ss        1 TSY      0.360900
      4 CB         -0.3410    0.6390   -0.1260 c3        1 TSY     -0.166300
      5 CA          0.1350    0.3890    1.2860 c3        1 TSY      0.084500
      6 N           0.4560    1.6300    1.9040 n3        1 TSY     -0.890800
      7 C           1.3640   -0.4910    1.2560 c         1 TSY      0.850600
      8 O           2.4660   -0.0200    0.8710 o         1 TSY     -0.673800
      9 H1         -1.7360   -2.3790   -4.8240 hs        1 TSY      0.205800
     10 HB2         0.1580    1.3870   -0.5110 h1        1 TSY      0.066700
     11 HB3        -1.2950    0.8540   -0.1160 h1        1 TSY      0.066700
     12 HA         -0.5710   -0.0550    1.7950 h1        1 TSY      0.072700
     13 H           0.6660    1.4870    2.7850 hn        1 TSY      0.346800
     14 H2         -0.2640    2.1940    1.8490 hn        1 TSY      0.346800
     15 OXT         1.2850   -1.6950    1.6160 o         1 TSY     -0.673800
@<TRIPOS>BOND
     1    1    2 1   
     2    1    9 1   
     3    2    3 1   
     4    3    4 1   
     5    4    5 1   
     6    4   10 1   
     7    4   11 1   
     8    5    6 1   
     9    5    7 1   
    10    5   12 1   
    11    6   13 1   
    12    6   14 1   
    13    7    8 1   
    14    7   15 1   
@<TRIPOS>SUBSTRUCTURE
     1 TSY         1 TEMP              0 ****  ****    0 ROOT
