@<TRIPOS>MOLECULE
TSZ
   10     9     1     0     0
SMALL
bcc


@<TRIPOS>ATOM
      1 C          -0.0740   -0.2400    0.0160 c         1 TSZ      0.573400
      2 N1          0.1380   -1.5730   -0.1820 n         1 TSZ     -0.594000
      3 N2          0.9960    0.6150    0.4030 n         1 TSZ     -0.391300
      4 N3          2.2910    0.2730    0.1520 n3        1 TSZ     -0.684800
      5 S          -1.5550    0.4210   -0.0900 s         1 TSZ     -0.595400
      6 HN11        1.0310   -1.9970   -0.1080 hn        1 TSZ      0.332000
      7 HN12       -0.6610   -2.1460   -0.3200 hn        1 TSZ      0.332000
      8 HN2         0.7360    1.5830    0.2630 hn        1 TSZ      0.313500
      9 HN31        2.7010    0.8820   -0.5440 hn        1 TSZ      0.357300
     10 HN32        2.8120    0.3880    1.0130 hn        1 TSZ      0.357300
@<TRIPOS>BOND
     1    1    2 1   
     2    1    3 1   
     3    1    5 2   
     4    2    6 1   
     5    2    7 1   
     6    3    4 1   
     7    3    8 1   
     8    4    9 1   
     9    4   10 1   
@<TRIPOS>SUBSTRUCTURE
     1 TSZ         1 TEMP              0 ****  ****    0 ROOT
