@<TRIPOS>MOLECULE
TSZ
   10     8     1     0     0
SMALL
bcc


@<TRIPOS>ATOM
      1 C           0.2830    0.0730   -0.6850 c1        1 TSZ      0.093000
      2 N1          1.6830    0.3000   -0.6370 n2        1 TSZ     -0.367000
      3 N2         -0.5130    0.3140    0.4640 n3        1 TSZ     -0.248000
      4 N3         -1.2580   -0.7140    1.0190 n3        1 TSZ     -0.201000
      5 S          -0.4260   -0.4920   -2.0920 s         1 TSZ     -0.296000
      6 HN11        2.2350   -0.3250   -0.2620 hn        1 TSZ      0.236500
      7 HN12        2.0360    1.0570   -1.0080 hn        1 TSZ      0.236500
      8 HN2        -0.5170    1.1400    0.8510 hn        1 TSZ      0.224000
      9 HN31       -1.9890   -0.8800    0.4930 hn        1 TSZ      0.161000
     10 HN32       -1.5330   -0.4730    1.8580 hn        1 TSZ      0.161000
@<TRIPOS>BOND
     1    1    3 1   
     2    1    5 1   
     3    2    6 1   
     4    2    7 1   
     5    3    4 1   
     6    3    8 1   
     7    4    9 1   
     8    4   10 1   
@<TRIPOS>SUBSTRUCTURE
     1 TSZ         1 TEMP              0 ****  ****    0 ROOT
