@<TRIPOS>MOLECULE
TSZ
   13    11     1     0     0
SMALL
bcc


@<TRIPOS>ATOM
      1 C         150.2380  120.7380 -983.8000 c1        1 TSZ     -0.662000
      2 N1        149.8480  120.6730 -982.4510 nz        1 TSZ      0.032000
      3 N2       -128.0620 -103.8830  843.5430 n8        1 TSZ     -0.264000
      4 N3       -128.0650 -103.0740  844.6730 nz        1 TSZ      0.005000
      5 S         150.6080  120.8010 -985.0830 s         1 TSZ      1.636000
      6 HN11      150.3270  121.4160 -981.8920 hn        1 TSZ      0.331000
      7 HN12      150.0950  119.7430 -982.0400 hn        1 TSZ      0.331000
      8 HN2      -127.8510 -104.8460  843.7860 hn        1 TSZ      0.225000
      9 HN31     -128.2290 -102.0970  844.3620 hn        1 TSZ      0.270000
     10 HN32     -128.7630 -103.3160  845.3960 hn        1 TSZ      0.270000
     11 H13       148.8150  120.8080 -982.3580 hn        1 TSZ      0.331000
     12 H22      -128.9550 -103.8390  843.0620 hn        1 TSZ      0.225000
     13 H33      -127.1180 -103.1160  845.0950 hn        1 TSZ      0.270000
@<TRIPOS>BOND
     1    1    2 1   
     2    1    5 1   
     3    2    6 1   
     4    2    7 1   
     5    2   11 1   
     6    3    4 1   
     7    3    8 1   
     8    3   12 1   
     9    4    9 1   
    10    4   10 1   
    11    4   13 1   
@<TRIPOS>SUBSTRUCTURE
     1 TSZ         1 TEMP              0 ****  ****    0 ROOT
