@<TRIPOS>MOLECULE
TSZ
   13    11     1     0     0
SMALL
bcc


@<TRIPOS>ATOM
      1 C         411.3860   22.4720 -923.7400 c1        1 TSZ     -0.662000
      2 N1        410.6230   22.6710 -922.5750 n4        1 TSZ      0.032000
      3 N2       -351.5960  -19.9050  792.2580 n3        1 TSZ     -0.264000
      4 N3       -351.9330  -18.9040  793.1620 n4        1 TSZ      0.005000
      5 S         412.1110   22.2830 -924.8460 s         1 TSZ      1.636000
      6 HN11      410.1910   23.6230 -922.5730 hn        1 TSZ      0.331000
      7 HN12      411.2230   22.5800 -921.7220 hn        1 TSZ      0.331000
      8 HN2      -352.2430  -20.6860  792.3220 hn        1 TSZ      0.225000
      9 HN31     -351.8950  -19.1710  794.1590 hn        1 TSZ      0.270000
     10 HN32     -352.8940  -18.5840  792.9370 hn        1 TSZ      0.270000
     11 H13       409.8550   21.9630 -922.5120 hn        1 TSZ      0.331000
     12 H22      -350.6490  -20.2330  792.4150 hn        1 TSZ      0.225000
     13 H33      -351.2900  -18.1050  793.0030 hn        1 TSZ      0.270000
@<TRIPOS>BOND
     1    1    2 1   
     2    1    5 1   
     3    2    6 1   
     4    2    7 1   
     5    2   11 1   
     6    3    4 1   
     7    3    8 1   
     8    3   12 1   
     9    4    9 1   
    10    4   10 1   
    11    4   13 1   
@<TRIPOS>SUBSTRUCTURE
     1 TSZ         1 TEMP              0 ****  ****    0 ROOT
