@<TRIPOS>MOLECULE
TSZ
   13    11     1     0     0
SMALL
bcc


@<TRIPOS>ATOM
      1 C          49.0180    0.3260 -122.0220 c1        1 TSZ     -0.662000
      2 N1         48.1830    0.1030 -123.1310 n4        1 TSZ      0.032000
      3 N2        -40.8580    0.3850  107.5460 n3        1 TSZ     -0.264000
      4 N3        -41.4790   -0.3910  106.5740 n4        1 TSZ      0.005000
      5 S          49.8120    0.5380 -120.9670 s         1 TSZ      1.636000
      6 HN11       47.3840   -0.5210 -122.8730 hn        1 TSZ      0.331000
      7 HN12       48.7150   -0.3500 -123.9090 hn        1 TSZ      0.331000
      8 HN2       -40.6830   -0.1560  108.3870 hn        1 TSZ      0.225000
      9 HN31      -41.6810    0.2220  105.7620 hn        1 TSZ      0.270000
     10 HN32      -40.9420   -1.2130  106.2480 hn        1 TSZ      0.270000
     11 H13        47.7910    1.0060 -123.4850 hn        1 TSZ      0.331000
     12 H22       -39.9850    0.7720  107.2000 hn        1 TSZ      0.225000
     13 H33       -42.3860   -0.7150  106.9600 hn        1 TSZ      0.270000
@<TRIPOS>BOND
     1    1    2 1   
     2    1    5 1   
     3    2    6 1   
     4    2    7 1   
     5    2   11 1   
     6    3    4 1   
     7    3    8 1   
     8    3   12 1   
     9    4    9 1   
    10    4   10 1   
    11    4   13 1   
@<TRIPOS>SUBSTRUCTURE
     1 TSZ         1 TEMP              0 ****  ****    0 ROOT
