@<TRIPOS>MOLECULE
TT1
   42    45     1     0     0
SMALL
bcc


@<TRIPOS>ATOM
      1 C26        -0.0400    0.2130    0.1330 ca        1 TT1     -0.104000
      2 C25         1.3460    0.0850    0.1380 ca        1 TT1     -0.131000
      3 C24         2.0100   -0.2610    1.3150 ca        1 TT1     -0.112000
      4 C23         1.2880   -0.4770    2.4850 ca        1 TT1     -0.128000
      5 C21        -0.1060   -0.3500    2.4800 ca        1 TT1      0.033400
      6 CL22       -0.9420   -0.6200    3.9360 cl        1 TT1     -0.084400
      7 C20        -0.7880   -0.0040    1.3010 ca        1 TT1     -0.082300
      8 C8         -2.2560    0.1610    1.2530 c3        1 TT1      0.025000
      9 S9         -2.9210   -1.4270    0.7930 ss        1 TT1     -0.224400
     10 C10        -4.5850   -1.1600    0.8290 cc        1 TT1      0.414800
     11 N19        -5.2510    0.0420    0.7750 nd        1 TT1     -0.354000
     12 N18        -6.5400   -0.1640    0.8490 nd        1 TT1     -0.332000
     13 C12        -6.7890   -1.5180    0.9460 cc        1 TT1      0.457000
     14 C13        -8.0930   -2.1120    1.0700 cc        1 TT1     -0.147600
     15 C17        -9.2650   -1.3700    1.1180 cd        1 TT1     -0.107000
     16 C16       -10.4160   -2.2020    1.2630 cd        1 TT1     -0.157000
     17 C15       -10.0780   -3.5350    1.3210 cc        1 TT1     -0.158100
     18 S14        -8.4300   -3.7640    1.1960 ss        1 TT1     -0.004800
     19 N11        -5.5440   -2.1860    0.9470 na        1 TT1     -0.299700
     20 C1         -5.2540   -3.5920    0.9910 c3        1 TT1      0.080600
     21 C2         -5.0720   -4.2530   -0.3460 ca        1 TT1     -0.123300
     22 C7         -3.8720   -4.0940   -1.0470 ca        1 TT1     -0.107500
     23 C6         -3.6850   -4.7410   -2.2670 ca        1 TT1     -0.130000
     24 C5         -4.6930   -5.5500   -2.7930 ca        1 TT1     -0.115000
     25 C4         -5.8920   -5.7070   -2.0970 ca        1 TT1     -0.130000
     26 C3         -6.0830   -5.0590   -0.8780 ca        1 TT1     -0.107500
     27 H26        -0.5630    0.4890   -0.7960 ha        1 TT1      0.145000
     28 H25         1.9160    0.2580   -0.7870 ha        1 TT1      0.140000
     29 H24         3.1060   -0.3620    1.3220 ha        1 TT1      0.140000
     30 H23         1.8120   -0.7480    3.4150 ha        1 TT1      0.150000
     31 H8         -2.5490    0.9300    0.4940 h1        1 TT1      0.097700
     32 H8A        -2.6740    0.4900    2.2370 h1        1 TT1      0.097700
     33 H17        -9.3130   -0.2780    1.0550 ha        1 TT1      0.178000
     34 H16       -11.4320   -1.8050    1.3200 ha        1 TT1      0.159000
     35 H15       -10.7770   -4.3630    1.4310 h4        1 TT1      0.173000
     36 H1         -4.2970   -3.7160    1.5860 h1        1 TT1      0.079200
     37 H1A        -6.0870   -4.1040    1.5600 h1        1 TT1      0.079200
     38 H7         -3.0760   -3.4490   -0.6360 ha        1 TT1      0.141500
     39 H6         -2.7400   -4.6110   -2.8160 ha        1 TT1      0.136500
     40 H5         -4.5440   -6.0600   -3.7560 ha        1 TT1      0.135000
     41 H4         -6.6900   -6.3400   -2.5110 ha        1 TT1      0.136500
     42 H3         -7.0360   -5.1760   -0.3350 ha        1 TT1      0.141500
@<TRIPOS>BOND
     1    1    2 ar  
     2    1    7 ar  
     3    1   27 1   
     4    2    3 ar  
     5    2   28 1   
     6    3    4 ar  
     7    3   29 1   
     8    4    5 ar  
     9    4   30 1   
    10    5    6 1   
    11    5    7 ar  
    12    7    8 1   
    13    8    9 1   
    14    8   31 1   
    15    8   32 1   
    16    9   10 1   
    17   10   11 2   
    18   10   19 1   
    19   11   12 1   
    20   12   13 2   
    21   13   14 1   
    22   13   19 1   
    23   14   15 2   
    24   14   18 1   
    25   15   16 1   
    26   15   33 1   
    27   16   17 2   
    28   16   34 1   
    29   17   18 1   
    30   17   35 1   
    31   19   20 1   
    32   20   21 1   
    33   20   36 1   
    34   20   37 1   
    35   21   22 ar  
    36   21   26 ar  
    37   22   23 ar  
    38   22   38 1   
    39   23   24 ar  
    40   23   39 1   
    41   24   25 ar  
    42   24   40 1   
    43   25   26 ar  
    44   25   41 1   
    45   26   42 1   
@<TRIPOS>SUBSTRUCTURE
     1 TT1         1 TEMP              0 ****  ****    0 ROOT
