@<TRIPOS>MOLECULE
TT1
   42    36     1     0     0
SMALL
bcc


@<TRIPOS>ATOM
      1 C26         4.4700   -1.2880   -1.2310 c1        1 TT1     -0.103000
      2 C25         5.8420   -1.0770   -1.2280 c1        1 TT1     -0.122000
      3 C24         6.5540   -1.1620   -0.0430 c1        1 TT1     -0.122000
      4 C23         5.8970   -1.4580    1.1430 c1        1 TT1     -0.128000
      5 C21         4.5190   -1.6700    1.1420 c1        1 TT1     -0.045000
      6 CL22        3.7160   -2.1870    2.6040 cl        1 TT1     -0.003000
      7 C20         3.8090   -1.5850   -0.0420 c2        1 TT1     -0.076000
      8 C8          2.3230   -1.9530   -0.0680 c3        1 TT1     -0.241000
      9 S9          1.3310   -0.4590    0.0710 ss        1 TT1      0.287000
     10 C10        -0.2250   -0.6920   -0.7980 c2        1 TT1     -0.261000
     11 N19        -0.5340   -1.7310   -1.5950 n2        1 TT1     -0.100000
     12 N18        -1.7350   -1.4800   -2.1620 n2        1 TT1     -0.067000
     13 C12        -2.1660   -0.2870   -1.7150 c2        1 TT1     -0.016000
     14 C13        -3.3370    0.3660   -2.1160 c2        1 TT1     -0.333000
     15 C17        -3.4900    1.1850   -3.3090 c1        1 TT1     -0.147000
     16 C16        -5.0360    1.5440   -3.4770 c1        1 TT1     -0.160000
     17 C15        -5.7660    0.9330   -2.3850 c1        1 TT1     -0.461000
     18 S14        -4.7430    0.1730   -1.4900 ss        1 TT1      0.667000
     19 N11        -1.2340    0.2040   -0.8710 n2        1 TT1     -0.133000
     20 C1         -1.2790    1.4920   -0.2090 c2        1 TT1      0.018000
     21 C2         -1.6440    1.2950    1.2740 c2        1 TT1     -0.116000
     22 C7         -1.8410    2.4040    2.0900 c2        1 TT1     -0.108000
     23 C6         -1.9970    2.2400    3.4600 c1        1 TT1     -0.134000
     24 C5         -1.9560    0.9700    4.0170 c1        1 TT1     -0.122000
     25 C4         -1.7600   -0.1360    3.2060 c1        1 TT1     -0.122000
     26 C3         -1.6040    0.0270    1.8310 c1        1 TT1     -0.109000
     27 H26         3.9710   -1.2290   -2.0640 ha        1 TT1      0.143000
     28 H25         6.3070   -0.8690   -2.0640 ha        1 TT1      0.137750
     29 H24         7.5250   -1.0130   -0.0420 ha        1 TT1      0.137750
     30 H23         6.3960   -1.5170    1.9730 ha        1 TT1      0.150000
     31 H8          2.1230   -2.5460    0.6790 h1        1 TT1      0.138500
     32 H8A         2.1140   -2.4080   -0.9110 h1        1 TT1      0.138500
     33 H17        -2.7720    1.4660   -3.9030 DU        1 TT1      0.161000
     34 H16        -5.4250    2.0830   -4.1940 DU        1 TT1      0.161000
     35 H15        -6.7280    0.9880   -2.2370 DU        1 TT1      0.161000
     36 H1         -1.9530    2.0550   -0.6380 ha        1 TT1      0.117500
     37 H1A        -0.4040    1.9230   -0.2740 ha        1 TT1      0.117500
     38 H7         -1.8700    3.2970    1.7000 ha        1 TT1      0.135000
     39 H6         -2.1360    3.0250    4.0360 ha        1 TT1      0.134000
     40 H5         -2.0650    0.8550    4.9830 ha        1 TT1      0.137750
     41 H4         -1.7310   -1.0220    3.5960 ha        1 TT1      0.137750
     42 H3         -1.4660   -0.7540    1.2590 ha        1 TT1      0.150000
@<TRIPOS>BOND
     1    1    7 1   
     2    1   27 1   
     3    2    3 1   
     4    2   28 1   
     5    3   29 1   
     6    4    5 1   
     7    4   30 1   
     8    5    7 1   
     9    7    8 1   
    10    8    9 1   
    11    8   31 1   
    12    8   32 1   
    13    9   10 1   
    14   10   11 1   
    15   10   19 1   
    16   11   12 1   
    17   12   13 1   
    18   13   14 1   
    19   13   19 1   
    20   14   15 1   
    21   14   18 1   
    22   15   16 1   
    23   16   17 1   
    24   17   18 1   
    25   20   21 1   
    26   20   36 1   
    27   20   37 1   
    28   21   22 1   
    29   21   26 1   
    30   22   23 1   
    31   22   38 1   
    32   23   39 1   
    33   24   25 1   
    34   24   40 1   
    35   25   41 1   
    36   26   42 1   
@<TRIPOS>SUBSTRUCTURE
     1 TT1         1 TEMP              0 ****  ****    0 ROOT
