@<TRIPOS>MOLECULE
TT1
   42    45     1     0     0
SMALL
bcc


@<TRIPOS>ATOM
      1 C26        -0.0350    0.2100    0.1360 ca        1 TT1     -0.104000
      2 C25         1.3500    0.0800    0.1420 ca        1 TT1     -0.131000
      3 C24         2.0140   -0.2650    1.3200 ca        1 TT1     -0.112000
      4 C23         1.2900   -0.4790    2.4900 ca        1 TT1     -0.128000
      5 C21        -0.1040   -0.3500    2.4830 ca        1 TT1      0.033400
      6 Cl22       -0.9410   -0.6170    3.9390 cl        1 TT1     -0.084400
      7 C20        -0.7840   -0.0050    1.3030 ca        1 TT1     -0.082300
      8 C8         -2.2530    0.1610    1.2540 c3        1 TT1      0.025000
      9 S9         -2.9180   -1.4270    0.7950 ss        1 TT1     -0.224400
     10 C10        -4.5830   -1.1590    0.8290 cc        1 TT1      0.414800
     11 N19        -5.2480    0.0440    0.7730 nd        1 TT1     -0.354000
     12 N18        -6.5360   -0.1610    0.8460 nd        1 TT1     -0.332000
     13 C12        -6.7870   -1.5150    0.9440 cc        1 TT1      0.457000
     14 C13        -8.0910   -2.1080    1.0660 cc        1 TT1     -0.147600
     15 C17        -9.2630   -1.3660    1.0980 cd        1 TT1     -0.107000
     16 C16       -10.4150   -2.1970    1.2460 cd        1 TT1     -0.157000
     17 C15       -10.0770   -3.5300    1.3210 cc        1 TT1     -0.158100
     18 S14        -8.4280   -3.7590    1.2090 ss        1 TT1     -0.004800
     19 N11        -5.5420   -2.1840    0.9480 na        1 TT1     -0.299700
     20 C1         -5.2530   -3.5900    0.9930 c3        1 TT1      0.080600
     21 C2         -5.0750   -4.2530   -0.3430 ca        1 TT1     -0.123300
     22 C7         -3.8780   -4.0920   -1.0500 ca        1 TT1     -0.107500
     23 C6         -3.6950   -4.7410   -2.2700 ca        1 TT1     -0.130000
     24 C5         -4.7030   -5.5540   -2.7890 ca        1 TT1     -0.115000
     25 C4         -5.8980   -5.7140   -2.0870 ca        1 TT1     -0.130000
     26 C3         -6.0860   -5.0630   -0.8690 ca        1 TT1     -0.107500
     27 H26        -0.5570    0.4850   -0.7940 ha        1 TT1      0.145000
     28 H25         1.9210    0.2520   -0.7830 ha        1 TT1      0.140000
     29 H24         3.1090   -0.3670    1.3280 ha        1 TT1      0.140000
     30 H23         1.8130   -0.7480    3.4200 ha        1 TT1      0.150000
     31 H8         -2.5450    0.9290    0.4930 h1        1 TT1      0.097700
     32 H8A        -2.6710    0.4910    2.2370 h1        1 TT1      0.097700
     33 H17        -9.3120   -0.2760    1.0230 ha        1 TT1      0.178000
     34 H16       -11.4320   -1.8010    1.2920 ha        1 TT1      0.159000
     35 H15       -10.7760   -4.3570    1.4370 h4        1 TT1      0.173000
     36 H1         -4.2940   -3.7140    1.5860 h1        1 TT1      0.079200
     37 H1A        -6.0850   -4.1010    1.5650 h1        1 TT1      0.079200
     38 H7         -3.0830   -3.4430   -0.6430 ha        1 TT1      0.141500
     39 H6         -2.7530   -4.6090   -2.8230 ha        1 TT1      0.136500
     40 H5         -4.5570   -6.0660   -3.7510 ha        1 TT1      0.135000
     41 H4         -6.6970   -6.3500   -2.4970 ha        1 TT1      0.136500
     42 H3         -7.0360   -5.1820   -0.3220 ha        1 TT1      0.141500
@<TRIPOS>BOND
     1    1    2 ar  
     2    1    7 ar  
     3    1   27 1   
     4    2    3 ar  
     5    2   28 1   
     6    3    4 ar  
     7    3   29 1   
     8    4    5 ar  
     9    4   30 1   
    10    5    6 1   
    11    5    7 ar  
    12    7    8 1   
    13    8    9 1   
    14    8   31 1   
    15    8   32 1   
    16    9   10 1   
    17   10   11 2   
    18   10   19 1   
    19   11   12 1   
    20   12   13 2   
    21   13   14 1   
    22   13   19 1   
    23   14   15 2   
    24   14   18 1   
    25   15   16 1   
    26   15   33 1   
    27   16   17 2   
    28   16   34 1   
    29   17   18 1   
    30   17   35 1   
    31   19   20 1   
    32   20   21 1   
    33   20   36 1   
    34   20   37 1   
    35   21   22 ar  
    36   21   26 ar  
    37   22   23 ar  
    38   22   38 1   
    39   23   24 ar  
    40   23   39 1   
    41   24   25 ar  
    42   24   40 1   
    43   25   26 ar  
    44   25   41 1   
    45   26   42 1   
@<TRIPOS>SUBSTRUCTURE
     1 TT1         1 TEMP              0 ****  ****    0 ROOT
