@<TRIPOS>MOLECULE
TT1
   42    45     1     0     0
SMALL
bcc


@<TRIPOS>ATOM
      1 C26        -4.5530   -0.7680    1.3700 ca        1 TT1     -0.104000
      2 C25        -5.7740   -1.3390    1.0230 ca        1 TT1     -0.131000
      3 C24        -6.4330   -0.9270   -0.1360 ca        1 TT1     -0.112000
      4 C23        -5.8690    0.0560   -0.9450 ca        1 TT1     -0.128000
      5 C21        -4.6400    0.6290   -0.5970 ca        1 TT1      0.033400
      6 CL22       -3.9970    1.8290   -1.6160 cl        1 TT1     -0.084400
      7 C20        -3.9660    0.2210    0.5660 ca        1 TT1     -0.082300
      8 C8         -2.6760    0.8120    0.9840 c3        1 TT1      0.025000
      9 S9         -1.4050   -0.2130    0.2710 ss        1 TT1     -0.224400
     10 C10         0.0130    0.5680    0.7410 cc        1 TT1      0.414800
     11 N19         0.1820    1.4740    1.7630 nd        1 TT1     -0.354000
     12 N18         1.4260    1.8710    1.7990 nd        1 TT1     -0.332000
     13 C12         2.1450    1.2380    0.8050 cc        1 TT1      0.457000
     14 C13         3.5420    1.4490    0.5310 cc        1 TT1     -0.147600
     15 C17         4.3290    2.3410    1.2450 cd        1 TT1     -0.107000
     16 C16         5.6710    2.3730    0.7580 cd        1 TT1     -0.157000
     17 C15         5.8510    1.5120   -0.3000 cc        1 TT1     -0.158100
     18 S14         4.4470    0.6930   -0.6800 ss        1 TT1     -0.004800
     19 N11         1.2550    0.3990    0.0980 na        1 TT1     -0.299700
     20 C1          1.5080   -0.4980   -0.9960 c3        1 TT1      0.080600
     21 C2          1.7920   -1.9210   -0.6080 ca        1 TT1     -0.123300
     22 C7          0.7420   -2.7690   -0.2410 ca        1 TT1     -0.107500
     23 C6          0.9980   -4.1020    0.0780 ca        1 TT1     -0.130000
     24 C5          2.3030   -4.5940    0.0310 ca        1 TT1     -0.115000
     25 C4          3.3520   -3.7490   -0.3320 ca        1 TT1     -0.130000
     26 C3          3.0990   -2.4150   -0.6480 ca        1 TT1     -0.107500
     27 H26        -4.0360   -1.0920    2.2870 ha        1 TT1      0.145000
     28 H25        -6.2190   -2.1140    1.6640 ha        1 TT1      0.140000
     29 H24        -7.3980   -1.3760   -0.4120 ha        1 TT1      0.140000
     30 H23        -6.3890    0.3840   -1.8590 ha        1 TT1      0.150000
     31 H8         -2.5670    1.8700    0.6360 h1        1 TT1      0.097700
     32 H8A        -2.5790    0.8170    2.0990 h1        1 TT1      0.097700
     33 H17         3.9750    2.9530    2.0810 ha        1 TT1      0.178000
     34 H16         6.4440    3.0140    1.1900 ha        1 TT1      0.159000
     35 H15         6.7820    1.3580   -0.8430 h4        1 TT1      0.173000
     36 H1          0.5870   -0.4830   -1.6580 h1        1 TT1      0.079200
     37 H1A         2.3740   -0.0850   -1.5940 h1        1 TT1      0.079200
     38 H7         -0.2900   -2.3780   -0.1970 ha        1 TT1      0.141500
     39 H6          0.1690   -4.7640    0.3680 ha        1 TT1      0.136500
     40 H5          2.5040   -5.6450    0.2820 ha        1 TT1      0.135000
     41 H4          4.3820   -4.1340   -0.3650 ha        1 TT1      0.136500
     42 H3          3.9320   -1.7470   -0.9230 ha        1 TT1      0.141500
@<TRIPOS>BOND
     1    1    2 ar  
     2    1    7 ar  
     3    1   27 1   
     4    2    3 ar  
     5    2   28 1   
     6    3    4 ar  
     7    3   29 1   
     8    4    5 ar  
     9    4   30 1   
    10    5    6 1   
    11    5    7 ar  
    12    7    8 1   
    13    8    9 1   
    14    8   31 1   
    15    8   32 1   
    16    9   10 1   
    17   10   11 2   
    18   10   19 1   
    19   11   12 1   
    20   12   13 2   
    21   13   14 1   
    22   13   19 1   
    23   14   15 2   
    24   14   18 1   
    25   15   16 1   
    26   15   33 1   
    27   16   17 2   
    28   16   34 1   
    29   17   18 1   
    30   17   35 1   
    31   19   20 1   
    32   20   21 1   
    33   20   36 1   
    34   20   37 1   
    35   21   22 ar  
    36   21   26 ar  
    37   22   23 ar  
    38   22   38 1   
    39   23   24 ar  
    40   23   39 1   
    41   24   25 ar  
    42   24   40 1   
    43   25   26 ar  
    44   25   41 1   
    45   26   42 1   
@<TRIPOS>SUBSTRUCTURE
     1 TT1         1 TEMP              0 ****  ****    0 ROOT
