@<TRIPOS>MOLECULE
TT4
   22    23     1     0     0
SMALL
bcc


@<TRIPOS>ATOM
      1 CAF        -0.0190   -0.0990   -0.0070 ca        1 TT4     -0.130500
      2 CAD         1.3720   -0.1320   -0.0210 ca        1 TT4     -0.122500
      3 CAC         2.0980   -0.0300    1.1650 ca        1 TT4     -0.131000
      4 CAE         1.4240    0.1220    2.3760 ca        1 TT4     -0.122500
      5 CAG         0.0330    0.1690    2.4150 ca        1 TT4     -0.130500
      6 CAK        -0.7040    0.0400    1.2190 ca        1 TT4      0.021800
      7 NAM        -2.1240    0.0590    1.2440 na        1 TT4     -0.013500
      8 NAI        -2.8810    0.7520    0.3630 nc        1 TT4     -0.565800
      9 CAJ        -4.1880    0.4890    0.7390 cd        1 TT4      0.731900
     10 NAA        -5.3150    1.1050    0.1740 nv        1 TT4     -0.877500
     11 NAH        -4.2750   -0.4100    1.8480 nd        1 TT4     -0.752000
     12 CAL        -2.9630   -0.6560    2.1590 cc        1 TT4      0.642400
     13 NAB        -2.4820   -1.4110    3.2370 nv        1 TT4     -0.895500
     14 H1         -0.5780   -0.1690   -0.9540 ha        1 TT4      0.155500
     15 H2          1.9000   -0.2390   -0.9810 ha        1 TT4      0.138000
     16 H3          3.1970   -0.0620    1.1450 ha        1 TT4      0.137000
     17 H4          1.9930    0.2190    3.3130 ha        1 TT4      0.138000
     18 H5         -0.4750    0.3310    3.3790 ha        1 TT4      0.155500
     19 H6         -6.1570    0.5890    0.3240 hn        1 TT4      0.400800
     20 H7         -5.1820    1.3670   -0.7800 hn        1 TT4      0.400800
     21 H8         -1.6200   -1.8770    3.0430 hn        1 TT4      0.410300
     22 H9         -3.1780   -2.0100    3.6310 hn        1 TT4      0.410300
@<TRIPOS>BOND
     1    1    2 ar  
     2    1    6 ar  
     3    1   14 1   
     4    2    3 ar  
     5    2   15 1   
     6    3    4 ar  
     7    3   16 1   
     8    4    5 ar  
     9    4   17 1   
    10    5    6 ar  
    11    5   18 1   
    12    6    7 1   
    13    7    8 1   
    14    7   12 1   
    15    8    9 2   
    16    9   10 1   
    17    9   11 1   
    18   10   19 1   
    19   10   20 1   
    20   11   12 2   
    21   12   13 1   
    22   13   21 1   
    23   13   22 1   
@<TRIPOS>SUBSTRUCTURE
     1 TT4         1 TEMP              0 ****  ****    0 ROOT
