@<TRIPOS>MOLECULE
TT4
   22    23     1     0     0
SMALL
bcc


@<TRIPOS>ATOM
      1 CAF        -0.0140   -0.0370    0.0190 ca        1 TT4     -0.130500
      2 CAD         1.3780   -0.0690    0.0130 ca        1 TT4     -0.123000
      3 CAC         2.0960    0.0010    1.2060 ca        1 TT4     -0.131000
      4 CAE         1.4150    0.1180    2.4160 ca        1 TT4     -0.123000
      5 CAG         0.0240    0.1630    2.4480 ca        1 TT4     -0.130500
      6 CAK        -0.7060    0.0680    1.2450 ca        1 TT4      0.018800
      7 NAM        -2.1260    0.0970    1.2700 na        1 TT4     -0.009500
      8 NAI        -2.8780    0.7580    0.3600 nc        1 TT4     -0.566800
      9 CAJ        -4.1820    0.3890    0.6440 cd        1 TT4      0.730900
     10 NAA        -5.3010    0.7820   -0.1090 nh        1 TT4     -0.876500
     11 NAH        -4.2720   -0.5310    1.7350 nd        1 TT4     -0.751000
     12 CAL        -2.9650   -0.7150    2.1030 cc        1 TT4      0.639400
     13 NAB        -2.4930   -1.4700    3.1850 nh        1 TT4     -0.895500
     14 H1         -0.5660   -0.0840   -0.9330 ha        1 TT4      0.156500
     15 H2          1.9110   -0.1500   -0.9470 ha        1 TT4      0.138500
     16 H3          3.1950   -0.0300    1.1910 ha        1 TT4      0.137000
     17 H4          1.9780    0.1880    3.3590 ha        1 TT4      0.138500
     18 H5         -0.4910    0.2950    3.4130 ha        1 TT4      0.156500
     19 H6         -6.1560    0.7070    0.4020 hn        1 TT4      0.400300
     20 H7         -5.1850    1.6750   -0.5410 hn        1 TT4      0.400300
     21 H8         -1.6030   -1.8920    3.0140 hn        1 TT4      0.410300
     22 H9         -3.1750   -2.1110    3.5350 hn        1 TT4      0.410300
@<TRIPOS>BOND
     1    1    2 ar  
     2    1    6 ar  
     3    1   14 1   
     4    2    3 ar  
     5    2   15 1   
     6    3    4 ar  
     7    3   16 1   
     8    4    5 ar  
     9    4   17 1   
    10    5    6 ar  
    11    5   18 1   
    12    6    7 1   
    13    7    8 1   
    14    7   12 1   
    15    8    9 2   
    16    9   10 1   
    17    9   11 1   
    18   10   19 1   
    19   10   20 1   
    20   11   12 2   
    21   12   13 1   
    22   13   21 1   
    23   13   22 1   
@<TRIPOS>SUBSTRUCTURE
     1 TT4         1 TEMP              0 ****  ****    0 ROOT
