@<TRIPOS>MOLECULE
TT8
   48    50     1     0     0
SMALL
bcc


@<TRIPOS>ATOM
      1 C          -6.6420   -1.7280    0.2780 c         1 TT8      0.890600
      2 N          -5.6550    0.3650    1.3370 n3        1 TT8     -0.895800
      3 O          -7.3140   -1.8540    1.3400 o         1 TT8     -0.837800
      4 C1          6.3120   -3.6550    0.3070 c3        1 TT8      0.203100
      5 N1          5.8180   -0.8200    0.3710 nb        1 TT8     -0.791000
      6 C2          5.4920    0.5000    0.4400 ca        1 TT8      0.673900
      7 N3          4.2840    1.1050    0.3910 nb        1 TT8     -0.752000
      8 C4          3.2570    0.2100    0.2560 ca        1 TT8      0.434800
      9 C5          3.4450   -1.2330    0.1640 ca        1 TT8     -0.212200
     10 C6          4.7930   -1.7210    0.2150 ca        1 TT8      0.741200
     11 N6          5.0310   -3.0740    0.0530 nh        1 TT8     -0.851900
     12 N7          2.2000   -1.8690    0.0410 nc        1 TT8     -0.558100
     13 C8          1.2920   -0.8820    0.0550 cd        1 TT8      0.436700
     14 N9          1.8720    0.4060    0.1740 na        1 TT8     -0.293000
     15 CA         -5.6890   -0.4900    0.1570 c3        1 TT8      0.018500
     16 CB         -4.3050   -0.9960   -0.2610 c3        1 TT8     -0.061400
     17 SD         -1.8840   -0.5630   -1.2720 ss        1 TT8     -0.323200
     18 CG         -3.4070    0.1400   -0.6710 c3        1 TT8      0.019700
     19 C1'         1.2140    1.6850    0.3270 c3        1 TT8      0.219800
     20 C2'         1.5770    2.7170   -0.7940 c3        1 TT8      0.077100
     21 O2'         2.0160    3.9180   -0.1980 oh        1 TT8     -0.591800
     22 C3'         0.2450    2.9930   -1.5310 c3        1 TT8      0.127100
     23 O3'        -0.2070    4.3170   -1.3920 oh        1 TT8     -0.574800
     24 C4'        -0.7550    1.9740   -0.9330 c3        1 TT8      0.094100
     25 O4'        -0.2030    1.5310    0.3170 os        1 TT8     -0.383600
     26 C5'        -0.9970    0.8270   -1.8940 c3        1 TT8     -0.047300
     27 OXT        -6.6980   -2.5130   -0.7070 o         1 TT8     -0.837800
     28 HN         -6.6060    0.4750    1.6500 hn        1 TT8      0.333800
     29 HNA        -5.1760   -0.1270    2.0720 hn        1 TT8      0.333800
     30 H1          6.6040   -3.5740    1.3900 h1        1 TT8      0.041367
     31 H1A         6.2730   -4.7390    0.0210 h1        1 TT8      0.041367
     32 H1B         7.0980   -3.1410   -0.3080 h1        1 TT8      0.041367
     33 HN6         4.2330   -3.6650    0.1380 hn        1 TT8      0.450800
     34 HA         -6.1000    0.1430   -0.6830 h1        1 TT8      0.040700
     35 HB         -3.8370   -1.5730    0.5790 hc        1 TT8      0.064700
     36 HBA        -4.4630   -1.7080   -1.1170 hc        1 TT8      0.064700
     37 HG         -3.8820    0.7460   -1.4790 h1        1 TT8      0.060700
     38 HGA        -3.1920    0.8130    0.1930 h1        1 TT8      0.060700
     39 H1'         1.4680    2.0990    1.3500 h2        1 TT8      0.100700
     40 H2'         2.3510    2.3220   -1.5020 h1        1 TT8      0.075700
     41 HO2'        2.9070    3.7490    0.1380 ho        1 TT8      0.427000
     42 H3'         0.3630    2.8490   -2.6390 h1        1 TT8      0.092700
     43 HO3'       -0.1350    4.5590   -0.4590 ho        1 TT8      0.421000
     44 H4'        -1.7260    2.4680   -0.6480 h1        1 TT8      0.107700
     45 H5'        -0.0200    0.3990   -2.2350 h1        1 TT8      0.073200
     46 H5'A       -1.5270    1.2440   -2.7870 h1        1 TT8      0.073200
     47 H2          6.3610    1.1820    0.5570 h5        1 TT8      0.043100
     48 H8          0.1880   -0.9940   -0.0300 h5        1 TT8      0.125800
@<TRIPOS>BOND
     1    1    3 1   
     2    1   15 1   
     3    1   27 1   
     4    2   15 1   
     5    2   28 1   
     6    2   29 1   
     7    4   11 1   
     8    4   30 1   
     9    4   31 1   
    10    4   32 1   
    11    5    6 ar  
    12    5   10 ar  
    13    6    7 ar  
    14    6   47 1   
    15    7    8 ar  
    16    8    9 ar  
    17    8   14 1   
    18    9   10 ar  
    19    9   12 1   
    20   10   11 1   
    21   11   33 1   
    22   12   13 2   
    23   13   14 1   
    24   13   48 1   
    25   14   19 1   
    26   15   16 1   
    27   15   34 1   
    28   16   18 1   
    29   16   35 1   
    30   16   36 1   
    31   17   18 1   
    32   17   26 1   
    33   18   37 1   
    34   18   38 1   
    35   19   20 1   
    36   19   25 1   
    37   19   39 1   
    38   20   21 1   
    39   20   22 1   
    40   20   40 1   
    41   21   41 1   
    42   22   23 1   
    43   22   24 1   
    44   22   42 1   
    45   23   43 1   
    46   24   25 1   
    47   24   26 1   
    48   24   44 1   
    49   26   45 1   
    50   26   46 1   
@<TRIPOS>SUBSTRUCTURE
     1 TT8         1 TEMP              0 ****  ****    0 ROOT
