@<TRIPOS>MOLECULE
TT8
   50    52     1     0     0
SMALL
bcc


@<TRIPOS>ATOM
      1 C           3.3610   -3.9130    3.0280 c         1 TT8      0.903600
      2 N           1.9260   -2.0300    2.2370 n4        1 TT8     -0.831600
      3 O           2.5790   -3.9890    4.0220 o         1 TT8     -0.800300
      4 C1          4.3750   -6.6820    6.3350 c3        1 TT8      0.093100
      5 N1          6.8530   -5.4930    4.8540 nb        1 TT8     -0.675000
      6 C2          8.0030   -4.7630    4.7890 ca        1 TT8      0.670900
      7 N3          8.2270   -3.4870    5.1930 nb        1 TT8     -0.664000
      8 C4          7.1570   -2.8990    5.7850 ca        1 TT8      0.448800
      9 C5          5.8600   -3.5900    5.9500 ca        1 TT8     -0.148200
     10 C6          5.7700   -4.8880    5.4050 ca        1 TT8      0.582200
     11 N6          4.4650   -5.5740    5.3650 n4        1 TT8     -0.758700
     12 N7          4.9570   -2.7560    6.6250 nc        1 TT8     -0.563100
     13 C8          5.6390   -1.6250    6.8550 cd        1 TT8      0.484700
     14 N9          6.9840   -1.6420    6.3940 na        1 TT8     -0.269000
     15 CA          3.2990   -2.6230    2.1500 c3        1 TT8     -0.008500
     16 CB          4.3790   -1.6770    2.6720 c3        1 TT8     -0.101400
     17 SD          5.8910    0.5630    2.3640 ss        1 TT8     -0.236200
     18 CG          4.8640   -0.6810    1.6520 c3        1 TT8     -0.041300
     19 C1'         7.7570   -0.4190    6.2640 c3        1 TT8      0.202800
     20 C2'         9.2640   -0.5740    5.9000 c3        1 TT8      0.094100
     21 O2'        10.0380    0.2210    6.7610 oh        1 TT8     -0.570800
     22 C3'         9.3570   -0.0960    4.4300 c3        1 TT8      0.085100
     23 O3'        10.2680    0.9800    4.3220 oh        1 TT8     -0.584800
     24 C4'         7.9620    0.4660    4.0730 c3        1 TT8      0.145100
     25 O4'         7.1670    0.4210    5.2690 os        1 TT8     -0.410600
     26 C5'         7.3140   -0.3190    2.9500 c3        1 TT8     -0.041300
     27 OXT         4.2260   -4.7710    2.7350 o         1 TT8     -0.800300
     28 HN          1.3190   -2.4530    1.5330 hn        1 TT8      0.458467
     29 HNA         1.9550   -1.0180    2.1100 hn        1 TT8      0.458467
     30 H1          4.5250   -6.2900    7.3760 hx        1 TT8      0.101033
     31 H1A         5.1590   -7.4530    6.1070 hx        1 TT8      0.101033
     32 H1B         3.3540   -7.1440    6.2490 hx        1 TT8      0.101033
     33 HN6         3.7140   -4.8690    5.5270 hn        1 TT8      0.507800
     34 HA          3.5010   -2.8940    1.0740 hx        1 TT8      0.117700
     35 HB          5.2410   -2.3370    2.9760 hc        1 TT8      0.084700
     36 HBA         4.0290   -1.1470    3.5990 hc        1 TT8      0.084700
     37 HG          4.0150   -0.1020    1.2070 h1        1 TT8      0.079200
     38 HGA         5.3880   -1.2110    0.8190 h1        1 TT8      0.079200
     39 H1'         7.6340    0.1420    7.2430 h2        1 TT8      0.122700
     40 H2'         9.6610   -1.6130    6.0460 h1        1 TT8      0.128700
     41 HO2'        9.8920    1.1530    6.5320 ho        1 TT8      0.428000
     42 H3'         9.6560   -0.9390    3.7550 h1        1 TT8      0.076700
     43 HO3'       11.1470    0.6310    4.5260 ho        1 TT8      0.431000
     44 H4'         8.0260    1.5620    3.8090 h1        1 TT8      0.123700
     45 H5'         7.0390   -1.3420    3.3000 h1        1 TT8      0.075700
     46 H5'A        8.0490   -0.4240    2.1120 h1        1 TT8      0.075700
     47 H8          5.2350   -0.7390    7.3710 h5        1 TT8      0.101800
     48 HN3         1.5520   -2.2590    3.1770 hn        1 TT8      0.458467
     49 H62         4.3150   -5.9210    4.3860 hn        1 TT8      0.507800
     50 H2          8.8700   -5.2870    4.3250 h5        1 TT8      0.089100
@<TRIPOS>BOND
     1    1    3 1   
     2    1   15 1   
     3    1   27 1   
     4    2   15 1   
     5    2   28 1   
     6    2   29 1   
     7    2   48 1   
     8    4   11 1   
     9    4   30 1   
    10    4   31 1   
    11    4   32 1   
    12    5    6 ar  
    13    5   10 ar  
    14    6    7 ar  
    15    6   50 1   
    16    7    8 ar  
    17    8    9 ar  
    18    8   14 1   
    19    9   10 ar  
    20    9   12 1   
    21   10   11 1   
    22   11   33 1   
    23   11   49 1   
    24   12   13 2   
    25   13   14 1   
    26   13   47 1   
    27   14   19 1   
    28   15   16 1   
    29   15   34 1   
    30   16   18 1   
    31   16   35 1   
    32   16   36 1   
    33   17   18 1   
    34   17   26 1   
    35   18   37 1   
    36   18   38 1   
    37   19   20 1   
    38   19   25 1   
    39   19   39 1   
    40   20   21 1   
    41   20   22 1   
    42   20   40 1   
    43   21   41 1   
    44   22   23 1   
    45   22   24 1   
    46   22   42 1   
    47   23   43 1   
    48   24   25 1   
    49   24   26 1   
    50   24   44 1   
    51   26   45 1   
    52   26   46 1   
@<TRIPOS>SUBSTRUCTURE
     1 TT8         1 TEMP              0 ****  ****    0 ROOT
