@<TRIPOS>MOLECULE
TT8
   48    42     1     0     0
SMALL
bcc


@<TRIPOS>ATOM
      1 C          -3.3320    5.2020   -5.3240 c1        1 TT8      0.309000
      2 N          -1.0140    5.7770   -5.2660 n3        1 TT8     -0.330000
      3 O          -3.7910    6.2310   -4.7760 o         1 TT8     -0.577500
      4 C1         -0.1850   -7.1030    4.4250 c3        1 TT8     -0.076000
      5 N1          0.2130   -4.2400    5.1830 n1        1 TT8     -0.266000
      6 C2          0.6600   -2.9670    5.4070 c1        1 TT8      0.005000
      7 N3          0.8330   -2.1050    4.3550 n1        1 TT8     -0.190000
      8 C4          0.5600   -2.5160    3.0840 c1        1 TT8      0.068000
      9 C5          0.1180   -3.7740    2.8610 c1        1 TT8     -0.229000
     10 C6         -0.0570   -4.6480    3.9310 c1        1 TT8      0.211000
     11 N6         -0.6220   -5.9520    3.6620 n3        1 TT8     -0.293000
     12 N7         -0.0750   -3.9200    1.5200 n1        1 TT8     -0.157500
     13 C8          0.2490   -2.7490    0.9180 c1        1 TT8     -0.036000
     14 N9          0.6410   -1.8790    1.8800 n1        1 TT8     -0.157500
     15 CA         -1.9430    4.7330   -4.9980 c2        1 TT8     -0.127000
     16 CB         -1.8670    4.3510   -3.5250 c3        1 TT8     -0.150000
     17 SD         -1.0250    2.5890   -1.6520 ss        1 TT8      0.011000
     18 CG         -1.1790    3.0040   -3.3860 c3        1 TT8     -0.246000
     19 C1'         0.9490   -0.5410    1.6340 c2        1 TT8      0.116000
     20 C2'         2.1530   -0.4410    1.0990 c3        1 TT8     -0.011000
     21 O2'         3.1560   -0.1770    2.1480 oh        1 TT8     -0.319000
     22 C3'         2.0630    0.7620    0.1310 c3        1 TT8     -0.019000
     23 O3'         2.7170    1.8040    0.6310 oh        1 TT8     -0.357000
     24 C4'         0.5210    1.0920    0.0040 c3        1 TT8      0.002000
     25 O4'        -0.0880    0.0820    0.5410 os        1 TT8     -0.272000
     26 C5'         0.1280    1.2290   -1.4640 c3        1 TT8     -0.289000
     27 OXT        -4.0130    4.5940   -6.1870 o         1 TT8     -0.577500
     28 HN         -1.3590    6.3380   -5.9050 hn        1 TT8      0.128000
     29 HNA        -0.2240    5.4150   -5.5700 hn        1 TT8      0.128000
     30 H1         -0.3180   -6.9320    5.3790 h1        1 TT8      0.078333
     31 H1A         0.7710   -7.2680    4.2520 h1        1 TT8      0.078333
     32 H1B        -0.7070   -7.8920    4.1580 h1        1 TT8      0.078333
     33 H2          0.9810   -2.7390    6.3050 ha        1 TT8      0.180000
     34 HN6        -1.2710   -6.0460    3.0260 hn        1 TT8      0.236000
     35 H8          0.2640   -2.5830   -0.0500 DU        1 TT8      0.211000
     36 HA         -1.7240    3.9520   -5.5490 h4        1 TT8      0.090000
     37 HB         -1.3590    5.0280   -3.0380 hc        1 TT8      0.093500
     38 HBA        -2.7730    4.2940   -3.1550 hc        1 TT8      0.093500
     39 HG         -1.7080    2.3190   -3.8400 h1        1 TT8      0.109500
     40 HGA        -0.2950    3.0490   -3.7880 h1        1 TT8      0.109500
     41 H1'         0.9080   -0.0270    2.4660 h4        1 TT8      0.162000
     42 H2'         2.3770   -1.2570    0.6090 h1        1 TT8      0.127000
     43 HO2'        3.9680   -0.4080    1.8490 ho        1 TT8      0.230000
     44 H3'         2.4300    0.5190   -0.7460 h1        1 TT8      0.156000
     45 HO3'        3.3250    2.0850    0.0410 ho        1 TT8      0.278000
     46 H4'         0.3100    1.9130    0.4900 h1        1 TT8      0.149000
     47 H5'         0.9280    1.4030   -2.0020 h1        1 TT8      0.122000
     48 H5'A       -0.2940    0.4000   -1.7660 h1        1 TT8      0.122000
@<TRIPOS>BOND
     1    1    3 1   
     2    1   27 1   
     3    2   15 1   
     4    2   28 1   
     5    2   29 1   
     6    4   11 1   
     7    4   30 1   
     8    4   31 1   
     9    4   32 1   
    10    5    6 1   
    11    6   33 1   
    12    7    8 1   
    13    9   10 1   
    14   10   11 1   
    15   11   34 1   
    16   12   13 1   
    17   13   14 1   
    18   15   16 1   
    19   15   36 1   
    20   16   18 1   
    21   16   37 1   
    22   16   38 1   
    23   17   18 1   
    24   17   26 1   
    25   18   39 1   
    26   18   40 1   
    27   19   20 1   
    28   19   25 1   
    29   19   41 1   
    30   20   21 1   
    31   20   22 1   
    32   20   42 1   
    33   21   43 1   
    34   22   23 1   
    35   22   24 1   
    36   22   44 1   
    37   23   45 1   
    38   24   25 1   
    39   24   26 1   
    40   24   46 1   
    41   26   47 1   
    42   26   48 1   
@<TRIPOS>SUBSTRUCTURE
     1 TT8         1 TEMP              0 ****  ****    0 ROOT
