@<TRIPOS>MOLECULE
TT8
   49    51     1     0     0
SMALL
bcc


@<TRIPOS>ATOM
      1 C           3.6530    0.2730   -1.1010 c         1 TT8      0.937600
      2 N           4.2450    0.9390    1.2690 nz        1 TT8     -0.839600
      3 O           3.6040   -0.6310   -1.9510 o         1 TT8     -0.760800
      4 C1          9.0530   -8.0430    7.7330 c3        1 TT8      0.205100
      5 N1          9.7780   -5.4690    6.6720 nb        1 TT8     -0.785000
      6 C2         10.0460   -4.2260    6.1970 ca        1 TT8      0.693900
      7 N3          9.2350   -3.1490    6.0560 nb        1 TT8     -0.765000
      8 C4          7.9590   -3.4020    6.4760 ca        1 TT8      0.450800
      9 C5          7.5140   -4.6830    7.0090 ca        1 TT8     -0.226200
     10 C6          8.4920   -5.7350    7.0850 ca        1 TT8      0.761200
     11 N6          8.1190   -6.9790    7.5320 nu        1 TT8     -0.852900
     12 N7          6.1570   -4.6110    7.3590 nc        1 TT8     -0.539100
     13 C8          5.7800   -3.3610    7.0610 cd        1 TT8      0.418700
     14 N9          6.8230   -2.5770    6.5040 na        1 TT8     -0.302000
     15 CA          3.9590   -0.2350    0.3970 c3        1 TT8     -0.077500
     16 CB          2.7680   -1.0570    0.8580 c3        1 TT8     -0.085400
     17 SD          2.7150   -0.7040    3.5070 ss        1 TT8     -0.322200
     18 CG          2.9990   -1.8120    2.1400 c3        1 TT8     -0.016300
     19 C1'         6.8160   -1.1690    6.1830 c3        1 TT8      0.230800
     20 C2'         7.2960   -0.8610    4.7260 c3        1 TT8      0.087100
     21 O2'         8.2220    0.2040    4.7640 oh        1 TT8     -0.599800
     22 C3'         6.0320   -0.3800    3.9840 c3        1 TT8      0.124100
     23 O3'         6.1770    0.8680    3.3440 oh        1 TT8     -0.623800
     24 C4'         4.9140   -0.3320    5.0490 c3        1 TT8      0.103100
     25 O4'         5.4990   -0.6300    6.3260 os        1 TT8     -0.401600
     26 C5'         3.7830   -1.3060    4.7800 c3        1 TT8     -0.044300
     27 OXT         3.5030    1.5150   -1.2160 o         1 TT8     -0.760800
     28 HN          5.2520    1.0940    1.3280 hn        1 TT8      0.451800
     29 HNA         3.8670    0.8040    2.2180 hn        1 TT8      0.451800
     30 H1          9.7850   -7.7950    8.5490 h1        1 TT8      0.049700
     31 H1A         8.4870   -8.9690    8.0150 h1        1 TT8      0.049700
     32 H1B         9.6310   -8.2380    6.7890 h1        1 TT8      0.049700
     33 HN6         7.2080   -7.0660    7.9210 hn        1 TT8      0.457800
     34 HA          4.8810   -0.8750    0.3560 hx        1 TT8      0.082700
     35 HB          2.5660   -1.7920    0.0240 hc        1 TT8      0.098700
     36 HBA         1.8530   -0.4110    0.9470 hc        1 TT8      0.098700
     37 HG          4.0300   -2.2370    2.1810 h1        1 TT8      0.074200
     38 HGA         2.2750   -2.6600    2.2190 h1        1 TT8      0.074200
     39 H1'         7.4530   -0.6150    6.9390 h2        1 TT8      0.109700
     40 H2'         7.7390   -1.7570    4.2170 h1        1 TT8      0.094700
     41 HO2'        9.0880   -0.1810    4.9590 ho        1 TT8      0.443000
     42 H3'         5.7710   -1.0940    3.1530 h1        1 TT8      0.084700
     43 HO3'        6.7050    1.4500    3.9080 ho        1 TT8      0.448000
     44 H4'         4.5100    0.7150    5.1540 h1        1 TT8      0.096700
     45 H5'         4.1780   -2.3210    4.5380 h1        1 TT8      0.092700
     46 H5'A        3.1620   -1.3960    5.7090 h1        1 TT8      0.092700
     47 H8          4.7820   -2.9310    7.2110 h5        1 TT8      0.083800
     48 HN3         3.8110    1.7630    0.8090 hn        1 TT8      0.451800
     49 H2         11.1000   -4.0720    5.8760 h5        1 TT8      0.054100
@<TRIPOS>BOND
     1    1    3 1   
     2    1   15 1   
     3    1   27 1   
     4    2   15 1   
     5    2   28 1   
     6    2   29 1   
     7    2   48 1   
     8    4   11 1   
     9    4   30 1   
    10    4   31 1   
    11    4   32 1   
    12    5    6 ar  
    13    5   10 ar  
    14    6    7 ar  
    15    6   49 1   
    16    7    8 ar  
    17    8    9 ar  
    18    8   14 1   
    19    9   10 ar  
    20    9   12 1   
    21   10   11 1   
    22   11   33 1   
    23   12   13 2   
    24   13   14 1   
    25   13   47 1   
    26   14   19 1   
    27   15   16 1   
    28   15   34 1   
    29   16   18 1   
    30   16   35 1   
    31   16   36 1   
    32   17   18 1   
    33   17   26 1   
    34   18   37 1   
    35   18   38 1   
    36   19   20 1   
    37   19   25 1   
    38   19   39 1   
    39   20   21 1   
    40   20   22 1   
    41   20   40 1   
    42   21   41 1   
    43   22   23 1   
    44   22   24 1   
    45   22   42 1   
    46   23   43 1   
    47   24   25 1   
    48   24   26 1   
    49   24   44 1   
    50   26   45 1   
    51   26   46 1   
@<TRIPOS>SUBSTRUCTURE
     1 TT8         1 TEMP              0 ****  ****    0 ROOT
