@<TRIPOS>MOLECULE
TT8
   49    51     1     0     0
SMALL
bcc


@<TRIPOS>ATOM
      1 C           3.5670    0.2620   -1.0690 c         1 TT8      0.937600
      2 N           4.2620    0.9470    1.2680 n4        1 TT8     -0.839600
      3 O           3.4580   -0.6550   -1.9010 o         1 TT8     -0.760800
      4 C1          8.9460   -8.0910    7.7450 c3        1 TT8      0.205100
      5 N1          9.7290   -5.5660    6.6110 nb        1 TT8     -0.785000
      6 C2         10.0270   -4.3420    6.1030 ca        1 TT8      0.693900
      7 N3          9.2520   -3.2390    5.9690 nb        1 TT8     -0.765000
      8 C4          7.9810   -3.4370    6.4350 ca        1 TT8      0.450800
      9 C5          7.5080   -4.6890    7.0070 ca        1 TT8     -0.226200
     10 C6          8.4480   -5.7760    7.0710 ca        1 TT8      0.761200
     11 N6          8.0460   -6.9970    7.5540 nh        1 TT8     -0.852900
     12 N7          6.1670   -4.5610    7.4000 nc        1 TT8     -0.539100
     13 C8          5.8270   -3.3030    7.0900 cd        1 TT8      0.418700
     14 N9          6.8780   -2.5690    6.4840 na        1 TT8     -0.302000
     15 CA          3.9030   -0.2310    0.4270 c3        1 TT8     -0.077500
     16 CB          2.6990   -0.9990    0.9420 c3        1 TT8     -0.085400
     17 SD          2.7460   -0.5980    3.5840 ss        1 TT8     -0.322200
     18 CG          2.9440   -1.7400    2.2300 c3        1 TT8     -0.016300
     19 C1'         6.9130   -1.1680    6.1360 c3        1 TT8      0.230800
     20 C2'         7.3560   -0.9040    4.6590 c3        1 TT8      0.087100
     21 O2'         8.3200    0.1260    4.6470 oh        1 TT8     -0.599800
     22 C3'         6.0860   -0.3890    3.9480 c3        1 TT8      0.124100
     23 O3'         6.2560    0.8400    3.2800 oh        1 TT8     -0.623800
     24 C4'         5.0060   -0.2810    5.0470 c3        1 TT8      0.103100
     25 O4'         5.6220   -0.5780    6.3110 os        1 TT8     -0.401600
     26 C5'         3.8320   -1.2160    4.8330 c3        1 TT8     -0.044300
     27 OXT         3.4600    1.5060   -1.2030 o         1 TT8     -0.760800
     28 HN          3.8430    1.7780    0.8060 hn        1 TT8      0.451800
     29 HNA         5.2750    1.0650    1.2920 hn        1 TT8      0.451800
     30 H1          9.7140   -7.8560    8.5310 h1        1 TT8      0.049700
     31 H1A         9.4840   -8.3250    6.7860 h1        1 TT8      0.049700
     32 H1B         8.3560   -8.9900    8.0640 h1        1 TT8      0.049700
     33 HN6         7.1460   -7.0430    7.9740 hn        1 TT8      0.457800
     34 HA          4.8000   -0.9060    0.3680 hx        1 TT8      0.082700
     35 HB          2.4430   -1.7410    0.1290 hc        1 TT8      0.098700
     36 HBA         1.8110   -0.3180    1.0480 hc        1 TT8      0.098700
     37 HG          2.1930   -2.5590    2.3480 h1        1 TT8      0.074200
     38 HGA         3.9600   -2.2020    2.2450 h1        1 TT8      0.074200
     39 H1'         7.5930   -0.6240    6.8610 h2        1 TT8      0.109700
     40 H2'         7.7480   -1.8250    4.1530 h1        1 TT8      0.094700
     41 HO2'        9.1770   -0.2880    4.8210 ho        1 TT8      0.443000
     42 H3'         5.7730   -1.1080    3.1410 h1        1 TT8      0.084700
     43 HO3'        6.8240    1.4130    3.8160 ho        1 TT8      0.448000
     44 H4'         4.6450    0.7820    5.1460 h1        1 TT8      0.096700
     45 H5'         4.1810   -2.2500    4.5980 h1        1 TT8      0.092700
     46 H5'A        3.2390   -1.2670    5.7840 h1        1 TT8      0.092700
     47 H8          4.8500   -2.8330    7.2650 h5        1 TT8      0.083800
     48 HN3         3.9090    0.8430    2.2310 hn        1 TT8      0.451800
     49 H2         11.0740   -4.2340    5.7450 h5        1 TT8      0.054100
@<TRIPOS>BOND
     1    1    3 1   
     2    1   15 1   
     3    1   27 1   
     4    2   15 1   
     5    2   28 1   
     6    2   29 1   
     7    2   48 1   
     8    4   11 1   
     9    4   30 1   
    10    4   31 1   
    11    4   32 1   
    12    5    6 ar  
    13    5   10 ar  
    14    6    7 ar  
    15    6   49 1   
    16    7    8 ar  
    17    8    9 ar  
    18    8   14 1   
    19    9   10 ar  
    20    9   12 1   
    21   10   11 1   
    22   11   33 1   
    23   12   13 2   
    24   13   14 1   
    25   13   47 1   
    26   14   19 1   
    27   15   16 1   
    28   15   34 1   
    29   16   18 1   
    30   16   35 1   
    31   16   36 1   
    32   17   18 1   
    33   17   26 1   
    34   18   37 1   
    35   18   38 1   
    36   19   20 1   
    37   19   25 1   
    38   19   39 1   
    39   20   21 1   
    40   20   22 1   
    41   20   40 1   
    42   21   41 1   
    43   22   23 1   
    44   22   24 1   
    45   22   42 1   
    46   23   43 1   
    47   24   25 1   
    48   24   26 1   
    49   24   44 1   
    50   26   45 1   
    51   26   46 1   
@<TRIPOS>SUBSTRUCTURE
     1 TT8         1 TEMP              0 ****  ****    0 ROOT
