@<TRIPOS>MOLECULE
TTB
   53    55     1     0     0
SMALL
bcc


@<TRIPOS>ATOM
      1 C          -1.1720   -1.3490    0.9430 c3        1 TTB     -0.049900
      2 C2         -0.0500   -0.4370    0.6110 ce        1 TTB     -0.110400
      3 C3          0.6900    0.2040    1.5390 cf        1 TTB     -0.053200
      4 C4          0.5330    0.1510    2.9810 ca        1 TTB     -0.109800
      5 C5         -0.7240    0.1620    3.6000 ca        1 TTB     -0.140000
      6 C6         -0.8270    0.1350    4.9890 ca        1 TTB     -0.115500
      7 C7          0.3190    0.0920    5.7880 ca        1 TTB     -0.108600
      8 C8          0.2040    0.0550    7.3060 c         1 TTB      0.906200
      9 O          -0.9550    0.0570    7.8100 o         1 TTB     -0.828300
     10 O1          1.2720    0.0230    7.9780 o         1 TTB     -0.828300
     11 C9          1.5760    0.0900    5.1720 ca        1 TTB     -0.115500
     12 C10         1.6850    0.1270    3.7860 ca        1 TTB     -0.140000
     13 C11         0.2320   -0.2640   -0.8160 ca        1 TTB     -0.024800
     14 C12         1.5480   -0.1640   -1.2880 ca        1 TTB     -0.130000
     15 C13         1.7930   -0.0140   -2.6470 ca        1 TTB     -0.131000
     16 C14         0.7460    0.0430   -3.5790 ca        1 TTB     -0.075300
     17 C15        -0.5780   -0.0240   -3.1140 ca        1 TTB     -0.062300
     18 C16        -0.8140   -0.1960   -1.7430 ca        1 TTB     -0.128000
     19 C17        -1.7700    0.0720   -4.0300 c3        1 TTB     -0.003700
     20 C18        -2.4270   -1.3000   -4.1470 c3        1 TTB     -0.084100
     21 C19        -2.7940    1.0580   -3.4670 c3        1 TTB     -0.084100
     22 C20        -1.3660    0.5750   -5.4160 c3        1 TTB     -0.068400
     23 C21        -0.1160   -0.0940   -5.9280 c3        1 TTB     -0.067400
     24 C22         1.0960    0.1810   -5.0360 c3        1 TTB     -0.001700
     25 C23         1.6210    1.5900   -5.2970 c3        1 TTB     -0.083100
     26 C24         2.1830   -0.8230   -5.4200 c3        1 TTB     -0.083100
     27 H1         -1.0330   -1.7920    1.9610 hc        1 TTB      0.041033
     28 H2         -2.1430   -0.7910    0.9330 hc        1 TTB      0.041033
     29 H3A        -1.2390   -2.1790    0.1980 hc        1 TTB      0.041033
     30 H3          1.5290    0.8450    1.2030 ha        1 TTB      0.113000
     31 H5         -1.6340    0.2110    2.9850 ha        1 TTB      0.108500
     32 H6         -1.8100    0.1460    5.4880 ha        1 TTB      0.152500
     33 H9          2.4700    0.0600    5.8150 ha        1 TTB      0.152500
     34 H10         2.6760    0.1310    3.3120 ha        1 TTB      0.108500
     35 H12         2.3890   -0.2140   -0.5800 ha        1 TTB      0.136000
     36 H13         2.8340    0.0620   -2.9960 ha        1 TTB      0.123000
     37 H16        -1.8500   -0.2760   -1.3760 ha        1 TTB      0.134000
     38 H181       -2.7190   -1.6730   -3.1360 hc        1 TTB      0.035533
     39 H182       -3.3420   -1.2330   -4.7830 hc        1 TTB      0.035533
     40 H183       -1.7230   -2.0340   -4.6060 hc        1 TTB      0.035533
     41 H191       -3.3020    0.6350   -2.5680 hc        1 TTB      0.035533
     42 H192       -2.2950    2.0130   -3.1780 hc        1 TTB      0.035533
     43 H193       -3.5720    1.2750   -4.2370 hc        1 TTB      0.035533
     44 H201       -1.2050    1.6850   -5.3700 hc        1 TTB      0.039200
     45 H202       -2.2100    0.3890   -6.1310 hc        1 TTB      0.039200
     46 H211        0.1050    0.2680   -6.9660 hc        1 TTB      0.038200
     47 H212       -0.2820   -1.2030   -5.9880 hc        1 TTB      0.038200
     48 H231        2.5030    1.7970   -4.6440 hc        1 TTB      0.034033
     49 H232        1.9320    1.6920   -6.3640 hc        1 TTB      0.034033
     50 H233        0.8330    2.3490   -5.0770 hc        1 TTB      0.034033
     51 H241        3.1650   -0.5370   -4.9740 hc        1 TTB      0.034033
     52 H242        1.9120   -1.8440   -5.0610 hc        1 TTB      0.034033
     53 H243        2.2980   -0.8500   -6.5300 hc        1 TTB      0.034033
@<TRIPOS>BOND
     1    1    2 1   
     2    1   27 1   
     3    1   28 1   
     4    1   29 1   
     5    2    3 2   
     6    2   13 1   
     7    3    4 1   
     8    3   30 1   
     9    4    5 ar  
    10    4   12 ar  
    11    5    6 ar  
    12    5   31 1   
    13    6    7 ar  
    14    6   32 1   
    15    7    8 1   
    16    7   11 ar  
    17    8    9 1   
    18    8   10 1   
    19   11   12 ar  
    20   11   33 1   
    21   12   34 1   
    22   13   14 ar  
    23   13   18 ar  
    24   14   15 ar  
    25   14   35 1   
    26   15   16 ar  
    27   15   36 1   
    28   16   17 ar  
    29   16   24 1   
    30   17   18 ar  
    31   17   19 1   
    32   18   37 1   
    33   19   20 1   
    34   19   21 1   
    35   19   22 1   
    36   20   38 1   
    37   20   39 1   
    38   20   40 1   
    39   21   41 1   
    40   21   42 1   
    41   21   43 1   
    42   22   23 1   
    43   22   44 1   
    44   22   45 1   
    45   23   24 1   
    46   23   46 1   
    47   23   47 1   
    48   24   25 1   
    49   24   26 1   
    50   25   48 1   
    51   25   49 1   
    52   25   50 1   
    53   26   51 1   
    54   26   52 1   
    55   26   53 1   
@<TRIPOS>SUBSTRUCTURE
     1 TTB         1 TEMP              0 ****  ****    0 ROOT
