@<TRIPOS>MOLECULE
TTB
   53    55     1     0     0
SMALL
bcc


@<TRIPOS>ATOM
      1 C          -0.0390    0.6650   -0.2060 c3        1 TTB     -0.049900
      2 C2          1.3950    0.3380   -0.0180 ce        1 TTB     -0.110400
      3 C3          1.9600    0.1190    1.1870 cf        1 TTB     -0.053200
      4 C4          1.3130    0.1780    2.4850 ca        1 TTB     -0.109800
      5 C5          0.3760    1.1680    2.8140 ca        1 TTB     -0.140000
      6 C6         -0.2010    1.2000    4.0810 ca        1 TTB     -0.115500
      7 C7          0.1400    0.2470    5.0450 ca        1 TTB     -0.108600
      8 C8         -0.4990    0.2800    6.4260 c         1 TTB      0.906200
      9 O          -1.3440    1.1880    6.6640 o         1 TTB     -0.828300
     10 O1         -0.1490   -0.6020    7.2600 o         1 TTB     -0.828300
     11 C9          1.0810   -0.7370    4.7220 ca        1 TTB     -0.115500
     12 C10         1.6680   -0.7690    3.4620 ca        1 TTB     -0.140000
     13 C11         2.1970    0.2530   -1.2420 ca        1 TTB     -0.024800
     14 C12         3.1970   -0.7200   -1.3870 ca        1 TTB     -0.130000
     15 C13         3.9350   -0.7910   -2.5620 ca        1 TTB     -0.131000
     16 C14         3.7090    0.0960   -3.6260 ca        1 TTB     -0.075300
     17 C15         2.7320    1.0940   -3.4780 ca        1 TTB     -0.062300
     18 C16         1.9780    1.1450   -2.2970 ca        1 TTB     -0.128000
     19 C17         2.4460    2.1190   -4.5430 c3        1 TTB     -0.003700
     20 C18         1.1010    1.8070   -5.1940 c3        1 TTB     -0.084100
     21 C19         2.3790    3.5180   -3.9310 c3        1 TTB     -0.084100
     22 C20         3.5450    2.1370   -5.6060 c3        1 TTB     -0.068400
     23 C21         3.9550    0.7500   -6.0310 c3        1 TTB     -0.067400
     24 C22         4.5350   -0.0640   -4.8730 c3        1 TTB     -0.001700
     25 C23         5.9660    0.3840   -4.5910 c3        1 TTB     -0.083100
     26 C24         4.5590   -1.5280   -5.3110 c3        1 TTB     -0.083100
     27 H1         -0.1840    1.7740   -0.2440 hc        1 TTB      0.041033
     28 H2         -0.4220    0.2300   -1.1620 hc        1 TTB      0.041033
     29 H3A        -0.6510    0.2610    0.6400 hc        1 TTB      0.041033
     30 H3          3.0330   -0.1480    1.2340 ha        1 TTB      0.113000
     31 H5          0.1100    1.9330    2.0710 ha        1 TTB      0.108500
     32 H6         -0.9370    1.9750    4.3520 ha        1 TTB      0.152500
     33 H9          1.3430   -1.4800    5.4930 ha        1 TTB      0.152500
     34 H10         2.4110   -1.5420    3.2200 ha        1 TTB      0.108500
     35 H12         3.3890   -1.4330   -0.5720 ha        1 TTB      0.136000
     36 H13         4.7140   -1.5620   -2.6550 ha        1 TTB      0.123000
     37 H16         1.1920    1.9090   -2.1870 ha        1 TTB      0.134000
     38 H181        0.8520    2.5880   -5.9520 hc        1 TTB      0.035533
     39 H182        0.2960    1.7880   -4.4200 hc        1 TTB      0.035533
     40 H183        1.1300    0.8120   -5.6990 hc        1 TTB      0.035533
     41 H191        1.4530    3.6430   -3.3210 hc        1 TTB      0.035533
     42 H192        2.3680    4.2850   -4.7420 hc        1 TTB      0.035533
     43 H193        3.2650    3.6970   -3.2770 hc        1 TTB      0.035533
     44 H201        4.4370    2.6840   -5.2000 hc        1 TTB      0.039200
     45 H202        3.1800    2.7090   -6.4990 hc        1 TTB      0.039200
     46 H211        4.7210    0.8190   -6.8480 hc        1 TTB      0.038200
     47 H212        3.0670    0.2080   -6.4510 hc        1 TTB      0.038200
     48 H231        6.3920   -0.2050   -3.7430 hc        1 TTB      0.034033
     49 H232        5.9920    1.4650   -4.3180 hc        1 TTB      0.034033
     50 H233        6.6030    0.2240   -5.4940 hc        1 TTB      0.034033
     51 H241        5.1750   -2.1430   -4.6120 hc        1 TTB      0.034033
     52 H242        5.0040   -1.6100   -6.3320 hc        1 TTB      0.034033
     53 H243        3.5240   -1.9430   -5.3350 hc        1 TTB      0.034033
@<TRIPOS>BOND
     1    1    2 1   
     2    1   27 1   
     3    1   28 1   
     4    1   29 1   
     5    2    3 2   
     6    2   13 1   
     7    3    4 1   
     8    3   30 1   
     9    4    5 ar  
    10    4   12 ar  
    11    5    6 ar  
    12    5   31 1   
    13    6    7 ar  
    14    6   32 1   
    15    7    8 1   
    16    7   11 ar  
    17    8    9 1   
    18    8   10 1   
    19   11   12 ar  
    20   11   33 1   
    21   12   34 1   
    22   13   14 ar  
    23   13   18 ar  
    24   14   15 ar  
    25   14   35 1   
    26   15   16 ar  
    27   15   36 1   
    28   16   17 ar  
    29   16   24 1   
    30   17   18 ar  
    31   17   19 1   
    32   18   37 1   
    33   19   20 1   
    34   19   21 1   
    35   19   22 1   
    36   20   38 1   
    37   20   39 1   
    38   20   40 1   
    39   21   41 1   
    40   21   42 1   
    41   21   43 1   
    42   22   23 1   
    43   22   44 1   
    44   22   45 1   
    45   23   24 1   
    46   23   46 1   
    47   23   47 1   
    48   24   25 1   
    49   24   26 1   
    50   25   48 1   
    51   25   49 1   
    52   25   50 1   
    53   26   51 1   
    54   26   52 1   
    55   26   53 1   
@<TRIPOS>SUBSTRUCTURE
     1 TTB         1 TEMP              0 ****  ****    0 ROOT
