@<TRIPOS>MOLECULE
TTB
   53    55     1     0     0
SMALL
bcc


@<TRIPOS>ATOM
      1 C          -0.0430    0.6700   -0.2080 c3        1 TTB     -0.049900
      2 C2          1.3910    0.3370   -0.0210 ce        1 TTB     -0.110400
      3 C3          1.9540    0.1140    1.1850 cf        1 TTB     -0.053200
      4 C4          1.3070    0.1740    2.4820 ca        1 TTB     -0.109800
      5 C5          0.3740    1.1660    2.8120 ca        1 TTB     -0.140000
      6 C6         -0.2040    1.1990    4.0790 ca        1 TTB     -0.115500
      7 C7          0.1330    0.2430    5.0420 ca        1 TTB     -0.108600
      8 C8         -0.5060    0.2770    6.4230 c         1 TTB      0.906200
      9 O          -1.3480    1.1880    6.6620 o         1 TTB     -0.828300
     10 O1         -0.1590   -0.6090    7.2550 o         1 TTB     -0.828300
     11 C9          1.0710   -0.7440    4.7180 ca        1 TTB     -0.115500
     12 C10         1.6590   -0.7760    3.4580 ca        1 TTB     -0.140000
     13 C11         2.1920    0.2510   -1.2440 ca        1 TTB     -0.024800
     14 C12         3.1880   -0.7250   -1.3910 ca        1 TTB     -0.130000
     15 C13         3.9260   -0.7970   -2.5650 ca        1 TTB     -0.131000
     16 C14         3.7040    0.0920   -3.6280 ca        1 TTB     -0.075300
     17 C15         2.7310    1.0930   -3.4790 ca        1 TTB     -0.062300
     18 C16         1.9770    1.1450   -2.2980 ca        1 TTB     -0.128000
     19 C17         2.4490    2.1210   -4.5430 c3        1 TTB     -0.003700
     20 C18         1.1030    1.8160   -5.1940 c3        1 TTB     -0.084100
     21 C19         2.3880    3.5190   -3.9280 c3        1 TTB     -0.084100
     22 C20         3.5490    2.1370   -5.6050 c3        1 TTB     -0.068400
     23 C21         3.9540    0.7490   -6.0320 c3        1 TTB     -0.067400
     24 C22         4.5300   -0.0690   -4.8760 c3        1 TTB     -0.001700
     25 C23         5.9630    0.3720   -4.5920 c3        1 TTB     -0.083100
     26 C24         4.5490   -1.5330   -5.3160 c3        1 TTB     -0.083100
     27 H1         -0.4260    0.2380   -1.1660 hc        1 TTB      0.041033
     28 H2         -0.6560    0.2670    0.6370 hc        1 TTB      0.041033
     29 H3A        -0.1830    1.7800   -0.2450 hc        1 TTB      0.041033
     30 H3          3.0260   -0.1570    1.2310 ha        1 TTB      0.113000
     31 H5          0.1100    1.9340    2.0700 ha        1 TTB      0.108500
     32 H6         -0.9370    1.9760    4.3510 ha        1 TTB      0.152500
     33 H9          1.3300   -1.4890    5.4880 ha        1 TTB      0.152500
     34 H10         2.3980   -1.5520    3.2140 ha        1 TTB      0.108500
     35 H12         3.3780   -1.4410   -0.5770 ha        1 TTB      0.136000
     36 H13         4.7030   -1.5710   -2.6600 ha        1 TTB      0.123000
     37 H16         1.1940    1.9120   -2.1880 ha        1 TTB      0.134000
     38 H181        0.2980    1.7980   -4.4210 hc        1 TTB      0.035533
     39 H182        0.8580    2.5990   -5.9510 hc        1 TTB      0.035533
     40 H183        1.1290    0.8220   -5.7010 hc        1 TTB      0.035533
     41 H191        1.4620    3.6470   -3.3180 hc        1 TTB      0.035533
     42 H192        2.3800    4.2880   -4.7380 hc        1 TTB      0.035533
     43 H193        3.2740    3.6950   -3.2730 hc        1 TTB      0.035533
     44 H201        3.1860    2.7120   -6.4970 hc        1 TTB      0.039200
     45 H202        4.4430    2.6800   -5.1980 hc        1 TTB      0.039200
     46 H211        4.7200    0.8170   -6.8490 hc        1 TTB      0.038200
     47 H212        3.0630    0.2110   -6.4530 hc        1 TTB      0.038200
     48 H231        6.3860   -0.2190   -3.7450 hc        1 TTB      0.034033
     49 H232        5.9930    1.4540   -4.3180 hc        1 TTB      0.034033
     50 H233        6.5990    0.2120   -5.4950 hc        1 TTB      0.034033
     51 H241        3.5120   -1.9440   -5.3400 hc        1 TTB      0.034033
     52 H242        4.9930   -1.6150   -6.3370 hc        1 TTB      0.034033
     53 H243        5.1620   -2.1510   -4.6180 hc        1 TTB      0.034033
@<TRIPOS>BOND
     1    1    2 1   
     2    1   27 1   
     3    1   28 1   
     4    1   29 1   
     5    2    3 2   
     6    2   13 1   
     7    3    4 1   
     8    3   30 1   
     9    4    5 ar  
    10    4   12 ar  
    11    5    6 ar  
    12    5   31 1   
    13    6    7 ar  
    14    6   32 1   
    15    7    8 1   
    16    7   11 ar  
    17    8    9 1   
    18    8   10 1   
    19   11   12 ar  
    20   11   33 1   
    21   12   34 1   
    22   13   14 ar  
    23   13   18 ar  
    24   14   15 ar  
    25   14   35 1   
    26   15   16 ar  
    27   15   36 1   
    28   16   17 ar  
    29   16   24 1   
    30   17   18 ar  
    31   17   19 1   
    32   18   37 1   
    33   19   20 1   
    34   19   21 1   
    35   19   22 1   
    36   20   38 1   
    37   20   39 1   
    38   20   40 1   
    39   21   41 1   
    40   21   42 1   
    41   21   43 1   
    42   22   23 1   
    43   22   44 1   
    44   22   45 1   
    45   23   24 1   
    46   23   46 1   
    47   23   47 1   
    48   24   25 1   
    49   24   26 1   
    50   25   48 1   
    51   25   49 1   
    52   25   50 1   
    53   26   51 1   
    54   26   52 1   
    55   26   53 1   
@<TRIPOS>SUBSTRUCTURE
     1 TTB         1 TEMP              0 ****  ****    0 ROOT
