@<TRIPOS>MOLECULE
TTC
   55    59     1     0     0
SMALL
bcc


@<TRIPOS>ATOM
      1 C25         1.3970    0.5010   -0.1890 c3        1 TTC     -0.095400
      2 C31         1.9090    1.6590    0.6250 c3        1 TTC     -0.111100
      3 C21        -0.0610    0.1460    0.1490 c3        1 TTC      0.121000
      4 O24        -0.2100   -0.0930    1.5410 oh        1 TTC     -0.580800
      5 C16        -0.4680   -1.1110   -0.5760 cc        1 TTC      0.004800
      6 C20        -0.9760    1.2960   -0.2720 c         1 TTC      0.687600
      7 C15        -0.9900   -0.9990   -1.8340 cd        1 TTC     -0.210400
      8 C17        -0.3120   -2.3920    0.0510 cc        1 TTC     -0.112000
      9 O23        -1.2950    2.2320    0.4590 o         1 TTC     -0.560500
     10 O22        -1.5290    1.3560   -1.5200 os        1 TTC     -0.384900
     11 C14        -1.3910   -2.1810   -2.6140 c         1 TTC      0.716700
     12 C19        -1.1920    0.3330   -2.4630 c3        1 TTC      0.177600
     13 C13        -0.6910   -3.4950   -0.6600 cd        1 TTC     -0.051200
     14 O18        -1.8650   -2.1590   -3.7640 o         1 TTC     -0.618500
     15 N12        -1.1960   -3.4110   -1.9700 n         1 TTC     -0.365000
     16 C9         -0.6820   -4.9250   -0.2680 ca        1 TTC      0.474100
     17 C11        -1.5690   -4.7200   -2.5020 c3        1 TTC      0.139300
     18 C8         -1.2280   -5.6820   -1.3940 ca        1 TTC     -0.168600
     19 N10        -0.2760   -5.4640    0.8610 nb        1 TTC     -0.595000
     20 C7         -1.3440   -7.0340   -1.2940 ca        1 TTC     -0.112000
     21 C5         -0.3960   -6.8440    0.9670 ca        1 TTC      0.366600
     22 C6         -0.9300   -7.6680   -0.0760 ca        1 TTC     -0.079300
     23 C4          0.0390   -7.4510    2.1890 ca        1 TTC     -0.068300
     24 C1         -1.0380   -9.0690    0.1330 ca        1 TTC     -0.208300
     25 C3         -0.0420   -8.8090    2.3640 ca        1 TTC     -0.199000
     26 C2         -0.5770   -9.6160    1.3320 ca        1 TTC      0.164100
     27 C27        -1.7060   -9.9820   -0.8360 c3        1 TTC      0.192100
     28 N28        -0.7310  -10.9410   -1.4790 nx        1 TTC     -0.684400
     29 C29        -1.4540  -12.0520   -2.1460 c3        1 TTC      0.082600
     30 C30         0.1640  -10.2420   -2.4330 c3        1 TTC      0.082600
     31 O26        -0.6470  -10.9860    1.4500 oh        1 TTC     -0.542100
     32 H251        2.0280   -0.4060    0.0060 hc        1 TTC      0.061200
     33 H252        1.4570    0.7380   -1.2840 hc        1 TTC      0.061200
     34 H311        2.9160    1.9690    0.2530 hc        1 TTC      0.053033
     35 H312        2.0050    1.3730    1.7010 hc        1 TTC      0.053033
     36 H313        1.2170    2.5350    0.5530 hc        1 TTC      0.053033
     37 H241       -0.1840    0.7710    1.9820 ho        1 TTC      0.441000
     38 H171        0.0780   -2.4570    1.0780 ha        1 TTC      0.195000
     39 H191       -2.0640    0.3270   -3.1770 h1        1 TTC      0.093700
     40 H192       -0.2590    0.6530   -3.0040 h1        1 TTC      0.093700
     41 H111       -0.9830   -4.9320   -3.4390 h1        1 TTC      0.093700
     42 H112       -2.6670   -4.7370   -2.7520 h1        1 TTC      0.093700
     43 H71        -1.7460   -7.6250   -2.1280 ha        1 TTC      0.134000
     44 H41         0.4450   -6.8080    2.9930 ha        1 TTC      0.183000
     45 H31         0.2950   -9.2790    3.3020 ha        1 TTC      0.166000
     46 H271       -2.2380   -9.4310   -1.6590 hx        1 TTC      0.106700
     47 H272       -2.4600  -10.6160   -0.2780 hx        1 TTC      0.106700
     48 H291       -2.1490  -11.6370   -2.9230 hx        1 TTC      0.103033
     49 H292       -0.7110  -12.7370   -2.6360 hx        1 TTC      0.103033
     50 H293       -2.0450  -12.6250   -1.3820 hx        1 TTC      0.103033
     51 H301        0.6380   -9.3640   -1.9150 hx        1 TTC      0.103033
     52 H302       -0.4320   -9.8790   -3.3110 hx        1 TTC      0.103033
     53 H303        0.9600  -10.9500   -2.7870 hx        1 TTC      0.103033
     54 H261       -0.4510  -11.2310    2.3690 ho        1 TTC      0.462000
     55 H281       -0.1520  -11.3380   -0.7190 hn        1 TTC      0.465800
@<TRIPOS>BOND
     1    1    2 1   
     2    1    3 1   
     3    1   32 1   
     4    1   33 1   
     5    2   34 1   
     6    2   35 1   
     7    2   36 1   
     8    3    4 1   
     9    3    5 1   
    10    3    6 1   
    11    4   37 1   
    12    5    7 2   
    13    5    8 1   
    14    6    9 2   
    15    6   10 1   
    16    7   11 1   
    17    7   12 1   
    18    8   13 2   
    19    8   38 1   
    20   10   12 1   
    21   11   14 2   
    22   11   15 1   
    23   12   39 1   
    24   12   40 1   
    25   13   15 1   
    26   13   16 1   
    27   15   17 1   
    28   16   18 ar  
    29   16   19 ar  
    30   17   18 1   
    31   17   41 1   
    32   17   42 1   
    33   18   20 ar  
    34   19   21 ar  
    35   20   22 ar  
    36   20   43 1   
    37   21   22 ar  
    38   21   23 ar  
    39   22   24 ar  
    40   23   25 ar  
    41   23   44 1   
    42   24   26 ar  
    43   24   27 1   
    44   25   26 ar  
    45   25   45 1   
    46   26   31 1   
    47   27   28 1   
    48   27   46 1   
    49   27   47 1   
    50   28   29 1   
    51   28   30 1   
    52   28   55 1   
    53   29   48 1   
    54   29   49 1   
    55   29   50 1   
    56   30   51 1   
    57   30   52 1   
    58   30   53 1   
    59   31   54 1   
@<TRIPOS>SUBSTRUCTURE
     1 TTC         1 TEMP              0 ****  ****    0 ROOT
