@<TRIPOS>MOLECULE
TTC
   55    59     1     0     0
SMALL
bcc


@<TRIPOS>ATOM
      1 C25         1.3890    0.5020   -0.1830 c3        1 TTC     -0.095400
      2 C31         1.8950    1.6620    0.6340 c3        1 TTC     -0.111100
      3 C21        -0.0710    0.1450    0.1490 c3        1 TTC      0.121000
      4 O24        -0.2260   -0.0940    1.5400 oh        1 TTC     -0.580800
      5 C16        -0.4720   -1.1130   -0.5780 cc        1 TTC      0.004800
      6 C20        -0.9850    1.2940   -0.2770 c         1 TTC      0.687600
      7 C15        -0.9890   -1.0010   -1.8380 cd        1 TTC     -0.210400
      8 C17        -0.3170   -2.3930    0.0500 cc        1 TTC     -0.112000
      9 O23        -1.3090    2.2300    0.4530 o         1 TTC     -0.560500
     10 O22        -1.5320    1.3530   -1.5270 os        1 TTC     -0.384900
     11 C14        -1.3840   -2.1840   -2.6200 c         1 TTC      0.716700
     12 C19        -1.1900    0.3300   -2.4690 c3        1 TTC      0.177600
     13 C13        -0.6910   -3.4970   -0.6620 cd        1 TTC     -0.051200
     14 O18        -1.8530   -2.1630   -3.7720 o         1 TTC     -0.618500
     15 N12        -1.1910   -3.4130   -1.9750 n         1 TTC     -0.365000
     16 C9         -0.6830   -4.9260   -0.2700 ca        1 TTC      0.474100
     17 C11        -1.5590   -4.7230   -2.5090 c3        1 TTC      0.139300
     18 C8         -1.2220   -5.6850   -1.3990 ca        1 TTC     -0.168600
     19 N10        -0.2810   -5.4650    0.8610 nb        1 TTC     -0.595000
     20 C7         -1.3360   -7.0360   -1.2990 ca        1 TTC     -0.112000
     21 C5         -0.4000   -6.8450    0.9660 ca        1 TTC      0.366600
     22 C6         -0.9280   -7.6700   -0.0790 ca        1 TTC     -0.079300
     23 C4          0.0310   -7.4520    2.1910 ca        1 TTC     -0.068300
     24 C1         -1.0340   -9.0720    0.1300 ca        1 TTC     -0.208300
     25 C3         -0.0500   -8.8090    2.3660 ca        1 TTC     -0.199000
     26 C2         -0.5780   -9.6170    1.3310 ca        1 TTC      0.164100
     27 C27        -1.6970   -9.9850   -0.8420 c3        1 TTC      0.192100
     28 N28        -0.7170  -10.9430   -1.4800 n4        1 TTC     -0.684400
     29 C29        -1.4350  -12.0550   -2.1510 c3        1 TTC      0.082600
     30 C30         0.1810  -10.2430   -2.4300 c3        1 TTC      0.082600
     31 O26        -0.6470  -10.9870    1.4490 oh        1 TTC     -0.542100
     32 H251        1.4530    0.7400   -1.2770 hc        1 TTC      0.061200
     33 H252        2.0200   -0.4040    0.0150 hc        1 TTC      0.061200
     34 H311        2.9030    1.9730    0.2670 hc        1 TTC      0.053033
     35 H312        1.2020    2.5370    0.5580 hc        1 TTC      0.053033
     36 H313        1.9860    1.3760    1.7100 hc        1 TTC      0.053033
     37 H241       -0.2030    0.7700    1.9810 ho        1 TTC      0.441000
     38 H171        0.0680   -2.4580    1.0790 ha        1 TTC      0.195000
     39 H191       -0.2540    0.6520   -3.0050 h1        1 TTC      0.093700
     40 H192       -2.0580    0.3230   -3.1870 h1        1 TTC      0.093700
     41 H111       -2.6550   -4.7420   -2.7640 h1        1 TTC      0.093700
     42 H112       -0.9680   -4.9340   -3.4430 h1        1 TTC      0.093700
     43 H71        -1.7330   -7.6280   -2.1350 ha        1 TTC      0.134000
     44 H41         0.4310   -6.8080    2.9960 ha        1 TTC      0.183000
     45 H31         0.2840   -9.2780    3.3050 ha        1 TTC      0.166000
     46 H271       -2.4530  -10.6200   -0.2870 hx        1 TTC      0.106700
     47 H272       -2.2260   -9.4350   -1.6670 hx        1 TTC      0.106700
     48 H291       -0.6900  -12.7390   -2.6370 hx        1 TTC      0.103200
     49 H292       -2.1270  -11.6400   -2.9310 hx        1 TTC      0.103200
     50 H293       -2.0290  -12.6290   -1.3890 hx        1 TTC      0.103200
     51 H301        0.9800  -10.9500   -2.7800 hx        1 TTC      0.103200
     52 H302       -0.4110   -9.8800   -3.3110 hx        1 TTC      0.103200
     53 H303        0.6510   -9.3640   -1.9100 hx        1 TTC      0.103200
     54 H261       -0.4550  -11.2320    2.3690 ho        1 TTC      0.462000
     55 H281       -0.1420  -11.3380   -0.7180 hn        1 TTC      0.465800
@<TRIPOS>BOND
     1    1    2 1   
     2    1    3 1   
     3    1   32 1   
     4    1   33 1   
     5    2   34 1   
     6    2   35 1   
     7    2   36 1   
     8    3    4 1   
     9    3    5 1   
    10    3    6 1   
    11    4   37 1   
    12    5    7 2   
    13    5    8 1   
    14    6    9 2   
    15    6   10 1   
    16    7   11 1   
    17    7   12 1   
    18    8   13 2   
    19    8   38 1   
    20   10   12 1   
    21   11   14 2   
    22   11   15 1   
    23   12   39 1   
    24   12   40 1   
    25   13   15 1   
    26   13   16 1   
    27   15   17 1   
    28   16   18 ar  
    29   16   19 ar  
    30   17   18 1   
    31   17   41 1   
    32   17   42 1   
    33   18   20 ar  
    34   19   21 ar  
    35   20   22 ar  
    36   20   43 1   
    37   21   22 ar  
    38   21   23 ar  
    39   22   24 ar  
    40   23   25 ar  
    41   23   44 1   
    42   24   26 ar  
    43   24   27 1   
    44   25   26 ar  
    45   25   45 1   
    46   26   31 1   
    47   27   28 1   
    48   27   46 1   
    49   27   47 1   
    50   28   29 1   
    51   28   30 1   
    52   28   55 1   
    53   29   48 1   
    54   29   49 1   
    55   29   50 1   
    56   30   51 1   
    57   30   52 1   
    58   30   53 1   
    59   31   54 1   
@<TRIPOS>SUBSTRUCTURE
     1 TTC         1 TEMP              0 ****  ****    0 ROOT
