@<TRIPOS>MOLECULE
TTC
   54    58     1     0     0
SMALL
bcc


@<TRIPOS>ATOM
      1 C25         1.3120    1.4780    4.9870 c3        1 TTC     -0.097400
      2 C31         2.2970    1.6210    6.1170 c3        1 TTC     -0.109100
      3 C21         1.0760    0.0100    4.5930 c3        1 TTC      0.122000
      4 O24         2.3070   -0.6350    4.2970 oh        1 TTC     -0.574800
      5 C16         0.2130   -0.0540    3.3590 cc        1 TTC      0.019800
      6 C20         0.3860   -0.7190    5.7450 c         1 TTC      0.690600
      7 C15        -1.1460   -0.0930    3.5170 cd        1 TTC     -0.243400
      8 C17         0.8070   -0.0620    2.0590 cc        1 TTC     -0.157000
      9 O23         0.9810   -1.3040    6.6510 o         1 TTC     -0.579500
     10 O22        -0.9730   -0.7830    5.8510 os        1 TTC     -0.391900
     11 C14        -2.0560   -0.1280    2.3620 c         1 TTC      0.715700
     12 C19        -1.7650   -0.1060    4.8660 c3        1 TTC      0.185600
     13 C13        -0.0320   -0.0970    0.9780 cd        1 TTC     -0.010200
     14 O18        -3.3000   -0.1590    2.4340 o         1 TTC     -0.639500
     15 N12        -1.4290   -0.1140    1.1110 n         1 TTC     -0.353000
     16 C9          0.2870   -0.1220   -0.4720 ca        1 TTC      0.438100
     17 C11        -2.1050   -0.1700   -0.1880 c3        1 TTC      0.144300
     18 C8         -0.9810   -0.1760   -1.1890 ca        1 TTC     -0.211600
     19 N10         1.4710   -0.0910   -1.0480 nb        1 TTC     -0.599000
     20 C7         -0.9740   -0.2140   -2.5490 ca        1 TTC     -0.075000
     21 C5          1.4810   -0.1270   -2.4350 ca        1 TTC      0.356600
     22 C6          0.2890   -0.2120   -3.2280 ca        1 TTC     -0.083300
     23 C4          2.7510   -0.0650   -3.0950 ca        1 TTC     -0.129300
     24 C1          0.3860   -0.2810   -4.6440 ca        1 TTC     -0.168300
     25 C3          2.8270   -0.0710   -4.4600 ca        1 TTC     -0.143000
     26 C2          1.6390   -0.1670   -5.2400 ca        1 TTC      0.170100
     27 C27        -0.8190   -0.5380   -5.5020 c3        1 TTC      0.208100
     28 N28        -1.2920    0.6360   -6.2280 n3        1 TTC     -0.748600
     29 C29        -2.2780    0.2940   -7.2310 c3        1 TTC      0.151600
     30 C30        -1.7230    1.7150   -5.3680 c3        1 TTC      0.151600
     31 O26         1.8580   -0.1800   -6.5930 oh        1 TTC     -0.497100
     32 H251        0.3250    1.9290    5.2720 hc        1 TTC      0.062700
     33 H252        1.6930    2.0200    4.0820 hc        1 TTC      0.062700
     34 H311        2.3320    2.6830    6.4600 hc        1 TTC      0.049033
     35 H312        2.0080    0.9740    6.9820 hc        1 TTC      0.049033
     36 H313        3.3230    1.3260    5.7840 hc        1 TTC      0.049033
     37 H241        2.7520   -0.7930    5.1440 ho        1 TTC      0.433000
     38 H171        1.9000   -0.0620    1.9480 ha        1 TTC      0.191000
     39 H191       -2.7390   -0.6720    4.8690 h1        1 TTC      0.086200
     40 H192       -1.9340    0.9450    5.2300 h1        1 TTC      0.086200
     41 H111       -2.7330   -1.1000   -0.2510 h1        1 TTC      0.086700
     42 H112       -2.7730    0.7280   -0.3060 h1        1 TTC      0.086700
     43 H71        -1.9110   -0.2240   -3.1240 ha        1 TTC      0.148000
     44 H41         3.6680   -0.0050   -2.4850 ha        1 TTC      0.159000
     45 H31         3.7920   -0.0090   -4.9860 ha        1 TTC      0.161000
     46 H271       -0.5320   -1.3150   -6.2740 h1        1 TTC      0.042700
     47 H272       -1.6390   -1.0070   -4.8840 h1        1 TTC      0.042700
     48 H291       -2.5530    1.2220   -7.7970 h1        1 TTC      0.036200
     49 H292       -1.8310   -0.4450   -7.9470 h1        1 TTC      0.036200
     50 H293       -3.2160   -0.1510   -6.7980 h1        1 TTC      0.036200
     51 H301       -1.9000    2.6260   -5.9980 h1        1 TTC      0.036200
     52 H302       -2.6700    1.4800   -4.8060 h1        1 TTC      0.036200
     53 H303       -0.9140    1.9370   -4.6240 h1        1 TTC      0.036200
     54 H261        1.0210   -0.0230   -7.0560 ho        1 TTC      0.444000
@<TRIPOS>BOND
     1    1    2 1   
     2    1    3 1   
     3    1   32 1   
     4    1   33 1   
     5    2   34 1   
     6    2   35 1   
     7    2   36 1   
     8    3    4 1   
     9    3    5 1   
    10    3    6 1   
    11    4   37 1   
    12    5    7 2   
    13    5    8 1   
    14    6    9 2   
    15    6   10 1   
    16    7   11 1   
    17    7   12 1   
    18    8   13 2   
    19    8   38 1   
    20   10   12 1   
    21   11   14 2   
    22   11   15 1   
    23   12   39 1   
    24   12   40 1   
    25   13   15 1   
    26   13   16 1   
    27   15   17 1   
    28   16   18 ar  
    29   16   19 ar  
    30   17   18 1   
    31   17   41 1   
    32   17   42 1   
    33   18   20 ar  
    34   19   21 ar  
    35   20   22 ar  
    36   20   43 1   
    37   21   22 ar  
    38   21   23 ar  
    39   22   24 ar  
    40   23   25 ar  
    41   23   44 1   
    42   24   26 ar  
    43   24   27 1   
    44   25   26 ar  
    45   25   45 1   
    46   26   31 1   
    47   27   28 1   
    48   27   46 1   
    49   27   47 1   
    50   28   29 1   
    51   28   30 1   
    52   29   48 1   
    53   29   49 1   
    54   29   50 1   
    55   30   51 1   
    56   30   52 1   
    57   30   53 1   
    58   31   54 1   
@<TRIPOS>SUBSTRUCTURE
     1 TTC         1 TEMP              0 ****  ****    0 ROOT
