@<TRIPOS>MOLECULE
TTE
   44    45     1     0     0
SMALL
bcc


@<TRIPOS>ATOM
      1 N1          0.0000    0.0000    0.0000 n         1 TTE      0.127000
      2 C2          1.3450    0.0000    0.0000 c         1 TTE      0.578500
      3 O2          1.9450    0.0010   -1.0570 o         1 TTE     -0.774500
      4 N3          2.0370    0.0000    1.1550 ns        1 TTE     -0.160500
      5 C4          1.3860    0.0030    2.3360 c         1 TTE      0.567700
      6 O4          2.0110    0.0020    3.3820 o         1 TTE     -0.859500
      7 C5         -0.0280   -0.0020    2.3500 cc        1 TTE     -0.375400
      8 C5M        -0.7790   -0.0030    3.6570 c3        1 TTE      0.145100
      9 C6         -0.6960   -0.0010    1.1770 cd        1 TTE     -0.469400
     10 C1'        -0.7250    0.0000   -1.2730 c3        1 TTE      0.229500
     11 C2'        -0.3490    1.2530   -2.0880 c3        1 TTE     -0.112400
     12 C3'         0.2220    0.6860   -3.4110 c3        1 TTE      0.146100
     13 O3'        -0.2300    1.4500   -4.5300 oh        1 TTE     -0.595800
     14 C4'        -0.3760   -0.7440   -3.4370 c3        1 TTE      0.164100
     15 O4'        -0.3490   -1.1490   -2.0500 os        1 TTE     -0.354600
     16 C5'         0.4870   -1.6740   -4.2920 c3        1 TTE      0.244400
     17 O5'        -0.0850   -2.9820   -4.2990 os        1 TTE     -0.480200
     18 PA          0.8690   -3.9030   -5.2110 p5        1 TTE      0.888800
     19 O1A         2.2300   -3.9290   -4.6290 o         1 TTE     -0.661000
     20 O2A         0.9340   -3.2990   -6.7010 o         1 TTE     -0.661000
     21 O3A         0.2800   -5.4000   -5.2630 os        1 TTE     -0.498800
     22 PB          1.2790   -6.2610   -6.1870 p5        1 TTE      0.663600
     23 O1B         2.6330   -6.2510   -5.5910 o         1 TTE     -0.509000
     24 O2B         1.3360   -5.6170   -7.6600 o         1 TTE     -0.509000
     25 CC          0.6770   -7.9780   -6.2970 c3        1 TTE      0.136200
     26 PG          1.8080   -8.9530   -7.3430 p5        1 TTE      0.500700
     27 O1G         3.1610   -8.9430   -6.7470 o         1 TTE     -0.664500
     28 O2G         1.2760  -10.4700   -7.4390 o         1 TTE     -0.664500
     29 O3G         1.8640   -8.3100   -8.8160 o         1 TTE     -0.664500
     30 HN3         3.0370   -0.0000    1.1370 hn        1 TTE      0.161500
     31 H5M1       -1.7380    0.4830    3.5230 hc        1 TTE     -0.037967
     32 H5M2       -0.2040    0.5310    4.4040 hc        1 TTE     -0.037967
     33 H5M3       -0.9350   -1.0240    3.9830 hc        1 TTE     -0.037967
     34 H6         -1.7750   -0.1020    1.1690 h4        1 TTE      0.106000
     35 H1'        -1.7930   -0.0120   -1.0930 h2        1 TTE      0.001700
     36 H2'1        0.4060    1.8300   -1.5680 hc        1 TTE      0.013200
     37 H2'2       -1.2280    1.8540   -2.2830 hc        1 TTE      0.013200
     38 H3'         1.3040    0.6470   -3.3740 h1        1 TTE      0.052700
     39 HO'3        0.4230    2.0900   -4.7590 ho        1 TTE      0.364000
     40 H4'        -1.3950   -0.7190   -3.8030 h1        1 TTE      0.000700
     41 H5'1        1.4870   -1.7200   -3.8780 h1        1 TTE      0.018700
     42 H5'2        0.5320   -1.2940   -5.3050 h1        1 TTE      0.018700
     43 HCC1        0.6390   -8.4120   -5.3050 hc        1 TTE     -0.006800
     44 HCC2       -0.3150   -7.9860   -6.7330 hc        1 TTE     -0.006800
@<TRIPOS>BOND
     1    1    2 1   
     2    1    9 1   
     3    1   10 1   
     4    2    3 2   
     5    2    4 1   
     6    4    5 1   
     7    4   30 1   
     8    5    6 2   
     9    5    7 1   
    10    7    8 1   
    11    7    9 2   
    12    8   31 1   
    13    8   32 1   
    14    8   33 1   
    15    9   34 1   
    16   10   11 1   
    17   10   15 1   
    18   10   35 1   
    19   11   12 1   
    20   11   36 1   
    21   11   37 1   
    22   12   13 1   
    23   12   14 1   
    24   12   38 1   
    25   13   39 1   
    26   14   15 1   
    27   14   16 1   
    28   14   40 1   
    29   16   17 1   
    30   16   41 1   
    31   16   42 1   
    32   17   18 1   
    33   18   19 1   
    34   18   20 1   
    35   18   21 1   
    36   21   22 1   
    37   22   23 1   
    38   22   24 1   
    39   22   25 1   
    40   25   26 1   
    41   25   43 1   
    42   25   44 1   
    43   26   27 1   
    44   26   28 1   
    45   26   29 1   
@<TRIPOS>SUBSTRUCTURE
     1 TTE         1 TEMP              0 ****  ****    0 ROOT
