@<TRIPOS>MOLECULE
TTF
   19    19     1     0     0
SMALL
bcc


@<TRIPOS>ATOM
      1 C1          4.2420    0.4670   -0.4380 cc        1 TTF     -0.171000
      2 C2          3.1940    1.1470    0.2450 cc        1 TTF     -0.068000
      3 C3          2.0210    0.4010    0.2600 cd        1 TTF     -0.233700
      4 S1          2.2330   -1.0650   -0.5380 ss        1 TTF      0.060200
      5 C4          3.8230   -0.7630   -0.9090 cd        1 TTF     -0.143100
      6 C5          0.7910    0.8510    0.8890 c         1 TTF      0.626700
      7 O1          0.7070    1.9000    1.5350 o         1 TTF     -0.504100
      8 C6         -0.4110   -0.0590    0.7490 c3        1 TTF     -0.286400
      9 C7         -1.3920    0.4060   -0.2730 c         1 TTF      0.559100
     10 C8         -2.6710   -0.5070   -0.3370 c3        1 TTF      0.522900
     11 O2         -1.3020    1.3640   -1.0230 o         1 TTF     -0.424100
     12 F1         -3.3480   -0.5750    0.8530 f         1 TTF     -0.225633
     13 F2         -2.3810   -1.8100   -0.6560 f         1 TTF     -0.225633
     14 F3         -3.5970   -0.1070   -1.2600 f         1 TTF     -0.225633
     15 H1          5.2450    0.8810   -0.5640 ha        1 TTF      0.164000
     16 H2          3.2960    2.1360    0.7020 ha        1 TTF      0.176000
     17 H4          4.4450   -1.4670   -1.4630 h4        1 TTF      0.179000
     18 H61        -0.9410   -0.1060    1.7440 hc        1 TTF      0.110200
     19 H62        -0.0950   -1.1060    0.4830 hc        1 TTF      0.110200
@<TRIPOS>BOND
     1    1    2 1   
     2    1    5 2   
     3    1   15 1   
     4    2    3 2   
     5    2   16 1   
     6    3    4 1   
     7    3    6 1   
     8    4    5 1   
     9    5   17 1   
    10    6    7 2   
    11    6    8 1   
    12    8    9 1   
    13    8   18 1   
    14    8   19 1   
    15    9   10 1   
    16    9   11 2   
    17   10   12 1   
    18   10   13 1   
    19   10   14 1   
@<TRIPOS>SUBSTRUCTURE
     1 TTF         1 TEMP              0 ****  ****    0 ROOT
