@<TRIPOS>MOLECULE
TTF
   19    19     1     0     0
SMALL
bcc


@<TRIPOS>ATOM
      1 C1          0.1080   -0.3960    0.1140 cc        1 TTF     -0.171000
      2 C2          1.3910    0.2070   -0.0160 cc        1 TTF     -0.068000
      3 C3          2.0600    0.2620    1.2020 cd        1 TTF     -0.233700
      4 S1          1.1240   -0.4060    2.4290 ss        1 TTF      0.060200
      5 C4         -0.1440   -0.7700    1.4200 cd        1 TTF     -0.143100
      6 C5          3.3890    0.8270    1.3630 c         1 TTF      0.626700
      7 O1          4.0040    1.3810    0.4470 o         1 TTF     -0.504100
      8 C6          3.9950    0.7410    2.7480 c3        1 TTF     -0.286400
      9 C7          5.0180   -0.3350    2.8820 c         1 TTF      0.559100
     10 C8          5.6950   -0.3470    4.3020 c3        1 TTF      0.522900
     11 O2          5.3570   -1.1620    2.0500 o         1 TTF     -0.424100
     12 F1          4.7970   -0.5500    5.3200 f         1 TTF     -0.225633
     13 F2          6.3230    0.8310    4.6110 f         1 TTF     -0.225633
     14 F3          6.6440   -1.3180    4.4600 f         1 TTF     -0.225633
     15 H1         -0.5780   -0.5360   -0.7240 ha        1 TTF      0.164000
     16 H2          1.8040    0.5820   -0.9580 ha        1 TTF      0.176000
     17 H4         -1.0580   -1.2500    1.7700 h4        1 TTF      0.179000
     18 H61         4.4930    1.7250    2.9820 hc        1 TTF      0.110200
     19 H62         3.2000    0.5690    3.5260 hc        1 TTF      0.110200
@<TRIPOS>BOND
     1    1    2 1   
     2    1    5 2   
     3    1   15 1   
     4    2    3 2   
     5    2   16 1   
     6    3    4 1   
     7    3    6 1   
     8    4    5 1   
     9    5   17 1   
    10    6    7 2   
    11    6    8 1   
    12    8    9 1   
    13    8   18 1   
    14    8   19 1   
    15    9   10 1   
    16    9   11 2   
    17   10   12 1   
    18   10   13 1   
    19   10   14 1   
@<TRIPOS>SUBSTRUCTURE
     1 TTF         1 TEMP              0 ****  ****    0 ROOT
