@<TRIPOS>MOLECULE
TTG
   57    60     1     0     0
SMALL
bcc


@<TRIPOS>ATOM
      1 C25         1.5600   -0.0240    0.2960 c3        1 TTG     -0.075400
      2 C31         2.1410    1.2550    0.8450 c3        1 TTG     -0.091100
      3 C21         0.0480    0.1030    0.0660 c3        1 TTG      0.035000
      4 O24        -0.5740    0.2890    1.3340 oh        1 TTG     -0.618800
      5 C16        -0.5770   -1.1260   -0.5560 cc        1 TTG      0.034800
      6 C20        -0.1870    1.3550   -0.8640 c         1 TTG      0.901600
      7 C15        -1.8540   -1.1480   -1.0580 cd        1 TTG     -0.142400
      8 C17         0.2380   -2.3160   -0.6460 cc        1 TTG     -0.066000
      9 O23         0.3060    1.3510   -2.0160 o         1 TTG     -0.806800
     10 O22        -0.8720    2.2810   -0.3420 o         1 TTG     -0.806800
     11 C14        -2.4120   -2.3600   -1.7010 c         1 TTG      0.706700
     12 C19        -2.8020    0.0210   -1.1040 c3        1 TTG      0.170600
     13 C13        -0.2640   -3.4370   -1.2370 cd        1 TTG     -0.127200
     14 O18        -3.5440   -2.4710   -2.2140 o         1 TTG     -0.655500
     15 N12        -1.5810   -3.4860   -1.7360 n         1 TTG     -0.377000
     16 C9          0.3790   -4.7340   -1.5150 ca        1 TTG      0.511100
     17 C11        -1.8790   -4.7610   -2.3710 c3        1 TTG      0.143300
     18 C8         -0.6030   -5.5520   -2.2390 ca        1 TTG     -0.155600
     19 N10         1.6000   -5.1370   -1.2230 nb        1 TTG     -0.625000
     20 C7         -0.2550   -6.7930   -2.6660 ca        1 TTG     -0.139000
     21 C5          1.9540   -6.4090   -1.6550 ca        1 TTG      0.379600
     22 C6          1.0690   -7.2680   -2.3830 ca        1 TTG     -0.095300
     23 C4          3.2810   -6.8620   -1.3650 ca        1 TTG     -0.072300
     24 C1          1.5300   -8.5400   -2.8080 ca        1 TTG     -0.207300
     25 C3          3.7210   -8.0850   -1.8080 ca        1 TTG     -0.207000
     26 C2          2.8480   -8.9140   -2.5460 ca        1 TTG      0.144100
     27 C27         0.6550   -9.5220   -3.5020 c3        1 TTG      0.195100
     28 N28         0.9940   -9.6020   -4.9750 nx        1 TTG     -0.684400
     29 C29         0.4230  -10.8270   -5.5830 c3        1 TTG      0.082100
     30 C30         0.5370   -8.3870   -5.6950 c3        1 TTG      0.082100
     31 O26         3.2620  -10.1200   -3.0750 oh        1 TTG     -0.547100
     32 O19        -3.1610    0.4940    0.1710 oh        1 TTG     -0.607800
     33 H251        1.7640   -0.8510    1.0260 hc        1 TTG      0.032200
     34 H252        2.0460   -0.2650   -0.6850 hc        1 TTG      0.032200
     35 H311        1.9520    2.1020    0.1390 hc        1 TTG      0.037033
     36 H312        1.6710    1.5060    1.8270 hc        1 TTG      0.037033
     37 H313        3.2420    1.1460    0.9920 hc        1 TTG      0.037033
     38 H241       -0.7070    1.2460    1.4420 ho        1 TTG      0.432000
     39 H171        1.2650   -2.3310   -0.2550 ha        1 TTG      0.169000
     40 H191       -2.3310    0.8370   -1.7250 h1        1 TTG      0.078700
     41 H192       -3.7770   -0.2920   -1.5750 h1        1 TTG      0.078700
     42 H111       -2.1680   -4.6040   -3.4470 h1        1 TTG      0.081200
     43 H112       -2.7350   -5.2660   -1.8420 h1        1 TTG      0.081200
     44 H71        -0.9700   -7.4210   -3.2140 ha        1 TTG      0.123000
     45 H41         3.9540   -6.2040   -0.7840 ha        1 TTG      0.179000
     46 H31         4.7450   -8.4270   -1.5930 ha        1 TTG      0.155000
     47 H271       -0.4380   -9.2770   -3.4100 hx        1 TTG      0.104200
     48 H272        0.8350  -10.5530   -3.0730 hx        1 TTG      0.104200
     49 H291       -0.6900  -10.8330   -5.4410 hx        1 TTG      0.100867
     50 H292        0.8690  -11.7310   -5.0880 hx        1 TTG      0.100867
     51 H293        0.6600  -10.8440   -6.6800 hx        1 TTG      0.100867
     52 H301        0.8940   -7.4760   -5.1380 hx        1 TTG      0.100867
     53 H302       -0.5840   -8.3750   -5.7380 hx        1 TTG      0.100867
     54 H303        0.9550   -8.3890   -6.7360 hx        1 TTG      0.100867
     55 H261        4.1170  -10.3490   -2.6790 ho        1 TTG      0.452000
     56 H19O       -2.4680    1.1120    0.4550 ho        1 TTG      0.440000
     57 H281        2.0240   -9.6510   -5.0390 hn        1 TTG      0.462800
@<TRIPOS>BOND
     1    1    2 1   
     2    1    3 1   
     3    1   33 1   
     4    1   34 1   
     5    2   35 1   
     6    2   36 1   
     7    2   37 1   
     8    3    4 1   
     9    3    5 1   
    10    3    6 1   
    11    4   38 1   
    12    5    7 2   
    13    5    8 1   
    14    6    9 1   
    15    6   10 1   
    16    7   11 1   
    17    7   12 1   
    18    8   13 2   
    19    8   39 1   
    20   11   14 2   
    21   11   15 1   
    22   12   32 1   
    23   12   40 1   
    24   12   41 1   
    25   13   15 1   
    26   13   16 1   
    27   15   17 1   
    28   16   18 ar  
    29   16   19 ar  
    30   17   18 1   
    31   17   42 1   
    32   17   43 1   
    33   18   20 ar  
    34   19   21 ar  
    35   20   22 ar  
    36   20   44 1   
    37   21   22 ar  
    38   21   23 ar  
    39   22   24 ar  
    40   23   25 ar  
    41   23   45 1   
    42   24   26 ar  
    43   24   27 1   
    44   25   26 ar  
    45   25   46 1   
    46   26   31 1   
    47   27   28 1   
    48   27   47 1   
    49   27   48 1   
    50   28   29 1   
    51   28   30 1   
    52   28   57 1   
    53   29   49 1   
    54   29   50 1   
    55   29   51 1   
    56   30   52 1   
    57   30   53 1   
    58   30   54 1   
    59   31   55 1   
    60   32   56 1   
@<TRIPOS>SUBSTRUCTURE
     1 TTG         1 TEMP              0 ****  ****    0 ROOT
