@<TRIPOS>MOLECULE
TTG
   56    59     1     0     0
SMALL
bcc


@<TRIPOS>ATOM
      1 C25        -2.4710    0.3750   -4.0130 c3        1 TTG     -0.074400
      2 C31        -3.3370    0.5590   -5.2340 c3        1 TTG     -0.090100
      3 C21        -1.0650   -0.1150   -4.3870 c3        1 TTG      0.044000
      4 O24        -1.1880   -1.4440   -4.8930 oh        1 TTG     -0.623800
      5 C16        -0.1240   -0.1920   -3.2020 cc        1 TTG      0.047800
      6 C20        -0.5110    0.8490   -5.5000 c         1 TTG      0.899600
      7 C15         1.2360   -0.3250   -3.3250 cd        1 TTG     -0.173400
      8 C17        -0.7100   -0.1290   -1.8830 cc        1 TTG     -0.120000
      9 O23        -0.2680    0.2970   -6.6140 o         1 TTG     -0.814800
     10 O22        -0.3670    2.0680   -5.2410 o         1 TTG     -0.814800
     11 C14         2.1160   -0.3790   -2.1360 c         1 TTG      0.706700
     12 C19         1.9980   -0.3800   -4.6190 c3        1 TTG      0.172600
     13 C13         0.0910   -0.1910   -0.7820 cd        1 TTG     -0.086200
     14 O18         3.3630   -0.4730   -2.1520 o         1 TTG     -0.674500
     15 N12         1.4880   -0.3090   -0.8900 n         1 TTG     -0.368000
     16 C9         -0.2540   -0.1530    0.6580 ca        1 TTG      0.478100
     17 C11         2.1380   -0.3530    0.4150 c3        1 TTG      0.149300
     18 C8          1.0030   -0.2570    1.4010 ca        1 TTG     -0.201600
     19 N10        -1.4380   -0.0360    1.2210 nb        1 TTG     -0.626000
     20 C7          0.9780   -0.2480    2.7590 ca        1 TTG     -0.095000
     21 C5         -1.4640   -0.0240    2.6110 ca        1 TTG      0.367600
     22 C6         -0.2900   -0.1480    3.4220 ca        1 TTG     -0.098300
     23 C4         -2.7340    0.1310    3.2530 ca        1 TTG     -0.131300
     24 C1         -0.4070   -0.1590    4.8390 ca        1 TTG     -0.161300
     25 C3         -2.8270    0.1760    4.6170 ca        1 TTG     -0.153000
     26 C2         -1.6570    0.0420    5.4140 ca        1 TTG      0.147100
     27 C27         0.7740   -0.4480    5.7190 c3        1 TTG      0.210100
     28 N28         1.3300    0.7270    6.3850 n3        1 TTG     -0.747600
     29 C29         2.3420    0.3670    7.3540 c3        1 TTG      0.152100
     30 C30         1.7760    1.7570    5.4740 c3        1 TTG      0.152100
     31 O26        -1.8870    0.0800    6.7690 oh        1 TTG     -0.510100
     32 O19         1.6980   -1.5190   -5.3930 oh        1 TTG     -0.617800
     33 H251       -2.3690    1.3520   -3.4740 hc        1 TTG      0.035700
     34 H252       -2.9630   -0.3730   -3.3380 hc        1 TTG      0.035700
     35 H311       -4.3620    0.8850   -4.9340 hc        1 TTG      0.032700
     36 H312       -2.8960    1.3310   -5.9120 hc        1 TTG      0.032700
     37 H313       -3.4170   -0.4010   -5.8010 hc        1 TTG      0.032700
     38 H241       -1.1770   -1.3800   -5.8630 ho        1 TTG      0.427000
     39 H171       -1.7960   -0.0380   -1.7450 ha        1 TTG      0.165000
     40 H191        1.8000    0.5660   -5.1990 h1        1 TTG      0.073700
     41 H192        3.1030   -0.4650   -4.4140 h1        1 TTG      0.073700
     42 H111        2.7110   -1.3140    0.5280 h1        1 TTG      0.072700
     43 H112        2.8560    0.5060    0.5170 h1        1 TTG      0.072700
     44 H71         1.9060   -0.2950    3.3460 ha        1 TTG      0.138000
     45 H41        -3.6390    0.2240    2.6290 ha        1 TTG      0.156000
     46 H31        -3.7930    0.3100    5.1260 ha        1 TTG      0.150000
     47 H271        0.4340   -1.1570    6.5330 h1        1 TTG      0.040200
     48 H272        1.5610   -1.0050    5.1310 h1        1 TTG      0.040200
     49 H291        2.6810    1.2970    7.8820 h1        1 TTG      0.034200
     50 H292        1.8960   -0.3330    8.1080 h1        1 TTG      0.034200
     51 H293        3.2410   -0.1300    6.8960 h1        1 TTG      0.034200
     52 H301        2.0020    2.6830    6.0660 h1        1 TTG      0.034200
     53 H302        2.6970    1.4670    4.8980 h1        1 TTG      0.034200
     54 H303        0.9560    1.9830    4.7420 h1        1 TTG      0.034200
     55 H261       -1.0510    0.2600    7.2230 ho        1 TTG      0.436000
     56 H19O        0.8690   -1.3350   -5.8630 ho        1 TTG      0.436000
@<TRIPOS>BOND
     1    1    2 1   
     2    1    3 1   
     3    1   33 1   
     4    1   34 1   
     5    2   35 1   
     6    2   36 1   
     7    2   37 1   
     8    3    4 1   
     9    3    5 1   
    10    3    6 1   
    11    4   38 1   
    12    5    7 2   
    13    5    8 1   
    14    6    9 1   
    15    6   10 1   
    16    7   11 1   
    17    7   12 1   
    18    8   13 2   
    19    8   39 1   
    20   11   14 2   
    21   11   15 1   
    22   12   32 1   
    23   12   40 1   
    24   12   41 1   
    25   13   15 1   
    26   13   16 1   
    27   15   17 1   
    28   16   18 ar  
    29   16   19 ar  
    30   17   18 1   
    31   17   42 1   
    32   17   43 1   
    33   18   20 ar  
    34   19   21 ar  
    35   20   22 ar  
    36   20   44 1   
    37   21   22 ar  
    38   21   23 ar  
    39   22   24 ar  
    40   23   25 ar  
    41   23   45 1   
    42   24   26 ar  
    43   24   27 1   
    44   25   26 ar  
    45   25   46 1   
    46   26   31 1   
    47   27   28 1   
    48   27   47 1   
    49   27   48 1   
    50   28   29 1   
    51   28   30 1   
    52   29   49 1   
    53   29   50 1   
    54   29   51 1   
    55   30   52 1   
    56   30   53 1   
    57   30   54 1   
    58   31   55 1   
    59   32   56 1   
@<TRIPOS>SUBSTRUCTURE
     1 TTG         1 TEMP              0 ****  ****    0 ROOT
