@<TRIPOS>MOLECULE
TTG
   57    60     1     0     0
SMALL
bcc


@<TRIPOS>ATOM
      1 C25         1.4610   -0.1100    0.5910 c3        1 TTG     -0.076400
      2 C31         1.9940    1.1530    1.2210 c3        1 TTG     -0.081100
      3 C21         0.0840    0.1260   -0.0440 c3        1 TTG      0.033000
      4 O24        -0.7100    0.8120    0.9160 oh        1 TTG     -0.572800
      5 C16        -0.5740   -1.1410   -0.5360 cc        1 TTG     -0.018200
      6 C20         0.2470    1.0770   -1.3100 c         1 TTG      0.936600
      7 C15        -1.8670   -1.1930   -0.9970 cd        1 TTG     -0.155400
      8 C17         0.2510   -2.3250   -0.6170 cc        1 TTG     -0.061000
      9 O23         1.2810    0.9150   -2.0030 o         1 TTG     -0.803800
     10 O22        -0.6890    1.8840   -1.5450 o         1 TTG     -0.803800
     11 C14        -2.4540   -2.4580   -1.5020 c         1 TTG      0.698700
     12 C19        -2.7940   -0.0240   -1.2050 c3        1 TTG      0.181600
     13 C13        -0.2750   -3.4860   -1.0990 cd        1 TTG     -0.133200
     14 O18        -3.6100   -2.6040   -1.9480 o         1 TTG     -0.653500
     15 N12        -1.6350   -3.5940   -1.4560 n         1 TTG     -0.373000
     16 C9          0.3870   -4.7660   -1.4130 ca        1 TTG      0.510100
     17 C11        -1.9340   -4.8820   -2.0680 c3        1 TTG      0.139300
     18 C8         -0.6210   -5.6200   -2.0550 ca        1 TTG     -0.157600
     19 N10         1.6400   -5.1240   -1.2170 nb        1 TTG     -0.621000
     20 C7         -0.2600   -6.8430   -2.5210 ca        1 TTG     -0.138000
     21 C5          2.0070   -6.3780   -1.6880 ca        1 TTG      0.379600
     22 C6          1.1020   -7.2630   -2.3580 ca        1 TTG     -0.095300
     23 C4          3.3690   -6.7810   -1.5040 ca        1 TTG     -0.071300
     24 C1          1.5820   -8.5050   -2.8480 ca        1 TTG     -0.207300
     25 C3          3.8220   -7.9780   -2.0000 ca        1 TTG     -0.207000
     26 C2          2.9310   -8.8290   -2.6920 ca        1 TTG      0.144100
     27 C27         0.7030   -9.5020   -3.5140 c3        1 TTG      0.196100
     28 N28         0.9450   -9.5210   -5.0080 n4        1 TTG     -0.685400
     29 C29         0.3830  -10.7500   -5.6180 c3        1 TTG      0.082100
     30 C30         0.3920   -8.3050   -5.6550 c3        1 TTG      0.082100
     31 O26         3.3530  -10.0040   -3.2790 oh        1 TTG     -0.546100
     32 O19        -2.9000    0.8370   -0.1030 oh        1 TTG     -0.629800
     33 H251        1.3910   -0.9140    1.3690 hc        1 TTG      0.030700
     34 H252        2.1700   -0.4330   -0.2180 hc        1 TTG      0.030700
     35 H311        2.0710    1.9530    0.4450 hc        1 TTG      0.035700
     36 H312        1.3090    1.5100    2.0280 hc        1 TTG      0.035700
     37 H313        3.0040    0.9680    1.6580 hc        1 TTG      0.035700
     38 H241       -1.2660    0.1610    1.3610 ho        1 TTG      0.392000
     39 H171        1.3160   -2.2930   -0.3400 ha        1 TTG      0.177000
     40 H191       -3.8410   -0.4000   -1.3850 h1        1 TTG      0.074200
     41 H192       -2.4210    0.5320   -2.1150 h1        1 TTG      0.074200
     42 H111       -2.7140   -5.4200   -1.4610 h1        1 TTG      0.081200
     43 H112       -2.3300   -4.7400   -3.1120 h1        1 TTG      0.081200
     44 H71        -0.9930   -7.4980   -3.0100 ha        1 TTG      0.124000
     45 H41         4.0570   -6.1050   -0.9640 ha        1 TTG      0.181000
     46 H31         4.8720   -8.2820   -1.8690 ha        1 TTG      0.156000
     47 H271       -0.3900   -9.3070   -3.3420 hx        1 TTG      0.104200
     48 H272        0.9540  -10.5370   -3.1320 hx        1 TTG      0.104200
     49 H291        0.5470  -10.7230   -6.7290 hx        1 TTG      0.101200
     50 H292       -0.7170  -10.8070   -5.4040 hx        1 TTG      0.101200
     51 H293        0.8970  -11.6490   -5.1850 hx        1 TTG      0.101200
     52 H301        0.7490   -7.3970   -5.0920 hx        1 TTG      0.101200
     53 H302        0.7390   -8.2560   -6.7200 hx        1 TTG      0.101200
     54 H303       -0.7300   -8.3400   -5.6230 hx        1 TTG      0.101200
     55 H261        4.2450  -10.2030   -2.9560 ho        1 TTG      0.452000
     56 H19O       -2.2390    1.5490   -0.2250 ho        1 TTG      0.468000
     57 H281        1.9690   -9.5250   -5.1420 hn        1 TTG      0.462800
@<TRIPOS>BOND
     1    1    2 1   
     2    1    3 1   
     3    1   33 1   
     4    1   34 1   
     5    2   35 1   
     6    2   36 1   
     7    2   37 1   
     8    3    4 1   
     9    3    5 1   
    10    3    6 1   
    11    4   38 1   
    12    5    7 2   
    13    5    8 1   
    14    6    9 1   
    15    6   10 1   
    16    7   11 1   
    17    7   12 1   
    18    8   13 2   
    19    8   39 1   
    20   11   14 2   
    21   11   15 1   
    22   12   32 1   
    23   12   40 1   
    24   12   41 1   
    25   13   15 1   
    26   13   16 1   
    27   15   17 1   
    28   16   18 ar  
    29   16   19 ar  
    30   17   18 1   
    31   17   42 1   
    32   17   43 1   
    33   18   20 ar  
    34   19   21 ar  
    35   20   22 ar  
    36   20   44 1   
    37   21   22 ar  
    38   21   23 ar  
    39   22   24 ar  
    40   23   25 ar  
    41   23   45 1   
    42   24   26 ar  
    43   24   27 1   
    44   25   26 ar  
    45   25   46 1   
    46   26   31 1   
    47   27   28 1   
    48   27   47 1   
    49   27   48 1   
    50   28   29 1   
    51   28   30 1   
    52   28   57 1   
    53   29   49 1   
    54   29   50 1   
    55   29   51 1   
    56   30   52 1   
    57   30   53 1   
    58   30   54 1   
    59   31   55 1   
    60   32   56 1   
@<TRIPOS>SUBSTRUCTURE
     1 TTG         1 TEMP              0 ****  ****    0 ROOT
