@<TRIPOS>MOLECULE
TTH
   54    53     1     0     0
SMALL
bcc


@<TRIPOS>ATOM
      1 C20         2.2890   -0.0940   -1.0730 c3        1 TTH     -0.056900
      2 C19         3.3600   -2.1580   -2.0250 c3        1 TTH     -0.056900
      3 C18         3.1960   -1.2490   -0.8660 c2        1 TTH     -0.127400
      4 C17         3.8290   -1.4660    0.2980 c2        1 TTH     -0.173200
      5 C16         3.7050   -0.5820    1.4800 c3        1 TTH     -0.041200
      6 C14         6.4760   -0.1580    3.0530 c3        1 TTH     -0.058900
      7 C13         5.6900   -1.3860    2.7820 c2        1 TTH     -0.120400
      8 C15         4.2080   -1.2330    2.7570 c3        1 TTH     -0.039200
      9 C12         6.2750   -2.5790    2.5880 c2        1 TTH     -0.176200
     10 C11         7.7410   -2.7850    2.6140 c3        1 TTH     -0.042200
     11 C9          8.1110   -4.2570    2.5550 c3        1 TTH     -0.041200
     12 C8          9.5870   -4.4550    2.6150 c2        1 TTH     -0.128400
     13 C10        10.1560   -4.5620    3.9810 c3        1 TTH     -0.055900
     14 C7         10.3630   -4.5440    1.5230 c2        1 TTH     -0.164200
     15 C6          9.8620   -4.4560    0.1320 c3        1 TTH     -0.044200
     16 C5         10.9730   -4.3150   -0.8950 c3        1 TTH     -0.040200
     17 C3         11.7180   -5.5830   -1.1420 c2        1 TTH     -0.118400
     18 C4         13.1190   -5.6020   -0.6500 c3        1 TTH     -0.057900
     19 C2         11.1980   -6.6400   -1.7860 c2        1 TTH     -0.174200
     20 C1          9.8310   -6.7350   -2.3290 c3        1 TTH     -0.061900
     21 H201        1.3410   -0.2400   -0.4960 hc        1 TTH      0.039533
     22 H202        2.0290    0.0290   -2.1520 hc        1 TTH      0.039533
     23 H203        2.7680    0.8520   -0.7140 hc        1 TTH      0.039533
     24 H191        4.0140   -3.0290   -1.7780 hc        1 TTH      0.039533
     25 H192        2.3630   -2.5460   -2.3520 hc        1 TTH      0.039533
     26 H193        3.8170   -1.6060   -2.8840 hc        1 TTH      0.039533
     27 H17         4.5000   -2.3330    0.4220 ha        1 TTH      0.127000
     28 H161        2.6280   -0.2920    1.6240 hc        1 TTH      0.047700
     29 H162        4.2770    0.3680    1.2910 hc        1 TTH      0.047700
     30 H141        6.8900   -0.1910    4.0930 hc        1 TTH      0.041033
     31 H142        5.8440    0.7590    2.9550 hc        1 TTH      0.041033
     32 H143        7.3350   -0.0730    2.3420 hc        1 TTH      0.041033
     33 H151        3.8960   -0.5980    3.6300 hc        1 TTH      0.045700
     34 H152        3.7130   -2.2340    2.8780 hc        1 TTH      0.045700
     35 H12         5.6630   -3.4760    2.3940 ha        1 TTH      0.122000
     36 H111        8.1730   -2.3280    3.5460 hc        1 TTH      0.049700
     37 H112        8.2090   -2.2480    1.7430 hc        1 TTH      0.049700
     38 HC91        7.7000   -4.7060    1.6110 hc        1 TTH      0.045700
     39 HC92        7.6270   -4.7950    3.4150 hc        1 TTH      0.045700
     40 H101        9.8420   -3.6830    4.5980 hc        1 TTH      0.039700
     41 H102       11.2730   -4.6000    3.9620 hc        1 TTH      0.039700
     42 H103        9.7800   -5.4900    4.4800 hc        1 TTH      0.039700
     43 HC7        11.4490   -4.7040    1.6290 ha        1 TTH      0.123000
     44 HC61        9.2550   -5.3740   -0.1040 hc        1 TTH      0.050700
     45 HC62        9.1740   -3.5710    0.0370 hc        1 TTH      0.050700
     46 HC51       10.5200   -3.9640   -1.8630 hc        1 TTH      0.046200
     47 HC52       11.6860   -3.5150   -0.5590 hc        1 TTH      0.046200
     48 HC41       13.7100   -4.7930   -1.1470 hc        1 TTH      0.039700
     49 HC42       13.1430   -5.4220    0.4550 hc        1 TTH      0.039700
     50 HC43       13.6170   -6.5800   -0.8580 hc        1 TTH      0.039700
     51 HC2        11.8160   -7.5420   -1.9380 ha        1 TTH      0.117000
     52 HC11        9.8440   -7.2560   -3.3190 hc        1 TTH      0.040033
     53 HC12        9.3620   -5.7300   -2.4680 hc        1 TTH      0.040033
     54 HC13        9.1850   -7.3280   -1.6330 hc        1 TTH      0.040033
@<TRIPOS>BOND
     1    1    3 1   
     2    1   21 1   
     3    1   22 1   
     4    1   23 1   
     5    2    3 1   
     6    2   24 1   
     7    2   25 1   
     8    2   26 1   
     9    3    4 2   
    10    4    5 1   
    11    4   27 1   
    12    5    8 1   
    13    5   28 1   
    14    5   29 1   
    15    6    7 1   
    16    6   30 1   
    17    6   31 1   
    18    6   32 1   
    19    7    8 1   
    20    7    9 2   
    21    8   33 1   
    22    8   34 1   
    23    9   10 1   
    24    9   35 1   
    25   10   11 1   
    26   10   36 1   
    27   10   37 1   
    28   11   12 1   
    29   11   38 1   
    30   11   39 1   
    31   12   13 1   
    32   12   14 2   
    33   13   40 1   
    34   13   41 1   
    35   13   42 1   
    36   14   15 1   
    37   14   43 1   
    38   15   16 1   
    39   15   44 1   
    40   15   45 1   
    41   16   17 1   
    42   16   46 1   
    43   16   47 1   
    44   17   18 1   
    45   17   19 2   
    46   18   48 1   
    47   18   49 1   
    48   18   50 1   
    49   19   20 1   
    50   19   51 1   
    51   20   52 1   
    52   20   53 1   
    53   20   54 1   
@<TRIPOS>SUBSTRUCTURE
     1 TTH         1 TEMP              0 ****  ****    0 ROOT
