@<TRIPOS>MOLECULE
TTH
   54    53     1     0     0
SMALL
bcc


@<TRIPOS>ATOM
      1 C20        27.0810   76.1070   92.7480 c3        1 TTH     -0.057900
      2 C19        28.1890   76.4560   94.9770 c3        1 TTH     -0.057900
      3 C18        27.0110   76.6900   94.1090 c2        1 TTH     -0.124400
      4 C17        25.9400   77.3840   94.5280 c2        1 TTH     -0.177200
      5 C16        25.8350   77.9850   95.8780 c3        1 TTH     -0.042200
      6 C14        25.0100   80.5310   97.6300 c3        1 TTH     -0.058900
      7 C13        24.3710   79.2010   97.4820 c2        1 TTH     -0.124400
      8 C15        24.4580   78.5690   96.1350 c3        1 TTH     -0.039200
      9 C12        23.7260   78.6010   98.4960 c2        1 TTH     -0.174200
     10 C11        23.6020   79.1900   99.8490 c3        1 TTH     -0.043200
     11 C9         22.6630   78.3900  100.7340 c3        1 TTH     -0.038200
     12 C8         22.4940   79.0250  102.0720 c2        1 TTH     -0.124400
     13 C10        21.7550   80.3100  102.1050 c3        1 TTH     -0.058900
     14 C7         22.9800   78.4520  103.1850 c2        1 TTH     -0.173200
     15 C6         22.8210   79.0340  104.5370 c3        1 TTH     -0.044200
     16 C5         23.6120   78.2680  105.5830 c3        1 TTH     -0.039200
     17 C3         23.5000   78.8990  106.9290 c2        1 TTH     -0.122400
     18 C4         24.1310   80.2320  107.0850 c3        1 TTH     -0.058900
     19 C2         22.8650   78.2840  107.9390 c2        1 TTH     -0.174200
     20 C1         22.7330   78.8450  109.2970 c3        1 TTH     -0.061900
     21 H201       26.1450   76.2970   92.1680 hc        1 TTH      0.040533
     22 H202       27.9410   76.5500   92.1850 hc        1 TTH      0.040533
     23 H203       27.2390   75.0010   92.8120 hc        1 TTH      0.040533
     24 H191       28.5560   77.4210   95.4080 hc        1 TTH      0.040533
     25 H192       27.9130   75.7830   95.8290 hc        1 TTH      0.040533
     26 H193       29.0250   75.9810   94.4090 hc        1 TTH      0.040533
     27 H17        25.0770   77.5380   93.8600 ha        1 TTH      0.122000
     28 H161       26.0640   77.2070   96.6570 hc        1 TTH      0.049700
     29 H162       26.6130   78.7910   95.9890 hc        1 TTH      0.049700
     30 H141       25.6150   80.5750   98.5710 hc        1 TTH      0.041367
     31 H142       25.6810   80.7580   96.7660 hc        1 TTH      0.041367
     32 H143       24.2250   81.3280   97.6870 hc        1 TTH      0.041367
     33 H151       24.2280   79.3410   95.3520 hc        1 TTH      0.045700
     34 H152       23.6890   77.7570   96.0360 hc        1 TTH      0.045700
     35 H12        23.2540   77.6150   98.3520 ha        1 TTH      0.123000
     36 H111       24.6190   79.2380  100.3290 hc        1 TTH      0.050200
     37 H112       23.2320   80.2490   99.7710 hc        1 TTH      0.050200
     38 HC91       21.6590   78.3110  100.2370 hc        1 TTH      0.046200
     39 HC92       23.0610   77.3450  100.8440 hc        1 TTH      0.046200
     40 H101       20.9610   80.2850  102.8930 hc        1 TTH      0.041367
     41 H102       22.4550   81.1500  102.3480 hc        1 TTH      0.041367
     42 H103       21.2710   80.5290  101.1220 hc        1 TTH      0.041367
     43 HC7        23.5260   77.4970  103.1300 ha        1 TTH      0.123000
     44 HC61       23.1530   80.1090  104.5310 hc        1 TTH      0.050200
     45 HC62       21.7320   79.0350  104.8180 hc        1 TTH      0.050200
     46 HC51       23.2470   77.2070  105.6160 hc        1 TTH      0.045700
     47 HC52       24.6940   78.2380  105.2830 hc        1 TTH      0.045700
     48 HC41       24.6920   80.2920  108.0520 hc        1 TTH      0.041033
     49 HC42       24.8430   80.4440  106.2500 hc        1 TTH      0.041033
     50 HC43       23.3460   81.0300  107.0890 hc        1 TTH      0.041033
     51 HC2        22.4080   77.2920  107.7870 ha        1 TTH      0.120000
     52 HC11       21.9100   78.3380  109.8590 hc        1 TTH      0.039700
     53 HC12       23.6860   78.7040  109.8680 hc        1 TTH      0.039700
     54 HC13       22.5120   79.9410  109.2620 hc        1 TTH      0.039700
@<TRIPOS>BOND
     1    1    3 1   
     2    1   21 1   
     3    1   22 1   
     4    1   23 1   
     5    2    3 1   
     6    2   24 1   
     7    2   25 1   
     8    2   26 1   
     9    3    4 2   
    10    4    5 1   
    11    4   27 1   
    12    5    8 1   
    13    5   28 1   
    14    5   29 1   
    15    6    7 1   
    16    6   30 1   
    17    6   31 1   
    18    6   32 1   
    19    7    8 1   
    20    7    9 2   
    21    8   33 1   
    22    8   34 1   
    23    9   10 1   
    24    9   35 1   
    25   10   11 1   
    26   10   36 1   
    27   10   37 1   
    28   11   12 1   
    29   11   38 1   
    30   11   39 1   
    31   12   13 1   
    32   12   14 2   
    33   13   40 1   
    34   13   41 1   
    35   13   42 1   
    36   14   15 1   
    37   14   43 1   
    38   15   16 1   
    39   15   44 1   
    40   15   45 1   
    41   16   17 1   
    42   16   46 1   
    43   16   47 1   
    44   17   18 1   
    45   17   19 2   
    46   18   48 1   
    47   18   49 1   
    48   18   50 1   
    49   19   20 1   
    50   19   51 1   
    51   20   52 1   
    52   20   53 1   
    53   20   54 1   
@<TRIPOS>SUBSTRUCTURE
     1 TTH         1 TEMP              0 ****  ****    0 ROOT
