@<TRIPOS>MOLECULE
TTH
   54    53     1     0     0
SMALL
bcc


@<TRIPOS>ATOM
      1 C20         2.7920    0.3820   -1.5480 c3        1 TTH     -0.057900
      2 C19         0.4650   -0.2440   -0.8310 c3        1 TTH     -0.057900
      3 C18         1.9240   -0.3370   -0.5850 c2        1 TTH     -0.124400
      4 C17         2.4260   -1.0300    0.4500 c2        1 TTH     -0.177200
      5 C16         3.8770   -1.1480    0.7250 c3        1 TTH     -0.042200
      6 C14         6.2480   -0.7410    2.8330 c3        1 TTH     -0.058900
      7 C13         5.6120   -1.9730    2.3080 c2        1 TTH     -0.124400
      8 C15         4.1520   -1.8940    2.0180 c3        1 TTH     -0.039200
      9 C12         6.3010   -3.1100    2.1230 c2        1 TTH     -0.174200
     10 C11         7.7490   -3.2430    2.4050 c3        1 TTH     -0.042200
     11 C9          8.2220   -4.6810    2.2860 c3        1 TTH     -0.041200
     12 C8          9.6730   -4.8090    2.6030 c2        1 TTH     -0.128400
     13 C10         9.9910   -5.0220    4.0370 c3        1 TTH     -0.055900
     14 C7         10.6380   -4.7520    1.6730 c2        1 TTH     -0.164200
     15 C6         10.3950   -4.5530    0.2250 c3        1 TTH     -0.043200
     16 C5         11.6610   -4.2540   -0.5590 c3        1 TTH     -0.040200
     17 C3         12.5230   -5.4520   -0.7710 c2        1 TTH     -0.118400
     18 C4         13.8100   -5.4480   -0.0290 c3        1 TTH     -0.057900
     19 C2         12.2030   -6.4650   -1.5910 c2        1 TTH     -0.173200
     20 C1         10.9670   -6.5760   -2.3870 c3        1 TTH     -0.061900
     21 H201        3.3240    1.2240   -1.0350 hc        1 TTH      0.040367
     22 H202        2.1980    0.8040   -2.3950 hc        1 TTH      0.040367
     23 H203        3.5670   -0.3080   -1.9680 hc        1 TTH      0.040367
     24 H191        0.1440    0.8280   -0.8320 hc        1 TTH      0.040367
     25 H192        0.2160   -0.6840   -1.8290 hc        1 TTH      0.040367
     26 H193       -0.1210   -0.7870   -0.0500 hc        1 TTH      0.040367
     27 H17         1.7550   -1.5520    1.1510 ha        1 TTH      0.122000
     28 H161        4.3370   -0.1220    0.7760 hc        1 TTH      0.049700
     29 H162        4.3760   -1.6830   -0.1300 hc        1 TTH      0.049700
     30 H141        6.4710   -0.8610    3.9240 hc        1 TTH      0.041367
     31 H142        5.5830    0.1470    2.7050 hc        1 TTH      0.041367
     32 H143        7.2140   -0.5390    2.3040 hc        1 TTH      0.041367
     33 H151        3.6370   -1.3690    2.8680 hc        1 TTH      0.046200
     34 H152        3.7130   -2.9250    1.9490 hc        1 TTH      0.046200
     35 H12         5.7980   -4.0130    1.7390 ha        1 TTH      0.122000
     36 H111        7.9710   -2.8600    3.4390 hc        1 TTH      0.049700
     37 H112        8.3310   -2.5990    1.6890 hc        1 TTH      0.049700
     38 HC91        8.0210   -5.0540    1.2460 hc        1 TTH      0.046200
     39 HC92        7.6290   -5.3260    2.9890 hc        1 TTH      0.046200
     40 H101        9.5100   -4.2260    4.6590 hc        1 TTH      0.039700
     41 H102       11.0920   -5.0020    4.2250 hc        1 TTH      0.039700
     42 H103        9.5940   -6.0130    4.3740 hc        1 TTH      0.039700
     43 HC7        11.6960   -4.8660    1.9660 ha        1 TTH      0.123000
     44 HC61        9.9040   -5.4730   -0.1990 hc        1 TTH      0.050200
     45 HC62        9.6760   -3.6990    0.0810 hc        1 TTH      0.050200
     46 HC51       11.3680   -3.8330   -1.5600 hc        1 TTH      0.045700
     47 HC52       12.2450   -3.4560   -0.0260 hc        1 TTH      0.045700
     48 HC41       14.4250   -4.5650   -0.3340 hc        1 TTH      0.039700
     49 HC42       13.6210   -5.3780    1.0710 hc        1 TTH      0.039700
     50 HC43       14.4030   -6.3750   -0.2250 hc        1 TTH      0.039700
     51 HC2        12.8980   -7.3160   -1.7030 ha        1 TTH      0.117000
     52 HC11       11.1950   -6.9950   -3.3990 hc        1 TTH      0.040033
     53 HC12       10.4630   -5.5880   -2.5230 hc        1 TTH      0.040033
     54 HC13       10.2470   -7.2670   -1.8790 hc        1 TTH      0.040033
@<TRIPOS>BOND
     1    1    3 1   
     2    1   21 1   
     3    1   22 1   
     4    1   23 1   
     5    2    3 1   
     6    2   24 1   
     7    2   25 1   
     8    2   26 1   
     9    3    4 2   
    10    4    5 1   
    11    4   27 1   
    12    5    8 1   
    13    5   28 1   
    14    5   29 1   
    15    6    7 1   
    16    6   30 1   
    17    6   31 1   
    18    6   32 1   
    19    7    8 1   
    20    7    9 2   
    21    8   33 1   
    22    8   34 1   
    23    9   10 1   
    24    9   35 1   
    25   10   11 1   
    26   10   36 1   
    27   10   37 1   
    28   11   12 1   
    29   11   38 1   
    30   11   39 1   
    31   12   13 1   
    32   12   14 2   
    33   13   40 1   
    34   13   41 1   
    35   13   42 1   
    36   14   15 1   
    37   14   43 1   
    38   15   16 1   
    39   15   44 1   
    40   15   45 1   
    41   16   17 1   
    42   16   46 1   
    43   16   47 1   
    44   17   18 1   
    45   17   19 2   
    46   18   48 1   
    47   18   49 1   
    48   18   50 1   
    49   19   20 1   
    50   19   51 1   
    51   20   52 1   
    52   20   53 1   
    53   20   54 1   
@<TRIPOS>SUBSTRUCTURE
     1 TTH         1 TEMP              0 ****  ****    0 ROOT
