@<TRIPOS>MOLECULE
TTJ
   41    43     1     0     0
SMALL
bcc


@<TRIPOS>ATOM
      1 CAD         0.4390    0.4300    0.0380 c3        1 TTJ      0.101400
      2 OAC         1.8270    0.2570    0.2870 os        1 TTJ     -0.401600
      3 CAT         2.0780   -0.6140    1.3870 c3        1 TTJ      0.087400
      4 CAB         1.4040   -1.9620    1.1710 c3        1 TTJ      0.098400
      5 OAA         0.0100   -1.8020    0.9080 os        1 TTJ     -0.427600
      6 CAS        -0.2300   -0.9280   -0.1980 c3        1 TTJ      0.037100
      7 CAQ        -1.7380   -0.7340   -0.3830 c         1 TTJ      0.672100
      8 OAR        -2.1720   -0.4170   -1.5080 o         1 TTJ     -0.605100
      9 NAP        -2.5550   -0.8610    0.7230 ns        1 TTJ     -0.433100
     10 CAN        -3.9480   -0.7620    0.7040 cc        1 TTJ      0.014300
     11 CAO        -4.8470   -0.9780    1.7780 cd        1 TTJ     -0.320300
     12 NAM        -4.7410   -0.3950   -0.4030 na        1 TTJ     -0.004600
     13 NAL        -6.0330   -0.3700   -0.1050 nc        1 TTJ     -0.503800
     14 CAK        -6.1540   -0.7170    1.2170 cd        1 TTJ      0.371800
     15 CAJ        -7.4120   -0.8080    1.9400 ca        1 TTJ     -0.105500
     16 CAE        -8.6160   -1.0370    1.2620 ca        1 TTJ     -0.114500
     17 CAF        -9.8180   -1.1320    1.9720 ca        1 TTJ     -0.078800
     18 CAU       -11.0890   -1.3610    1.2460 c3        1 TTJ     -0.052300
     19 CAG        -9.8130   -0.9970    3.3630 ca        1 TTJ     -0.127000
     20 CAH        -8.6160   -0.7640    4.0490 ca        1 TTJ     -0.078800
     21 CAV        -8.6220   -0.6020    5.5220 c3        1 TTJ     -0.052300
     22 CAI        -7.4190   -0.6700    3.3350 ca        1 TTJ     -0.114500
     23 H1          0.3920    1.0630   -0.8870 h1        1 TTJ      0.073200
     24 H2         -0.0410    0.9590    0.9030 h1        1 TTJ      0.073200
     25 H3          1.7120   -0.1360    2.3340 h1        1 TTJ      0.064200
     26 H4          3.1940   -0.7190    1.4100 h1        1 TTJ      0.064200
     27 H5          1.8800   -2.5110    0.3160 h1        1 TTJ      0.066200
     28 H6          1.4330   -2.5880    2.1010 h1        1 TTJ      0.066200
     29 H7          0.1730   -1.4050   -1.1360 h1        1 TTJ      0.093700
     30 H8         -2.1650   -1.2220    1.5680 hn        1 TTJ      0.351500
     31 H9         -4.6150   -1.2820    2.7900 ha        1 TTJ      0.167000
     32 H10        -4.4070   -0.1850   -1.3210 hn        1 TTJ      0.350700
     33 H11        -8.6240   -1.1460    0.1670 ha        1 TTJ      0.139500
     34 H12       -11.4890   -0.3880    0.8610 hc        1 TTJ      0.043200
     35 H13       -10.9320   -2.0420    0.3740 hc        1 TTJ      0.043200
     36 H14       -11.8600   -1.8150    1.9160 hc        1 TTJ      0.043200
     37 H15       -10.7560   -1.0740    3.9240 ha        1 TTJ      0.130000
     38 H16        -9.4110   -1.2410    5.9890 hc        1 TTJ      0.043200
     39 H17        -7.6330   -0.8820    5.9610 hc        1 TTJ      0.043200
     40 H18        -8.8330    0.4650    5.7870 hc        1 TTJ      0.043200
     41 H19        -6.4760   -0.4820    3.8700 ha        1 TTJ      0.139500
@<TRIPOS>BOND
     1    1    2 1   
     2    1    6 1   
     3    1   23 1   
     4    1   24 1   
     5    2    3 1   
     6    3    4 1   
     7    3   25 1   
     8    3   26 1   
     9    4    5 1   
    10    4   27 1   
    11    4   28 1   
    12    5    6 1   
    13    6    7 1   
    14    6   29 1   
    15    7    8 2   
    16    7    9 1   
    17    9   10 1   
    18    9   30 1   
    19   10   11 2   
    20   10   12 1   
    21   11   14 1   
    22   11   31 1   
    23   12   13 1   
    24   12   32 1   
    25   13   14 2   
    26   14   15 1   
    27   15   16 ar  
    28   15   22 ar  
    29   16   17 ar  
    30   16   33 1   
    31   17   18 1   
    32   17   19 ar  
    33   18   34 1   
    34   18   35 1   
    35   18   36 1   
    36   19   20 ar  
    37   19   37 1   
    38   20   21 1   
    39   20   22 ar  
    40   21   38 1   
    41   21   39 1   
    42   21   40 1   
    43   22   41 1   
@<TRIPOS>SUBSTRUCTURE
     1 TTJ         1 TEMP              0 ****  ****    0 ROOT
