@<TRIPOS>MOLECULE
TTJ
   41    43     1     0     0
SMALL
bcc


@<TRIPOS>ATOM
      1 CAD         0.4360    0.4330    0.0350 c3        1 TTJ      0.101400
      2 OAC         1.8250    0.2730    0.2930 os        1 TTJ     -0.401600
      3 CAT         2.0760   -0.5750    1.4100 c3        1 TTJ      0.087400
      4 CAB         1.4120   -1.9310    1.2160 c3        1 TTJ      0.098400
      5 OAA         0.0180   -1.7850    0.9450 os        1 TTJ     -0.427600
      6 CAS        -0.2230   -0.9330   -0.1790 c3        1 TTJ      0.037100
      7 CAQ        -1.7310   -0.7530   -0.3730 c         1 TTJ      0.672100
      8 OAR        -2.1630   -0.4600   -1.5050 o         1 TTJ     -0.605100
      9 NAP        -2.5520   -0.8640    0.7320 n         1 TTJ     -0.433100
     10 CAN        -3.9450   -0.7750    0.7060 cc        1 TTJ      0.014300
     11 CAO        -4.8470   -0.9760    1.7790 cd        1 TTJ     -0.320300
     12 NAM        -4.7360   -0.4330   -0.4120 na        1 TTJ     -0.004600
     13 NAL        -6.0300   -0.4110   -0.1200 nc        1 TTJ     -0.503800
     14 CAK        -6.1540   -0.7340    1.2080 cd        1 TTJ      0.371800
     15 CAJ        -7.4140   -0.8190    1.9270 ca        1 TTJ     -0.105500
     16 CAE        -8.6140   -1.0660    1.2500 ca        1 TTJ     -0.114500
     17 CAF        -9.8190   -1.1530    1.9560 ca        1 TTJ     -0.078800
     18 CAU       -11.0860   -1.3990    1.2290 c3        1 TTJ     -0.052300
     19 CAG        -9.8200   -0.9920    3.3440 ca        1 TTJ     -0.127000
     20 CAH        -8.6270   -0.7430    4.0310 ca        1 TTJ     -0.078800
     21 CAV        -8.6350   -0.5850    5.5040 c3        1 TTJ     -0.052300
     22 CAI        -7.4270   -0.6550    3.3200 ca        1 TTJ     -0.114500
     23 H1          0.3890    1.0480   -0.9020 h1        1 TTJ      0.073200
     24 H2         -0.0500    0.9740    0.8880 h1        1 TTJ      0.073200
     25 H3          1.7040   -0.0820    2.3460 h1        1 TTJ      0.064200
     26 H4          3.1930   -0.6720    1.4390 h1        1 TTJ      0.064200
     27 H5          1.8950   -2.4940    0.3740 h1        1 TTJ      0.066200
     28 H6          1.4410   -2.5390    2.1580 h1        1 TTJ      0.066200
     29 H7          0.1880   -1.4260   -1.1060 h1        1 TTJ      0.093700
     30 H8         -2.1640   -1.2070    1.5850 hn        1 TTJ      0.351500
     31 H9         -4.6180   -1.2590    2.7980 ha        1 TTJ      0.167000
     32 H10        -4.3990   -0.2380   -1.3320 hn        1 TTJ      0.350700
     33 H11        -8.6170   -1.1940    0.1560 ha        1 TTJ      0.139500
     34 H12       -11.8620   -1.8330    1.9060 hc        1 TTJ      0.043200
     35 H13       -10.9240   -2.1070    0.3780 hc        1 TTJ      0.043200
     36 H14       -11.4800   -0.4380    0.8130 hc        1 TTJ      0.043200
     37 H15       -10.7650   -1.0610    3.9030 ha        1 TTJ      0.130000
     38 H16        -7.7780    0.0450    5.8460 hc        1 TTJ      0.043200
     39 H17        -9.5850   -0.1060    5.8480 hc        1 TTJ      0.043200
     40 H18        -8.5510   -1.5870    5.9950 hc        1 TTJ      0.043200
     41 H19        -6.4880   -0.4500    3.8550 ha        1 TTJ      0.139500
@<TRIPOS>BOND
     1    1    2 1   
     2    1    6 1   
     3    1   23 1   
     4    1   24 1   
     5    2    3 1   
     6    3    4 1   
     7    3   25 1   
     8    3   26 1   
     9    4    5 1   
    10    4   27 1   
    11    4   28 1   
    12    5    6 1   
    13    6    7 1   
    14    6   29 1   
    15    7    8 2   
    16    7    9 1   
    17    9   10 1   
    18    9   30 1   
    19   10   11 2   
    20   10   12 1   
    21   11   14 1   
    22   11   31 1   
    23   12   13 1   
    24   12   32 1   
    25   13   14 2   
    26   14   15 1   
    27   15   16 ar  
    28   15   22 ar  
    29   16   17 ar  
    30   16   33 1   
    31   17   18 1   
    32   17   19 ar  
    33   18   34 1   
    34   18   35 1   
    35   18   36 1   
    36   19   20 ar  
    37   19   37 1   
    38   20   21 1   
    39   20   22 ar  
    40   21   38 1   
    41   21   39 1   
    42   21   40 1   
    43   22   41 1   
@<TRIPOS>SUBSTRUCTURE
     1 TTJ         1 TEMP              0 ****  ****    0 ROOT
