@<TRIPOS>MOLECULE
TTL
   26    27     1     0     0
SMALL
bcc


@<TRIPOS>ATOM
      1 OAB         0.1150    0.2280   -0.2760 oh        1 TTL     -0.621800
      2 CAL         1.5080    0.0990   -0.0600 c3        1 TTL      0.192400
      3 CAJ         1.9280    0.0800    1.3740 ca        1 TTL     -0.157300
      4 CAF         1.2700    0.9270    2.2740 ca        1 TTL     -0.109000
      5 CAD         1.6620    0.9740    3.6090 ca        1 TTL     -0.111000
      6 CAC         2.7210    0.1780    4.0510 ca        1 TTL     -0.090000
      7 CAE         3.3850   -0.6580    3.1570 ca        1 TTL     -0.117000
      8 CAI         2.9970   -0.7160    1.8120 ca        1 TTL     -0.069300
      9 CAG         3.7280   -1.6450    0.9070 c3        1 TTL     -0.038100
     10 CAH         3.4650   -1.3920   -0.5650 c3        1 TTL     -0.097400
     11 CAK         1.9660   -1.2080   -0.7690 c3        1 TTL      0.086500
     12 NAA         1.5780   -1.1620   -2.2200 nz        1 TTL     -0.836600
     13 HAB        -0.3570   -0.0340    0.5270 ho        1 TTL      0.446000
     14 HAL         1.9700    0.9960   -0.5740 h1        1 TTL      0.093700
     15 HAF         0.4480    1.5710    1.9200 ha        1 TTL      0.148000
     16 HAD         1.1400    1.6420    4.3130 ha        1 TTL      0.158000
     17 HAC         3.0350    0.2150    5.1070 ha        1 TTL      0.158000
     18 HAE         4.2230   -1.2810    3.5070 ha        1 TTL      0.152000
     19 HAG1        4.8340   -1.5560    1.0900 hc        1 TTL      0.081200
     20 HAG2        3.4350   -2.7000    1.1650 hc        1 TTL      0.081200
     21 HAH1        3.8500   -2.2610   -1.1620 hc        1 TTL      0.071700
     22 HAH2        4.0150   -0.4720   -0.8980 hc        1 TTL      0.071700
     23 HAK         1.4030   -2.0820   -0.3200 hx        1 TTL      0.118700
     24 HAA1        0.5880   -0.8830   -2.2800 hn        1 TTL      0.462467
     25 HAA2        2.1470   -0.4700   -2.7140 hn        1 TTL      0.462467
     26 HAA3        1.7100   -2.0790   -2.6520 hn        1 TTL      0.462467
@<TRIPOS>BOND
     1    1    2 1   
     2    1   13 1   
     3    2    3 1   
     4    2   11 1   
     5    2   14 1   
     6    3    4 ar  
     7    3    8 ar  
     8    4    5 ar  
     9    4   15 1   
    10    5    6 ar  
    11    5   16 1   
    12    6    7 ar  
    13    6   17 1   
    14    7    8 ar  
    15    7   18 1   
    16    8    9 1   
    17    9   10 1   
    18    9   19 1   
    19    9   20 1   
    20   10   11 1   
    21   10   21 1   
    22   10   22 1   
    23   11   12 1   
    24   11   23 1   
    25   12   24 1   
    26   12   25 1   
    27   12   26 1   
@<TRIPOS>SUBSTRUCTURE
     1 TTL         1 TEMP              0 ****  ****    0 ROOT
