@<TRIPOS>MOLECULE
TTL
   25    26     1     0     0
SMALL
bcc


@<TRIPOS>ATOM
      1 OAB         1.3060   -1.9950    0.5200 oh        1 TTL     -0.604800
      2 CAL         1.0010   -0.8450   -0.2640 c3        1 TTL      0.186400
      3 CAJ        -0.4340   -0.4240   -0.1230 ca        1 TTL     -0.106300
      4 CAF        -1.4410   -1.3920   -0.2390 ca        1 TTL     -0.126000
      5 CAD        -2.7840   -1.0400   -0.1470 ca        1 TTL     -0.130000
      6 CAC        -3.1410    0.2930    0.0540 ca        1 TTL     -0.123000
      7 CAE        -2.1510    1.2640    0.1580 ca        1 TTL     -0.131000
      8 CAI        -0.7950    0.9170    0.0690 ca        1 TTL     -0.057300
      9 CAG         0.2250    1.9930    0.1980 c3        1 TTL     -0.040100
     10 CAH         1.5700    1.5910   -0.3630 c3        1 TTL     -0.075400
     11 CAK         1.9970    0.2410    0.2250 c3        1 TTL      0.179500
     12 NAA         3.3630   -0.1000   -0.1420 n3        1 TTL     -0.911800
     13 HAB         0.7400   -2.7130    0.2140 ho        1 TTL      0.403000
     14 HAL         1.1910   -1.0780   -1.3530 h1        1 TTL      0.057700
     15 HAF        -1.1750   -2.4460   -0.4100 ha        1 TTL      0.123000
     16 HAD        -3.5620   -1.8120   -0.2350 ha        1 TTL      0.132000
     17 HAC        -4.2010    0.5760    0.1280 ha        1 TTL      0.133000
     18 HAE        -2.4280    2.3180    0.3100 ha        1 TTL      0.132000
     19 HAG1        0.3320    2.2520    1.2870 hc        1 TTL      0.053200
     20 HAG2       -0.1330    2.9190   -0.3290 hc        1 TTL      0.053200
     21 HAH1        2.3280    2.3780   -0.1100 hc        1 TTL      0.053700
     22 HAH2        1.5190    1.5180   -1.4800 hc        1 TTL      0.053700
     23 HAK         1.8770    0.3000    1.3520 h1        1 TTL      0.031700
     24 HAA1        4.0020    0.4930    0.3470 hn        1 TTL      0.356300
     25 HAA2        3.5470   -1.0560    0.0940 hn        1 TTL      0.356300
@<TRIPOS>BOND
     1    1    2 1   
     2    1   13 1   
     3    2    3 1   
     4    2   11 1   
     5    2   14 1   
     6    3    4 ar  
     7    3    8 ar  
     8    4    5 ar  
     9    4   15 1   
    10    5    6 ar  
    11    5   16 1   
    12    6    7 ar  
    13    6   17 1   
    14    7    8 ar  
    15    7   18 1   
    16    8    9 1   
    17    9   10 1   
    18    9   19 1   
    19    9   20 1   
    20   10   11 1   
    21   10   21 1   
    22   10   22 1   
    23   11   12 1   
    24   11   23 1   
    25   12   24 1   
    26   12   25 1   
@<TRIPOS>SUBSTRUCTURE
     1 TTL         1 TEMP              0 ****  ****    0 ROOT
