@<TRIPOS>MOLECULE
TTL
   26    27     1     0     0
SMALL
bcc


@<TRIPOS>ATOM
      1 OAB         0.1300    0.2620   -0.2820 oh        1 TTL     -0.621800
      2 CAL         1.5210    0.1180   -0.0570 c3        1 TTL      0.192400
      3 CAJ         1.9290    0.0730    1.3800 ca        1 TTL     -0.157300
      4 CAF         1.2710    0.9140    2.2880 ca        1 TTL     -0.109000
      5 CAD         1.6530    0.9370    3.6260 ca        1 TTL     -0.111000
      6 CAC         2.7010    0.1260    4.0650 ca        1 TTL     -0.090000
      7 CAE         3.3640   -0.7040    3.1640 ca        1 TTL     -0.117000
      8 CAI         2.9870   -0.7380    1.8140 ca        1 TTL     -0.069300
      9 CAG         3.7160   -1.6600    0.9020 c3        1 TTL     -0.038100
     10 CAH         3.4680   -1.3830   -0.5690 c3        1 TTL     -0.097400
     11 CAK         1.9720   -1.1830   -0.7820 c3        1 TTL      0.086500
     12 NAA         1.5960   -1.1110   -2.2350 n4        1 TTL     -0.836600
     13 HAB        -0.3500   -0.0070    0.5140 ho        1 TTL      0.446000
     14 HAL         1.9950    1.0180   -0.5540 h1        1 TTL      0.093700
     15 HAF         0.4580    1.5700    1.9370 ha        1 TTL      0.148000
     16 HAD         1.1310    1.5990    4.3350 ha        1 TTL      0.158000
     17 HAC         3.0070    0.1440    5.1230 ha        1 TTL      0.158000
     18 HAE         4.1950   -1.3390    3.5110 ha        1 TTL      0.152000
     19 HAG1        3.4130   -2.7170    1.1420 hc        1 TTL      0.081200
     20 HAG2        4.8220   -1.5840    1.0950 hc        1 TTL      0.081200
     21 HAH1        4.0290   -0.4630   -0.8830 hc        1 TTL      0.071700
     22 HAH2        3.8500   -2.2470   -1.1750 hc        1 TTL      0.071700
     23 HAK         1.3980   -2.0580   -0.3500 hx        1 TTL      0.118700
     24 HAA1        2.1760   -0.4170   -2.7140 hn        1 TTL      0.462467
     25 HAA2        0.6100   -0.8230   -2.2990 hn        1 TTL      0.462467
     26 HAA3        1.7240   -2.0220   -2.6800 hn        1 TTL      0.462467
@<TRIPOS>BOND
     1    1    2 1   
     2    1   13 1   
     3    2    3 1   
     4    2   11 1   
     5    2   14 1   
     6    3    4 ar  
     7    3    8 ar  
     8    4    5 ar  
     9    4   15 1   
    10    5    6 ar  
    11    5   16 1   
    12    6    7 ar  
    13    6   17 1   
    14    7    8 ar  
    15    7   18 1   
    16    8    9 1   
    17    9   10 1   
    18    9   19 1   
    19    9   20 1   
    20   10   11 1   
    21   10   21 1   
    22   10   22 1   
    23   11   12 1   
    24   11   23 1   
    25   12   24 1   
    26   12   25 1   
    27   12   26 1   
@<TRIPOS>SUBSTRUCTURE
     1 TTL         1 TEMP              0 ****  ****    0 ROOT
