@<TRIPOS>MOLECULE
TTL
   26    27     1     0     0
SMALL
bcc


@<TRIPOS>ATOM
      1 OAB         0.1220    0.2340   -0.2850 oh        1 TTL     -0.621800
      2 CAL         1.5140    0.1000   -0.0650 c3        1 TTL      0.192400
      3 CAJ         1.9300    0.0830    1.3700 ca        1 TTL     -0.157300
      4 CAF         1.2730    0.9370    2.2660 ca        1 TTL     -0.109000
      5 CAD         1.6610    0.9870    3.6020 ca        1 TTL     -0.111000
      6 CAC         2.7150    0.1880    4.0500 ca        1 TTL     -0.090000
      7 CAE         3.3770   -0.6550    3.1600 ca        1 TTL     -0.117000
      8 CAI         2.9930   -0.7160    1.8140 ca        1 TTL     -0.069300
      9 CAG         3.7220   -1.6510    0.9150 c3        1 TTL     -0.038100
     10 CAH         3.4650   -1.4020   -0.5590 c3        1 TTL     -0.097400
     11 CAK         1.9670   -1.2120   -0.7680 c3        1 TTL      0.086500
     12 NAA         1.5840   -1.1690   -2.2200 n4        1 TTL     -0.836600
     13 HAB        -0.3540   -0.0240    0.5180 ho        1 TTL      0.446000
     14 HAL         1.9810    0.9920   -0.5810 h1        1 TTL      0.093700
     15 HAF         0.4550    1.5830    1.9070 ha        1 TTL      0.148000
     16 HAD         1.1400    1.6590    4.3010 ha        1 TTL      0.158000
     17 HAC         3.0270    0.2270    5.1060 ha        1 TTL      0.158000
     18 HAE         4.2130   -1.2800    3.5150 ha        1 TTL      0.152000
     19 HAG1        4.8290   -1.5670    1.1000 hc        1 TTL      0.081200
     20 HAG2        3.4240   -2.7040    1.1760 hc        1 TTL      0.081200
     21 HAH1        4.0200   -0.4860   -0.8940 hc        1 TTL      0.071700
     22 HAH2        3.8480   -2.2750   -1.1520 hc        1 TTL      0.071700
     23 HAK         1.3990   -2.0820   -0.3180 hx        1 TTL      0.118700
     24 HAA1        2.1580   -0.4810   -2.7150 hn        1 TTL      0.462467
     25 HAA2        0.5950   -0.8850   -2.2840 hn        1 TTL      0.462467
     26 HAA3        1.7130   -2.0880   -2.6490 hn        1 TTL      0.462467
@<TRIPOS>BOND
     1    1    2 1   
     2    1   13 1   
     3    2    3 1   
     4    2   11 1   
     5    2   14 1   
     6    3    4 ar  
     7    3    8 ar  
     8    4    5 ar  
     9    4   15 1   
    10    5    6 ar  
    11    5   16 1   
    12    6    7 ar  
    13    6   17 1   
    14    7    8 ar  
    15    7   18 1   
    16    8    9 1   
    17    9   10 1   
    18    9   19 1   
    19    9   20 1   
    20   10   11 1   
    21   10   21 1   
    22   10   22 1   
    23   11   12 1   
    24   11   23 1   
    25   12   24 1   
    26   12   25 1   
    27   12   26 1   
@<TRIPOS>SUBSTRUCTURE
     1 TTL         1 TEMP              0 ****  ****    0 ROOT
