@<TRIPOS>MOLECULE
TTM
   40    41     1     0     0
SMALL
bcc


@<TRIPOS>ATOM
      1 P          -3.8450   -0.2710    4.2620 p5        1 TTM      1.430800
      2 OP1        -4.2930    0.2120    5.5820 o         1 TTM     -0.843500
      3 OP2        -4.5410   -1.7120    3.9190 oh        1 TTM     -0.787400
      4 O5'        -2.2790   -0.7710    4.3970 os        1 TTM     -0.580200
      5 C5'        -1.6410   -1.2020    3.2330 c3        1 TTM      0.186400
      6 C4'        -0.4670   -0.2700    2.8990 c3        1 TTM      0.089100
      7 O4'         0.6520   -1.0420    2.4390 os        1 TTM     -0.441600
      8 C1'         0.9440   -0.7500    1.0460 c3        1 TTM      0.325500
      9 N1          1.1610   -1.9600    0.2760 n         1 TTM     -0.317400
     10 C6          0.1250   -2.5600   -0.3920 c1        1 TTM     -0.074900
     11 C2          2.4690   -2.5160    0.3050 c         1 TTM      0.722100
     12 O2          3.4420   -1.9380    0.8650 o         1 TTM     -0.705100
     13 N3          2.6900   -3.7350   -0.3770 n         1 TTM     -0.498400
     14 C1Q         4.0060   -4.3210   -0.3040 c3        1 TTM      0.102000
     15 C2Q         4.3260   -5.0190    1.0120 c3        1 TTM     -0.108100
     16 C4          1.6350   -4.4030   -1.0740 c         1 TTM      0.680300
     17 O4          1.9170   -5.4920   -1.6380 o         1 TTM     -0.717100
     18 C5          0.3490   -3.7450   -1.0750 ce        1 TTM     -0.502500
     19 C5M        -0.7430   -4.3910   -1.8250 c3        1 TTM      0.045100
     20 C2'        -0.1960    0.1570    0.5320 c3        1 TTM     -0.141400
     21 C3'        -0.8040    0.7590    1.8000 c3        1 TTM      0.100100
     22 O3'        -0.2300    2.0270    2.0850 oh        1 TTM     -0.609800
     23 OP3        -3.9590    0.4440    2.9700 o         1 TTM     -0.843500
     24 H5'        -1.2260   -2.2330    3.4190 h1        1 TTM      0.039700
     25 H5''       -2.3690   -1.2390    2.3770 h1        1 TTM      0.039700
     26 H4'        -0.1180    0.2400    3.8380 h1        1 TTM      0.065700
     27 H1'         1.9240   -0.1810    1.0760 h2        1 TTM      0.051700
     28 H6         -4.6280   -1.8460    2.9820 ho        1 TTM      0.423000
     29 H1Q         4.0980   -5.0670   -1.1450 h1        1 TTM      0.046200
     30 H2Q         4.7680   -3.5030   -0.4620 h1        1 TTM      0.046200
     31 H2          4.2550   -4.2980    1.8610 hc        1 TTM      0.030033
     32 H3Q         3.6210   -5.8640    1.1970 hc        1 TTM      0.030033
     33 H4Q         5.3660   -5.4240    0.9650 hc        1 TTM      0.030033
     34 H71        -1.7080   -3.8580   -1.6460 hc        1 TTM      0.000367
     35 H72        -0.8590   -5.4610   -1.5160 hc        1 TTM      0.000367
     36 H73        -0.5320   -4.3840   -2.9260 hc        1 TTM      0.000367
     37 H2'        -0.9640   -0.4470   -0.0180 hc        1 TTM      0.079200
     38 H2''        0.2090    0.9440   -0.1450 hc        1 TTM      0.079200
     39 H3'        -1.9100    0.9550    1.7240 h1        1 TTM      0.145700
     40 HO3'        0.7070    1.8760    2.2540 ho        1 TTM      0.381000
@<TRIPOS>BOND
     1    1    2 1   
     2    1    3 1   
     3    1    4 1   
     4    1   23 1   
     5    3   28 1   
     6    4    5 1   
     7    5    6 1   
     8    5   24 1   
     9    5   25 1   
    10    6    7 1   
    11    6   21 1   
    12    6   26 1   
    13    7    8 1   
    14    8    9 1   
    15    8   20 1   
    16    8   27 1   
    17    9   10 2   
    18    9   11 1   
    19   10   18 2   
    20   11   12 2   
    21   11   13 1   
    22   13   14 1   
    23   13   16 1   
    24   14   15 1   
    25   14   29 1   
    26   14   30 1   
    27   15   31 1   
    28   15   32 1   
    29   15   33 1   
    30   16   17 2   
    31   16   18 1   
    32   18   19 1   
    33   19   34 1   
    34   19   35 1   
    35   19   36 1   
    36   20   21 1   
    37   20   37 1   
    38   20   38 1   
    39   21   22 1   
    40   21   39 1   
    41   22   40 1   
@<TRIPOS>SUBSTRUCTURE
     1 TTM         1 TEMP              0 ****  ****    0 ROOT
