@<TRIPOS>MOLECULE
TTN
   10     9     1     0     0
SMALL
bcc


@<TRIPOS>ATOM
      1 C1         -1.3110   -0.1780   -0.0700 c         1 TTN      0.904600
      2 C2          0.0050    0.2540    0.6050 c3        1 TTN     -0.062900
      3 C3          1.3010   -0.2340   -0.0710 c         1 TTN      0.904600
      4 O1         -1.8040    0.5640   -0.9760 o         1 TTN     -0.884800
      5 O2         -1.9180   -1.2120    0.3480 o         1 TTN     -0.884800
      6 O3          0.0350    1.6800    0.6770 oh        1 TTN     -0.654800
      7 O4          1.8230    0.4860   -0.9780 o         1 TTN     -0.884800
      8 O5          1.8630   -1.2930    0.3460 o         1 TTN     -0.884800
      9 H2         -0.0020   -0.0870    1.6750 h1        1 TTN      0.034700
     10 HO3         0.0410    1.9660   -0.2470 ho        1 TTN      0.411000
@<TRIPOS>BOND
     1    1    2 1   
     2    1    4 1   
     3    1    5 1   
     4    2    3 1   
     5    2    6 1   
     6    2    9 1   
     7    3    7 1   
     8    3    8 1   
     9    6   10 1   
@<TRIPOS>SUBSTRUCTURE
     1 TTN         1 TEMP              0 ****  ****    0 ROOT
