@<TRIPOS>MOLECULE
TTN
   10     9     1     0     0
SMALL
bcc


@<TRIPOS>ATOM
      1 C1         -0.0360   -0.1190   -0.0490 c         1 TTN      0.904600
      2 C2          1.4650    0.2230   -0.0060 c3        1 TTN     -0.062900
      3 C3          2.1600    0.0410    1.3580 c         1 TTN      0.904600
      4 O1         -0.3830   -1.3130   -0.3160 o         1 TTN     -0.884800
      5 O2         -0.8930    0.8060    0.0980 o         1 TTN     -0.884800
      6 O3          2.1440   -0.5780   -0.9750 oh        1 TTN     -0.654800
      7 O4          2.6670   -1.0900    1.6370 o         1 TTN     -0.884800
      8 O5          2.2860    1.0380    2.1330 o         1 TTN     -0.884800
      9 H2          1.6110    1.2800   -0.3540 h1        1 TTN      0.034700
     10 HO3         2.0150   -1.4850   -0.6690 ho        1 TTN      0.411000
@<TRIPOS>BOND
     1    1    2 1   
     2    1    4 1   
     3    1    5 1   
     4    2    3 1   
     5    2    6 1   
     6    2    9 1   
     7    3    7 1   
     8    3    8 1   
     9    6   10 1   
@<TRIPOS>SUBSTRUCTURE
     1 TTN         1 TEMP              0 ****  ****    0 ROOT
