@<TRIPOS>MOLECULE
TTQ
   29    30     1     0     0
SMALL
bcc


@<TRIPOS>ATOM
      1 N          -1.3610    4.3380    5.5690 n3        1 TTQ     -0.890800
      2 CA         -1.1630    2.9430    5.1830 c3        1 TTQ      0.024500
      3 C          -1.8140    2.6110    3.8010 c         1 TTQ      0.884600
      4 O          -2.9400    3.1200    3.5430 o         1 TTQ     -0.845300
      5 CB         -1.7150    1.9830    6.2510 c3        1 TTQ      0.006800
      6 CG         -0.9970    0.7010    6.2910 cc        1 TTQ     -0.127400
      7 CD1        -0.4640    0.0060    5.2040 cd        1 TTQ     -0.090100
      8 CD2        -0.7280   -0.0940    7.4740 ca        1 TTQ     -0.098800
      9 NE1         0.1060   -1.2000    5.6360 na        1 TTQ     -0.191400
     10 CE2        -0.0230   -1.2750    7.0190 ca        1 TTQ     -0.043200
     11 CE3        -0.9900    0.0530    8.8340 ca        1 TTQ     -0.062000
     12 CZ2         0.3920   -2.2590    7.9310 ca        1 TTQ      0.005100
     13 CZ3        -0.5720   -0.9180    9.7300 ca        1 TTQ     -0.206000
     14 CH2         0.1190   -2.0840    9.3040 ca        1 TTQ      0.082600
     15 O2          1.1260   -3.3450    7.4790 oh        1 TTQ     -0.527100
     16 N2          0.4600   -3.0950   10.2290 nh        1 TTQ     -0.797200
     17 OXT        -1.1680    1.8730    3.0010 o         1 TTQ     -0.845300
     18 H          -2.3510    4.5050    5.6260 hn        1 TTQ      0.330800
     19 H2         -1.0170    4.9110    4.8190 hn        1 TTQ      0.330800
     20 HA         -0.0510    2.7780    5.0910 h1        1 TTQ      0.047700
     21 HB2        -1.6600    2.4540    7.2710 hc        1 TTQ      0.043200
     22 HB3        -2.8020    1.7960    6.0270 hc        1 TTQ      0.043200
     23 HD1        -0.4760    0.3100    4.1420 h4        1 TTQ      0.244000
     24 HE1         0.6400   -1.8170    5.0880 hn        1 TTQ      0.293700
     25 HE3        -1.5250    0.9460    9.1910 ha        1 TTQ      0.134000
     26 HZ3        -0.7850   -0.7860   10.8010 ha        1 TTQ      0.117000
     27 HO2         0.5110   -4.0940    7.4760 ho        1 TTQ      0.402000
     28 HN21        1.2630   -3.6110    9.9280 hn        1 TTQ      0.366800
     29 HN22        0.5960   -2.7280   11.1480 hn        1 TTQ      0.366800
@<TRIPOS>BOND
     1    1    2 1   
     2    1   18 1   
     3    1   19 1   
     4    2    3 1   
     5    2    5 1   
     6    2   20 1   
     7    3    4 1   
     8    3   17 1   
     9    5    6 1   
    10    5   21 1   
    11    5   22 1   
    12    6    7 2   
    13    6    8 1   
    14    7    9 1   
    15    7   23 1   
    16    8   10 ar  
    17    8   11 ar  
    18    9   10 1   
    19    9   24 1   
    20   10   12 ar  
    21   11   13 ar  
    22   11   25 1   
    23   12   14 ar  
    24   12   15 1   
    25   13   14 ar  
    26   13   26 1   
    27   14   16 1   
    28   15   27 1   
    29   16   28 1   
    30   16   29 1   
@<TRIPOS>SUBSTRUCTURE
     1 TTQ         1 TEMP              0 ****  ****    0 ROOT
