@<TRIPOS>MOLECULE
TTS
   41    42     1     0     0
SMALL
bcc


@<TRIPOS>ATOM
      1 N           4.7890   -4.4120   -0.2330 n3        1 TTS     -0.888800
      2 CA          4.6910   -2.9900    0.0820 c3        1 TTS      0.027500
      3 CB          3.4710   -2.6950    0.9740 c3        1 TTS     -0.033200
      4 C           5.9870   -2.4470    0.7710 c         1 TTS      0.881600
      5 O           6.5310   -3.1630    1.6550 o         1 TTS     -0.842300
      6 CG          2.8340   -1.3800    0.6830 cc        1 TTS     -0.130400
      7 CD1         1.3560   -1.3130    0.7180 c         1 TTS      0.578500
      8 OD1         0.6320   -2.2640    1.0530 o         1 TTS     -0.554100
      9 CE1         0.7660   -0.0310    0.3170 cc        1 TTS     -0.369200
     10 CD2         3.5610   -0.2800    0.4180 cd        1 TTS     -0.259600
     11 CE2         3.0020    1.0490    0.1280 cd        1 TTS      0.488900
     12 NE2         3.6850    2.1390   -0.0360 n2        1 TTS     -0.551900
     13 CZ          1.5140    1.0610    0.0330 cd        1 TTS      0.100500
     14 OH          0.9500    2.2510   -0.3570 oh        1 TTS     -0.480100
     15 C3'         3.9650    6.3670    1.1990 ca        1 TTS     -0.189500
     16 C2'         4.2310    5.2680    0.3870 ca        1 TTS     -0.085000
     17 C1'         5.4630    4.6060    0.4620 ca        1 TTS     -0.099300
     18 C6'         6.4280    5.0590    1.3700 ca        1 TTS     -0.085000
     19 C5'         6.1830    6.1560    2.1900 ca        1 TTS     -0.189500
     20 C4'         4.9450    6.8090    2.0980 ca        1 TTS      0.107100
     21 C2          5.7470    3.4430   -0.4200 c3        1 TTS     -0.024100
     22 C1          5.1180    2.1400    0.0830 c3        1 TTS      0.089800
     23 O1          4.7550    7.8970    2.9250 oh        1 TTS     -0.509100
     24 OXT         6.4370   -1.3260    0.3850 o         1 TTS     -0.842300
     25 H           5.6320   -4.5490   -0.7620 hn        1 TTS      0.333300
     26 H2          4.9050   -4.9160    0.6300 hn        1 TTS      0.333300
     27 HA          4.5660   -2.4450   -0.8970 h1        1 TTS      0.046700
     28 HB2         3.8080   -2.7030    2.0470 hc        1 TTS      0.064700
     29 HB3         2.6950   -3.5000    0.8620 hc        1 TTS      0.064700
     30 HE1        -0.3320   -0.0040    0.2570 ha        1 TTS      0.138000
     31 HD2         4.6760   -0.3630    0.4080 ha        1 TTS      0.226000
     32 HH         -0.0120    2.1340   -0.3760 ho        1 TTS      0.411000
     33 H6'         7.3950    4.5360    1.4420 ha        1 TTS      0.145000
     34 H5'         6.9360    6.5130    2.9050 ha        1 TTS      0.133000
     35 H21         5.3890    3.6660   -1.4600 hc        1 TTS      0.051200
     36 H22         6.8560    3.2690   -0.4750 hc        1 TTS      0.051200
     37 H11         5.5930    1.2850   -0.4890 h1        1 TTS      0.085200
     38 H12         5.4040    1.9940    1.1670 h1        1 TTS      0.085200
     39 HO1         3.8460    8.2030    2.8000 ho        1 TTS      0.411000
     40 H3'         2.9940    6.8780    1.1410 ha        1 TTS      0.133000
     41 H2'         3.4610    4.9040   -0.3120 ha        1 TTS      0.145000
@<TRIPOS>BOND
     1    1    2 1   
     2    1   25 1   
     3    1   26 1   
     4    2    3 1   
     5    2    4 1   
     6    2   27 1   
     7    3    6 1   
     8    3   28 1   
     9    3   29 1   
    10    4    5 1   
    11    4   24 1   
    12    6    7 1   
    13    6   10 2   
    14    7    8 2   
    15    7    9 1   
    16    9   13 2   
    17    9   30 1   
    18   10   11 1   
    19   10   31 1   
    20   11   12 2   
    21   11   13 1   
    22   12   22 1   
    23   13   14 1   
    24   14   32 1   
    25   15   16 ar  
    26   15   20 ar  
    27   15   40 1   
    28   16   17 ar  
    29   16   41 1   
    30   17   18 ar  
    31   17   21 1   
    32   18   19 ar  
    33   18   33 1   
    34   19   20 ar  
    35   19   34 1   
    36   20   23 1   
    37   21   22 1   
    38   21   35 1   
    39   21   36 1   
    40   22   37 1   
    41   22   38 1   
    42   23   39 1   
@<TRIPOS>SUBSTRUCTURE
     1 TTS         1 TEMP              0 ****  ****    0 ROOT
