@<TRIPOS>MOLECULE
TTT
   43    38     1     0     0
SMALL
bcc


@<TRIPOS>ATOM
      1 C1          0.8160   -0.4620    1.2230 c1        1 TTT      0.353000
      2 C3          2.3160   -0.2640    1.2860 c1        1 TTT     -0.082000
      3 C8         -2.9040    0.6520   -1.1060 c1        1 TTT     -0.021000
      4 C9         -1.7230    0.1650   -3.5850 c1        1 TTT     -0.134000
      5 C10         2.8480    0.1050    2.5120 c1        1 TTT     -0.062000
      6 C11        -3.3810    1.2920   -2.2250 c1        1 TTT     -0.041000
      7 C12        -2.7880    1.0490   -3.4800 c1        1 TTT     -0.111000
      8 C13         3.1550   -0.6690    0.2600 c2        1 TTT     -0.167000
      9 C14        -3.5170    0.8690    0.1430 c1        1 TTT     -0.125000
     10 C16         2.5310    0.7500    3.8440 c2        1 TTT     -0.189000
     11 C19         4.5260   -0.7060    0.4590 c1        1 TTT      0.049000
     12 C20        -4.6030    1.7290    0.2430 c1        1 TTT     -0.125000
     13 C21         5.0590   -0.3370    1.6850 c1        1 TTT     -0.170000
     14 C22        -5.0850    2.3760   -0.8900 c1        1 TTT     -0.125000
     15 O7          0.1400   -0.2970    2.2190 o         1 TTT     -0.370000
     16 C17         4.2200    0.0690    2.7110 c2        1 TTT     -0.101000
     17 N01         5.4060   -1.0900   -0.5850 n3        1 TTT     -0.327000
     18 N2          0.1900   -0.7560   -0.0190 n3        1 TTT     -0.373000
     19 C6         -1.2050   -1.0160   -0.0670 c3        1 TTT      0.055000
     20 C01        -1.4340   -2.4950   -0.2740 c3        1 TTT     -0.222000
     21 C5         -1.8240   -0.2450   -1.2140 c2        1 TTT     -0.086000
     22 C18        -4.4820    2.1630   -2.1230 c1        1 TTT     -0.125000
     23 C4         -1.2400   -0.4830   -2.4520 c2        1 TTT     -0.123000
     24 H9         -1.3120   -0.0030   -4.4550 ha        1 TTT      0.132000
     25 H12        -3.1270    1.5030   -4.2750 ha        1 TTT      0.133000
     26 H13         2.7800   -0.9290   -0.6030 ha        1 TTT      0.139000
     27 H14        -3.1790    0.4160    0.9380 ha        1 TTT      0.140250
     28 H16         2.7600    0.1320    4.5690 ha        1 TTT      0.093000
     29 H16A        3.0530    1.5740    3.9400 ha        1 TTT      0.093000
     30 H16B        1.5750    0.9620    3.8850 ha        1 TTT      0.093000
     31 H20        -5.0280    1.8800    1.1090 ha        1 TTT      0.140250
     32 H21         6.0250   -0.3630    1.8250 ha        1 TTT      0.134000
     33 H22        -5.8490    2.9810   -0.8190 ha        1 TTT      0.140250
     34 H17         4.5950    0.3290    3.5740 ha        1 TTT      0.136000
     35 HN01        6.2940   -1.2220   -0.4090 hn        1 TTT      0.185000
     36 HN0A        5.0870   -1.2040   -1.4340 hn        1 TTT      0.185000
     37 HN2         0.6870   -0.7840   -0.7830 hn        1 TTT      0.226000
     38 H6         -1.6180   -0.7370    0.7730 h1        1 TTT      0.136000
     39 H01        -0.5830   -2.9310   -0.4870 hc        1 TTT      0.082667
     40 H01A       -1.8050   -2.8860    0.5450 hc        1 TTT      0.082667
     41 H01B       -2.0630   -2.6280   -1.0140 hc        1 TTT      0.082667
     42 H18        -4.8200    2.6170   -2.9170 ha        1 TTT      0.140250
     43 H4         -0.4910   -1.1040   -2.5260 ha        1 TTT      0.130000
@<TRIPOS>BOND
     1    1   15 1   
     2    1   18 1   
     3    2    5 1   
     4    2    8 1   
     5    3    6 1   
     6    3   21 1   
     7    4   23 1   
     8    4   24 1   
     9    5   16 1   
    10    6    7 1   
    11    7   25 1   
    12    8   11 1   
    13    8   26 1   
    14    9   12 1   
    15    9   27 1   
    16   10   28 1   
    17   10   29 1   
    18   10   30 1   
    19   11   17 1   
    20   12   31 1   
    21   13   16 1   
    22   13   32 1   
    23   14   22 1   
    24   14   33 1   
    25   16   34 1   
    26   17   35 1   
    27   17   36 1   
    28   18   19 1   
    29   18   37 1   
    30   19   20 1   
    31   19   21 1   
    32   19   38 1   
    33   20   39 1   
    34   20   40 1   
    35   20   41 1   
    36   21   23 1   
    37   22   42 1   
    38   23   43 1   
@<TRIPOS>SUBSTRUCTURE
     1 TTT         1 TEMP              0 ****  ****    0 ROOT
