@<TRIPOS>MOLECULE
TTT
   44    46     1     0     0
SMALL
bcc


@<TRIPOS>ATOM
      1 C1         -0.3070    0.1220    0.0360 c         1 TTT      0.577700
      2 C3          1.1540    0.0500    0.1580 ca        1 TTT     -0.159600
      3 C8         -3.6980    1.4350   -2.2740 ca        1 TTT     -0.020000
      4 C9         -3.3650    1.3120   -5.0770 ca        1 TTT     -0.146000
      5 C10         1.7570    0.5100    1.3360 ca        1 TTT     -0.035300
      6 C11        -4.5100    2.2180   -3.1390 ca        1 TTT     -0.047000
      7 C12        -4.3270    2.1360   -4.5460 ca        1 TTT     -0.057000
      8 C13         1.9120   -0.4940   -0.8900 ca        1 TTT     -0.203000
      9 C14        -3.9240    1.5290   -0.8720 ca        1 TTT     -0.185000
     10 C16         0.9680    1.0450    2.4670 c3        1 TTT     -0.073800
     11 C19         3.3170   -0.5670   -0.7880 ca        1 TTT      0.184600
     12 C20        -4.8960    2.3590   -0.3670 ca        1 TTT     -0.077000
     13 C21         3.9270   -0.0790    0.4050 ca        1 TTT     -0.132000
     14 C22        -5.6940    3.1450   -1.2320 ca        1 TTT     -0.122000
     15 O7         -1.1680   -0.1520    0.8600 o         1 TTT     -0.429100
     16 C17         3.1600    0.4400    1.4280 ca        1 TTT     -0.087000
     17 N01         4.0880   -1.0220   -1.8420 nh        1 TTT     -0.836200
     18 N2         -0.8180    0.6680   -1.2830 n4        1 TTT     -0.689800
     19 C6         -1.8390   -0.2410   -1.9510 c3        1 TTT      0.197800
     20 C01        -1.1590   -1.4130   -2.6410 c3        1 TTT     -0.129100
     21 C5         -2.6990    0.5910   -2.8560 ca        1 TTT     -0.183300
     22 C18        -5.5060    3.0720   -2.5890 ca        1 TTT     -0.092000
     23 C4         -2.5450    0.5410   -4.2270 ca        1 TTT     -0.064000
     24 H13         1.4110   -0.9040   -1.7810 ha        1 TTT      0.130000
     25 H14        -3.3460    0.9080   -0.1710 ha        1 TTT      0.125000
     26 H16         0.1950    1.7710    2.1130 hc        1 TTT      0.065033
     27 H16A        1.6240    1.5640    3.2090 hc        1 TTT      0.065033
     28 H16B        0.4390    0.2060    2.9910 hc        1 TTT      0.065033
     29 H20        -5.0710    2.4150    0.7200 ha        1 TTT      0.151000
     30 H21         5.0240   -0.1170    0.5120 ha        1 TTT      0.161000
     31 H22        -6.4660    3.8030   -0.8020 ha        1 TTT      0.157000
     32 H17         3.6510    0.8040    2.3470 ha        1 TTT      0.164000
     33 HN01        3.6440   -1.6060   -2.5110 hn        1 TTT      0.423300
     34 HN0A        5.0380   -1.2360   -1.6440 hn        1 TTT      0.423300
     35 HN2        -0.0330    0.8280   -1.9210 hn        1 TTT      0.460800
     36 H6         -2.4830   -0.6590   -1.1120 hx        1 TTT      0.125700
     37 H01        -0.3970   -1.0860   -3.3900 hc        1 TTT      0.074033
     38 H01A       -1.9450   -2.0090   -3.1720 hc        1 TTT      0.074033
     39 H01B       -0.6640   -2.0780   -1.8910 hc        1 TTT      0.074033
     40 H18        -6.1250    3.6700   -3.2780 ha        1 TTT      0.153000
     41 H4         -1.7860   -0.1090   -4.6940 ha        1 TTT      0.140000
     42 H9         -3.2230    1.2400   -6.1670 ha        1 TTT      0.158000
     43 H221       -1.2820    1.5690   -1.1000 hn        1 TTT      0.460800
     44 H12        -4.9730    2.7450   -5.2010 ha        1 TTT      0.157000
@<TRIPOS>BOND
     1    1    2 1   
     2    1   15 2   
     3    1   18 1   
     4    2    5 ar  
     5    2    8 ar  
     6    3    6 ar  
     7    3    9 ar  
     8    3   21 ar  
     9    4    7 ar  
    10    4   23 ar  
    11    4   42 1   
    12    5   10 1   
    13    5   16 ar  
    14    6    7 ar  
    15    6   22 ar  
    16    7   44 1   
    17    8   11 ar  
    18    8   24 1   
    19    9   12 ar  
    20    9   25 1   
    21   10   26 1   
    22   10   27 1   
    23   10   28 1   
    24   11   13 ar  
    25   11   17 1   
    26   12   14 ar  
    27   12   29 1   
    28   13   16 ar  
    29   13   30 1   
    30   14   22 ar  
    31   14   31 1   
    32   16   32 1   
    33   17   33 1   
    34   17   34 1   
    35   18   19 1   
    36   18   35 1   
    37   18   43 1   
    38   19   20 1   
    39   19   21 1   
    40   19   36 1   
    41   20   37 1   
    42   20   38 1   
    43   20   39 1   
    44   21   23 ar  
    45   22   40 1   
    46   23   41 1   
@<TRIPOS>SUBSTRUCTURE
     1 TTT         1 TEMP              0 ****  ****    0 ROOT
