@<TRIPOS>MOLECULE
TTT
   45    47     1     0     0
SMALL
bcc


@<TRIPOS>ATOM
      1 C1         -0.1390   -0.2310   -0.4040 c         1 TTT      0.549700
      2 C3          1.3200   -0.0580   -0.2080 ca        1 TTT     -0.176600
      3 C8         -3.8440    1.2500   -1.9840 ca        1 TTT     -0.015000
      4 C9         -3.6660    2.3780   -4.5720 ca        1 TTT     -0.151000
      5 C10         1.9350    1.1880    0.0020 ca        1 TTT      0.035700
      6 C11        -4.8320    2.1590   -2.4520 ca        1 TTT     -0.052000
      7 C12        -4.7250    2.7100   -3.7570 ca        1 TTT     -0.033000
      8 C13         2.0670   -1.2470   -0.1490 ca        1 TTT     -0.032000
      9 C14        -3.9990    0.7030   -0.6810 ca        1 TTT     -0.206000
     10 C16         1.1890    2.4660    0.0470 c3        1 TTT     -0.110800
     11 C19         3.4460   -1.1850    0.0870 ca        1 TTT     -0.068400
     12 C20        -5.0720    1.0460    0.1080 ca        1 TTT     -0.061000
     13 C21         4.0850    0.0610    0.2560 ca        1 TTT     -0.046000
     14 C22        -6.0450    1.9620   -0.3570 ca        1 TTT     -0.120000
     15 O7         -0.8160   -1.0930    0.1440 o         1 TTT     -0.397100
     16 C17         3.3260    1.2220    0.2150 ca        1 TTT     -0.100000
     17 N01         4.2350   -2.4130    0.1830 n4        1 TTT     -0.704000
     18 N2         -0.8340    0.6880   -1.3510 n4        1 TTT     -0.684800
     19 C6         -1.7210   -0.0460   -2.3780 c3        1 TTT      0.217800
     20 C01        -0.8730   -0.6610   -3.4760 c3        1 TTT     -0.132100
     21 C5         -2.7510    0.9270   -2.8510 ca        1 TTT     -0.213300
     22 C18        -5.9290    2.5030   -1.6130 ca        1 TTT     -0.079000
     23 C4         -2.6750    1.4880   -4.1140 ca        1 TTT     -0.049000
     24 H13         1.5410   -2.2130   -0.2710 ha        1 TTT      0.180000
     25 H14        -3.2880   -0.0460   -0.3000 ha        1 TTT      0.112000
     26 H16         0.1910    2.3480    0.5380 hc        1 TTT      0.086700
     27 H16A        1.7550    3.2340    0.6420 hc        1 TTT      0.086700
     28 H16B        1.0590    2.8880   -0.9840 hc        1 TTT      0.086700
     29 H20        -5.1930    0.6030    1.1100 ha        1 TTT      0.155000
     30 H21         5.1750    0.1320    0.4320 ha        1 TTT      0.187000
     31 H22        -6.8960    2.2210    0.2940 ha        1 TTT      0.167000
     32 H17         3.8260    2.1990    0.3670 ha        1 TTT      0.200000
     33 HN01        3.6630   -3.2320   -0.0610 hn        1 TTT      0.478133
     34 HN0A        5.0390   -2.3620   -0.4570 hn        1 TTT      0.478133
     35 HN2        -0.1540    1.2680   -1.8510 hn        1 TTT      0.467800
     36 H6         -2.2260   -0.8840   -1.8010 hx        1 TTT      0.129700
     37 H01        -1.5650   -1.1190   -4.2300 hc        1 TTT      0.076367
     38 H01A       -0.2320    0.0890   -4.0010 hc        1 TTT      0.076367
     39 H01B       -0.2210   -1.4710   -3.0670 hc        1 TTT      0.076367
     40 H18        -6.6860    3.2080   -1.9960 ha        1 TTT      0.163000
     41 H4         -1.8480    1.2420   -4.8010 ha        1 TTT      0.140000
     42 H9         -3.5860    2.7950   -5.5890 ha        1 TTT      0.168000
     43 H013        4.5810   -2.5240    1.1470 hn        1 TTT      0.478133
     44 H221       -1.4630    1.3060   -0.8110 hn        1 TTT      0.467800
     45 H12        -5.5080    3.4050   -4.1080 ha        1 TTT      0.168000
@<TRIPOS>BOND
     1    1    2 1   
     2    1   15 2   
     3    1   18 1   
     4    2    5 ar  
     5    2    8 ar  
     6    3    6 ar  
     7    3    9 ar  
     8    3   21 ar  
     9    4    7 ar  
    10    4   23 ar  
    11    4   42 1   
    12    5   10 1   
    13    5   16 ar  
    14    6    7 ar  
    15    6   22 ar  
    16    7   45 1   
    17    8   11 ar  
    18    8   24 1   
    19    9   12 ar  
    20    9   25 1   
    21   10   26 1   
    22   10   27 1   
    23   10   28 1   
    24   11   13 ar  
    25   11   17 1   
    26   12   14 ar  
    27   12   29 1   
    28   13   16 ar  
    29   13   30 1   
    30   14   22 ar  
    31   14   31 1   
    32   16   32 1   
    33   17   33 1   
    34   17   34 1   
    35   17   43 1   
    36   18   19 1   
    37   18   35 1   
    38   18   44 1   
    39   19   20 1   
    40   19   21 1   
    41   19   36 1   
    42   20   37 1   
    43   20   38 1   
    44   20   39 1   
    45   21   23 ar  
    46   22   40 1   
    47   23   41 1   
@<TRIPOS>SUBSTRUCTURE
     1 TTT         1 TEMP              0 ****  ****    0 ROOT
