@<TRIPOS>MOLECULE
TTT
   43    45     1     0     0
SMALL
bcc


@<TRIPOS>ATOM
      1 C1         -1.2460    0.7310   -0.8100 c         1 TTT      0.678700
      2 C3         -2.5300    0.4060   -0.1150 ca        1 TTT     -0.103600
      3 C8          2.6080    0.2350   -0.0470 ca        1 TTT     -0.021000
      4 C9          3.3920   -2.4730   -0.1390 ca        1 TTT     -0.134000
      5 C10        -2.7500    0.8240    1.2040 ca        1 TTT     -0.069300
      6 C11         3.7010   -0.2340    0.7320 ca        1 TTT     -0.041000
      7 C12         4.0780   -1.6030    0.6690 ca        1 TTT     -0.111000
      8 C13        -3.5030   -0.3010   -0.8200 ca        1 TTT     -0.164000
      9 C14         2.2280    1.6010    0.0840 ca        1 TTT     -0.124000
     10 C16        -1.7230    1.5690    1.9670 c3        1 TTT     -0.063800
     11 C19        -4.7410   -0.6120   -0.2150 ca        1 TTT      0.126600
     12 C20         2.9200    2.4510    0.9120 ca        1 TTT     -0.127000
     13 C21        -4.9620   -0.1860    1.1150 ca        1 TTT     -0.169000
     14 C22         4.0250    1.9860    1.6620 ca        1 TTT     -0.126000
     15 O7         -0.8990    1.9040   -1.0620 o         1 TTT     -0.612100
     16 C17        -3.9790    0.5130    1.8010 ca        1 TTT     -0.102000
     17 N01        -5.6880   -1.3960   -0.8860 nh        1 TTT     -0.815200
     18 N2         -0.4780   -0.3490   -1.1960 n         1 TTT     -0.562900
     19 C6          0.8210   -0.2080   -1.8210 c3        1 TTT      0.140000
     20 C01         0.8850   -0.9260   -3.1750 c3        1 TTT     -0.104100
     21 C5          1.9390   -0.6830   -0.9140 ca        1 TTT     -0.093300
     22 C18         4.4020    0.6690    1.5780 ca        1 TTT     -0.123000
     23 C4          2.3190   -2.0080   -0.9320 ca        1 TTT     -0.122000
     24 H12         4.9250   -1.9470    1.2820 ha        1 TTT      0.133000
     25 H13        -3.3010   -0.6110   -1.8570 ha        1 TTT      0.139000
     26 H14         1.3500    1.9800   -0.4690 ha        1 TTT      0.161000
     27 H16        -1.1910    2.2990    1.3050 hc        1 TTT      0.054033
     28 H16A       -2.1850    2.1320    2.8150 hc        1 TTT      0.054033
     29 H16B       -0.9670    0.8600    2.3880 hc        1 TTT      0.054033
     30 H20         2.6180    3.5060    1.0030 ha        1 TTT      0.135000
     31 H21        -5.9150   -0.4120    1.6160 ha        1 TTT      0.134000
     32 H22         4.5670    2.6870    2.3130 ha        1 TTT      0.132000
     33 H17        -4.1690    0.8350    2.8370 ha        1 TTT      0.136000
     34 HN01       -5.6260   -1.3480   -1.8790 hn        1 TTT      0.388300
     35 HN0A       -6.6190   -1.2820   -0.5490 hn        1 TTT      0.388300
     36 HN2        -0.7380   -1.2580   -0.8950 hn        1 TTT      0.315500
     37 H6          0.9760    0.8940   -2.0420 h1        1 TTT      0.095700
     38 H01         0.2390   -0.3960   -3.9160 hc        1 TTT      0.043367
     39 H01A        1.9390   -0.9150   -3.5410 hc        1 TTT      0.043367
     40 H01B        0.5390   -1.9850   -3.1060 hc        1 TTT      0.043367
     41 H18         5.2530    0.2870    2.1630 ha        1 TTT      0.131000
     42 H4          1.7970   -2.7320   -1.5760 ha        1 TTT      0.131000
     43 H9          3.6680   -3.5370   -0.1860 ha        1 TTT      0.132000
@<TRIPOS>BOND
     1    1    2 1   
     2    1   15 2   
     3    1   18 1   
     4    2    5 ar  
     5    2    8 ar  
     6    3    6 ar  
     7    3    9 ar  
     8    3   21 ar  
     9    4    7 ar  
    10    4   23 ar  
    11    4   43 1   
    12    5   10 1   
    13    5   16 ar  
    14    6    7 ar  
    15    6   22 ar  
    16    7   24 1   
    17    8   11 ar  
    18    8   25 1   
    19    9   12 ar  
    20    9   26 1   
    21   10   27 1   
    22   10   28 1   
    23   10   29 1   
    24   11   13 ar  
    25   11   17 1   
    26   12   14 ar  
    27   12   30 1   
    28   13   16 ar  
    29   13   31 1   
    30   14   22 ar  
    31   14   32 1   
    32   16   33 1   
    33   17   34 1   
    34   17   35 1   
    35   18   19 1   
    36   18   36 1   
    37   19   20 1   
    38   19   21 1   
    39   19   37 1   
    40   20   38 1   
    41   20   39 1   
    42   20   40 1   
    43   21   23 ar  
    44   22   41 1   
    45   23   42 1   
@<TRIPOS>SUBSTRUCTURE
     1 TTT         1 TEMP              0 ****  ****    0 ROOT
