@<TRIPOS>MOLECULE
TTX
   64    65     1     0     0
SMALL
bcc


@<TRIPOS>ATOM
      1 C7         -0.1140   -0.6170   -0.5720 c3        1 TTX      0.078100
      2 N1          1.3550   -0.3580   -0.4690 nx        1 TTX     -0.376000
      3 C15         1.9420   -0.5170    0.8530 ce        1 TTX     -0.387200
      4 C16         1.2380   -0.8580    2.0500 cf        1 TTX      0.186800
      5 C17        -0.0290   -0.6390    2.5650 ca        1 TTX     -0.196800
      6 C22        -0.4210   -1.4680    3.6820 ca        1 TTX     -0.011000
      7 C21        -1.6520   -1.3140    4.2950 ca        1 TTX     -0.141000
      8 C20        -2.5330   -0.3120    3.8710 ca        1 TTX      0.102000
      9 C19        -2.1500    0.5550    2.8160 ca        1 TTX     -0.141000
     10 C18        -0.9430    0.3960    2.1820 ca        1 TTX     -0.011000
     11 C6          1.7840    0.9500   -1.0840 c         1 TTX      0.549100
     12 O1          2.8470    0.9000   -1.7180 o         1 TTX     -0.559100
     13 C5          1.0300    2.2690   -0.8960 c3        1 TTX      0.090500
     14 C4         -0.1350    2.3870   -1.9010 c3        1 TTX     -0.122400
     15 C2         -1.3220    3.1470   -1.3110 c3        1 TTX     -0.069700
     16 C1         -0.9680    4.5630   -0.9190 c3        1 TTX     -0.124100
     17 C3         -2.4450    3.1480   -2.3350 c3        1 TTX     -0.124100
     18 N2          1.9920    3.4350   -1.0650 ny        1 TTX     -0.681800
     19 C8          3.2450    3.2770   -0.2540 c         1 TTX      0.491100
     20 O2          3.0960    2.9100    0.9020 o         1 TTX     -0.363100
     21 C9          4.6230    3.5990   -0.8680 c3        1 TTX      0.089500
     22 C10         4.5350    4.4340   -2.1340 c3        1 TTX     -0.176100
     23 N3          5.4380    2.3320   -1.0530 nx        1 TTX     -0.603200
     24 C11         6.8480    2.6890   -1.4470 c3        1 TTX      0.075100
     25 C12         5.5070    1.4840    0.2090 c         1 TTX      0.482100
     26 O3          5.5370    2.0680    1.2750 o         1 TTX     -0.277100
     27 C13         5.6590   -0.0280    0.0520 c3        1 TTX      0.033800
     28 N4          4.3950   -0.8060   -0.0670 ny        1 TTX     -0.695800
     29 C14         3.3820   -0.5280    1.0650 c         1 TTX      0.537300
     30 O4          3.9370   -0.3760    2.1450 o         1 TTX     -0.376100
     31 H71        -0.3940   -1.4520    0.1340 hx        1 TTX      0.137700
     32 H72        -0.7090    0.3000   -0.3170 hx        1 TTX      0.137700
     33 H73        -0.3460   -0.9380   -1.6290 hx        1 TTX      0.137700
     34 H161        1.9010   -1.4480    2.7460 ha        1 TTX      0.198000
     35 H221        0.2670   -2.2590    4.0390 ha        1 TTX      0.144500
     36 H211       -1.9400   -1.9800    5.1360 ha        1 TTX      0.211000
     37 H201       -3.5190   -0.1810    4.3670 ha        1 TTX      0.222000
     38 H191       -2.8380    1.3750    2.5340 ha        1 TTX      0.211000
     39 H181       -0.6300    1.1320    1.4270 ha        1 TTX      0.144500
     40 H51         0.6320    2.3280    0.1700 hx        1 TTX      0.173700
     41 H41         0.1910    2.8900   -2.8550 hc        1 TTX      0.107200
     42 H42        -0.4710    1.3560   -2.1960 hc        1 TTX      0.107200
     43 H21        -1.6750    2.5930   -0.3940 hc        1 TTX      0.052700
     44 H11        -0.4520    5.1030   -1.7500 hc        1 TTX      0.072867
     45 H12        -0.3460    4.5910    0.0100 hc        1 TTX      0.072867
     46 H13        -1.9090    5.1370   -0.6970 hc        1 TTX      0.072867
     47 H31        -3.3570    3.6230   -1.8920 hc        1 TTX      0.072867
     48 H32        -2.7080    2.1080   -2.6440 hc        1 TTX      0.072867
     49 H33        -2.1590    3.7340   -3.2430 hc        1 TTX      0.072867
     50 HN21        2.2200    3.5510   -2.0660 hn        1 TTX      0.510800
     51 H91         5.1560    4.2170   -0.0580 hx        1 TTX      0.206700
     52 H101        5.5440    4.8620   -2.3970 hc        1 TTX      0.121367
     53 H102        4.1680    3.8600   -3.0200 hc        1 TTX      0.121367
     54 H103        3.8790    5.3270   -1.9520 hc        1 TTX      0.121367
     55 H111        7.4630    1.7460   -1.4950 hx        1 TTX      0.144033
     56 H112        7.2940    3.3900   -0.6850 hx        1 TTX      0.144033
     57 H113        6.8480    3.1770   -2.4620 hx        1 TTX      0.144033
     58 H131        6.3300   -0.2810   -0.8270 hx        1 TTX      0.192200
     59 H132        6.1980   -0.3710    1.0080 hx        1 TTX      0.192200
     60 HN41        4.0020   -0.6950   -1.0030 hn        1 TTX      0.481300
     61 H114        1.7840   -1.0990   -1.0640 hn        1 TTX      0.468800
     62 H22         1.4730    4.2920   -0.7570 hn        1 TTX      0.510800
     63 H311        5.0240    1.7820   -1.8170 hn        1 TTX      0.458800
     64 H421        4.6660   -1.8080    0.0370 hn        1 TTX      0.481300
@<TRIPOS>BOND
     1    1    2 1   
     2    1   31 1   
     3    1   32 1   
     4    1   33 1   
     5    2    3 1   
     6    2   11 1   
     7    2   61 1   
     8    3    4 2   
     9    3   29 1   
    10    4    5 1   
    11    4   34 1   
    12    5    6 ar  
    13    5   10 ar  
    14    6    7 ar  
    15    6   35 1   
    16    7    8 ar  
    17    7   36 1   
    18    8    9 ar  
    19    8   37 1   
    20    9   10 ar  
    21    9   38 1   
    22   10   39 1   
    23   11   12 2   
    24   11   13 1   
    25   13   14 1   
    26   13   18 1   
    27   13   40 1   
    28   14   15 1   
    29   14   41 1   
    30   14   42 1   
    31   15   16 1   
    32   15   17 1   
    33   15   43 1   
    34   16   44 1   
    35   16   45 1   
    36   16   46 1   
    37   17   47 1   
    38   17   48 1   
    39   17   49 1   
    40   18   19 1   
    41   18   50 1   
    42   18   62 1   
    43   19   20 2   
    44   19   21 1   
    45   21   22 1   
    46   21   23 1   
    47   21   51 1   
    48   22   52 1   
    49   22   53 1   
    50   22   54 1   
    51   23   24 1   
    52   23   25 1   
    53   23   63 1   
    54   24   55 1   
    55   24   56 1   
    56   24   57 1   
    57   25   26 2   
    58   25   27 1   
    59   27   28 1   
    60   27   58 1   
    61   27   59 1   
    62   28   29 1   
    63   28   60 1   
    64   28   64 1   
    65   29   30 2   
@<TRIPOS>SUBSTRUCTURE
     1 TTX         1 TEMP              0 ****  ****    0 ROOT
