@<TRIPOS>MOLECULE
TTX
   60    58     1     0     0
SMALL
bcc


@<TRIPOS>ATOM
      1 C7         -0.9340    0.0650    0.9410 c3        1 TTX     -0.067000
      2 N1          0.5130    0.0650    0.9410 n         1 TTX     -0.326000
      3 C15         1.2240    0.0650    2.1800 c2        1 TTX     -0.040000
      4 C16         1.2700    1.2190    2.9620 c1        1 TTX     -0.043000
      5 C17         0.4380    2.4390    2.5730 c1        1 TTX     -0.076000
      6 C22         1.0250    3.4660    1.8370 c1        1 TTX     -0.106000
      7 C21         0.3600    4.6800    1.6800 c1        1 TTX     -0.127000
      8 C20        -0.8910    4.8670    2.2590 c1        1 TTX     -0.127000
      9 C19        -1.4780    3.8430    2.9940 c1        1 TTX     -0.135000
     10 C18        -0.8150    2.6290    3.1510 c2        1 TTX     -0.116000
     11 C6          1.2530   -0.1380   -0.3280 c2        1 TTX      0.283000
     12 O1          2.4630   -0.2990   -0.3320 o         1 TTX     -0.310000
     13 C5          0.5060    0.1760   -1.6030 c3        1 TTX      0.011000
     14 C4         -0.6350    1.1600   -1.3080 c3        1 TTX     -0.162000
     15 C2         -1.0860    1.8570   -2.6460 c3        1 TTX     -0.107000
     16 C1         -2.5900    2.2060   -2.5650 c3        1 TTX     -0.210500
     17 C3         -0.2700    3.1500   -2.8530 c3        1 TTX     -0.210500
     18 N2         -0.0220   -1.0210   -2.1250 n         1 TTX     -0.368000
     19 C8          1.0530   -2.1170   -2.0430 c2        1 TTX      0.283000
     20 O2          2.1480   -1.8590   -1.5800 o         1 TTX     -0.336000
     21 C9          0.4080   -3.4240   -1.7380 c3        1 TTX      0.010000
     22 C10        -1.0030   -3.4060   -2.2130 c3        1 TTX     -0.223000
     23 N3          0.4350   -3.6660   -0.2570 n         1 TTX     -0.367000
     24 C11        -0.6980   -4.2930    0.3950 c3        1 TTX     -0.070000
     25 C12         1.8790   -4.0260    0.1830 c2        1 TTX      0.278000
     26 O3          2.7730   -4.0720   -0.6420 o         1 TTX     -0.313000
     27 C13         2.1830   -3.4330    1.7100 c3        1 TTX     -0.051000
     28 N4          1.2090   -2.4010    2.0360 n         1 TTX     -0.357000
     29 C14         1.9110   -1.2070    2.6590 c2        1 TTX      0.331000
     30 O4          3.1220   -1.2250    2.8150 o         1 TTX     -0.326000
     31 H71        -1.2600   -0.5170    0.2290 h1        1 TTX      0.079667
     32 H72        -1.2600   -0.2610    1.8020 h1        1 TTX      0.079667
     33 H73        -1.2600    0.9730    0.7930 h1        1 TTX      0.079667
     34 H161        1.7570    1.2140    3.8080 ha        1 TTX      0.163000
     35 H221        1.9030    3.3350    1.4310 ha        1 TTX      0.165000
     36 H211        0.7720    5.3990    1.1640 ha        1 TTX      0.135500
     37 H201       -1.3570    5.7180    2.1490 ha        1 TTX      0.135500
     38 H191       -2.3560    3.9750    3.3990 ha        1 TTX      0.134000
     39 H181       -1.2280    1.9110    3.6670 ha        1 TTX      0.133000
     40 H51         1.1190    0.5720   -2.2510 h1        1 TTX      0.169000
     41 H41        -1.3910    0.6760   -0.9230 hc        1 TTX      0.089500
     42 H42        -0.3260    1.8370   -0.6760 hc        1 TTX      0.089500
     43 H21        -0.9330    1.2520   -3.3960 hc        1 TTX      0.101000
     44 H11        -2.8610    2.6690   -3.3800 hc        1 TTX      0.076167
     45 H12        -2.7490    2.7830   -1.7940 hc        1 TTX      0.076167
     46 H13        -3.1090    1.3850   -2.4690 hc        1 TTX      0.076167
     47 H31        -0.4750    3.5270   -3.7300 hc        1 TTX      0.076167
     48 H32         0.6830    2.9450   -2.8020 hc        1 TTX      0.076167
     49 H33        -0.5020    3.7960   -2.1590 hc        1 TTX      0.076167
     50 HN21       -0.5940   -0.9960   -2.8350 hn        1 TTX      0.216000
     51 H91         0.8940   -4.1390   -2.1920 h1        1 TTX      0.162000
     52 H101       -1.5340   -2.8270   -1.6340 hc        1 TTX      0.092667
     53 H102       -1.3660   -4.3110   -2.1900 hc        1 TTX      0.092667
     54 H103       -1.0330   -3.0670   -3.1280 hc        1 TTX      0.092667
     55 H111       -0.4310   -4.6060    1.2800 h1        1 TTX      0.076667
     56 H112       -1.0010   -5.0520   -0.1400 h1        1 TTX      0.076667
     57 H113       -1.4230   -3.6460    0.4820 h1        1 TTX      0.076667
     58 H131        3.0810   -3.0520    1.7380 h1        1 TTX      0.134500
     59 H132        2.1170   -4.1590    2.3590 h1        1 TTX      0.134500
     60 HN41        0.3730   -2.6350    2.3150 hn        1 TTX      0.215000
@<TRIPOS>BOND
     1    1    2 1   
     2    1   31 1   
     3    1   32 1   
     4    1   33 1   
     5    2    3 1   
     6    2   11 1   
     7    3    4 1   
     8    3   29 1   
     9    4   34 1   
    10    5    6 1   
    11    5   10 1   
    12    6   35 1   
    13    7    8 1   
    14    7   36 1   
    15    8   37 1   
    16    9   10 1   
    17    9   38 1   
    18   10   39 1   
    19   11   12 1   
    20   11   13 1   
    21   13   14 1   
    22   13   18 1   
    23   13   40 1   
    24   14   15 1   
    25   14   41 1   
    26   14   42 1   
    27   15   16 1   
    28   15   17 1   
    29   15   43 1   
    30   16   44 1   
    31   16   45 1   
    32   16   46 1   
    33   17   47 1   
    34   17   48 1   
    35   17   49 1   
    36   18   19 1   
    37   18   50 1   
    38   19   20 1   
    39   19   21 1   
    40   21   22 1   
    41   21   23 1   
    42   21   51 1   
    43   22   52 1   
    44   22   53 1   
    45   22   54 1   
    46   23   24 1   
    47   23   25 1   
    48   24   55 1   
    49   24   56 1   
    50   24   57 1   
    51   25   26 1   
    52   25   27 1   
    53   27   28 1   
    54   27   58 1   
    55   27   59 1   
    56   28   29 1   
    57   28   60 1   
    58   29   30 1   
@<TRIPOS>SUBSTRUCTURE
     1 TTX         1 TEMP              0 ****  ****    0 ROOT
