@<TRIPOS>MOLECULE
TTX
   64    65     1     0     0
SMALL
bcc


@<TRIPOS>ATOM
      1 C7         -0.1360   -0.6010   -0.5940 c3        1 TTX      0.078100
      2 N1          1.3360   -0.3560   -0.5000 n4        1 TTX     -0.376000
      3 C15         1.9330   -0.5440    0.8130 ce        1 TTX     -0.387200
      4 C16         1.2380   -0.9010    2.0100 cf        1 TTX      0.186800
      5 C17        -0.0240   -0.6810    2.5410 ca        1 TTX     -0.196800
      6 C22        -0.4120   -1.5270    3.6460 ca        1 TTX     -0.011000
      7 C21        -1.6370   -1.3730    4.2730 ca        1 TTX     -0.141000
      8 C20        -2.5130   -0.3570    3.8740 ca        1 TTX      0.102000
      9 C19        -2.1320    0.5260    2.8320 ca        1 TTX     -0.141000
     10 C18        -0.9320    0.3680    2.1840 ca        1 TTX     -0.011000
     11 C6          1.7710    0.9580   -1.0960 c         1 TTX      0.549100
     12 O1          2.8280    0.9110   -1.7400 o         1 TTX     -0.559100
     13 C5          1.0290    2.2800   -0.8770 c3        1 TTX      0.090500
     14 C4         -0.1430    2.4260   -1.8700 c3        1 TTX     -0.122400
     15 C2         -1.3180    3.1840   -1.2550 c3        1 TTX     -0.069700
     16 C1         -0.9490    4.5910   -0.8420 c3        1 TTX     -0.124100
     17 C3         -2.4500    3.2130   -2.2690 c3        1 TTX     -0.124100
     18 N2          2.0000    3.4410   -1.0340 n4        1 TTX     -0.681800
     19 C8          3.2590    3.2590   -0.2370 c         1 TTX      0.491100
     20 O2          3.1170    2.8720    0.9130 o         1 TTX     -0.363100
     21 C9          4.6340    3.5800   -0.8580 c3        1 TTX      0.089500
     22 C10         4.5410    4.4380   -2.1070 c3        1 TTX     -0.176100
     23 N3          5.4370    2.3090   -1.0730 n4        1 TTX     -0.603200
     24 C11         6.8460    2.6620   -1.4720 c3        1 TTX      0.075100
     25 C12         5.5100    1.4390    0.1740 c         1 TTX      0.482100
     26 O3          5.5540    2.0040    1.2500 o         1 TTX     -0.277100
     27 C13         5.6480   -0.0710   -0.0110 c3        1 TTX      0.033800
     28 N4          4.3760   -0.8370   -0.1330 n4        1 TTX     -0.695800
     29 C14         3.3760   -0.5710    1.0120 c         1 TTX      0.537300
     30 O4          3.9410   -0.4420    2.0910 o         1 TTX     -0.376100
     31 H71        -0.4160   -1.4470    0.0990 hx        1 TTX      0.137700
     32 H72        -0.3790   -0.9020   -1.6550 hx        1 TTX      0.137700
     33 H73        -0.7210    0.3150   -0.3180 hx        1 TTX      0.137700
     34 H161        1.9010   -1.5080    2.6900 ha        1 TTX      0.198000
     35 H221        0.2730   -2.3290    3.9830 ha        1 TTX      0.144500
     36 H211       -1.9230   -2.0520    5.1050 ha        1 TTX      0.211000
     37 H201       -3.4930   -0.2270    4.3810 ha        1 TTX      0.222000
     38 H191       -2.8160    1.3560    2.5700 ha        1 TTX      0.211000
     39 H181       -0.6190    1.1150    1.4400 ha        1 TTX      0.144500
     40 H51         0.6420    2.3230    0.1930 hx        1 TTX      0.173700
     41 H41         0.1780    2.9430   -2.8170 hc        1 TTX      0.107200
     42 H42        -0.4900    1.4030   -2.1800 hc        1 TTX      0.107200
     43 H21        -1.6690    2.6170   -0.3450 hc        1 TTX      0.052700
     44 H11        -0.4360    5.1410   -1.6680 hc        1 TTX      0.072867
     45 H12        -1.8840    5.1680   -0.6000 hc        1 TTX      0.072867
     46 H13        -0.3190    4.5970    0.0820 hc        1 TTX      0.072867
     47 H31        -2.7250    2.1810   -2.5940 hc        1 TTX      0.072867
     48 H32        -2.1670    3.8130   -3.1690 hc        1 TTX      0.072867
     49 H33        -3.3550    3.6880   -1.8090 hc        1 TTX      0.072867
     50 HN21        1.4910    4.2970   -0.7060 hn        1 TTX      0.510800
     51 H91         5.1780    4.1790   -0.0410 hx        1 TTX      0.206700
     52 H101        4.1620    3.8830   -3.0000 hc        1 TTX      0.121367
     53 H102        3.8940    5.3330   -1.9040 hc        1 TTX      0.121367
     54 H103        5.5510    4.8630   -2.3720 hc        1 TTX      0.121367
     55 H111        7.3040    3.3470   -0.7030 hx        1 TTX      0.144033
     56 H112        7.4520    1.7160   -1.5430 hx        1 TTX      0.144033
     57 H113        6.8410    3.1680   -2.4790 hx        1 TTX      0.144033
     58 H131        6.1920   -0.4350    0.9330 hx        1 TTX      0.192200
     59 H132        6.3090   -0.3140   -0.9010 hx        1 TTX      0.192200
     60 HN41        3.9760   -0.7050   -1.0640 hn        1 TTX      0.481300
     61 H114        1.7540   -1.0910   -1.1120 hn        1 TTX      0.468800
     62 H22         2.2200    3.5740   -2.0350 hn        1 TTX      0.510800
     63 H311        5.0110    1.7770   -1.8430 hn        1 TTX      0.458800
     64 H421        4.6400   -1.8420   -0.0500 hn        1 TTX      0.481300
@<TRIPOS>BOND
     1    1    2 1   
     2    1   31 1   
     3    1   32 1   
     4    1   33 1   
     5    2    3 1   
     6    2   11 1   
     7    2   61 1   
     8    3    4 2   
     9    3   29 1   
    10    4    5 1   
    11    4   34 1   
    12    5    6 ar  
    13    5   10 ar  
    14    6    7 ar  
    15    6   35 1   
    16    7    8 ar  
    17    7   36 1   
    18    8    9 ar  
    19    8   37 1   
    20    9   10 ar  
    21    9   38 1   
    22   10   39 1   
    23   11   12 2   
    24   11   13 1   
    25   13   14 1   
    26   13   18 1   
    27   13   40 1   
    28   14   15 1   
    29   14   41 1   
    30   14   42 1   
    31   15   16 1   
    32   15   17 1   
    33   15   43 1   
    34   16   44 1   
    35   16   45 1   
    36   16   46 1   
    37   17   47 1   
    38   17   48 1   
    39   17   49 1   
    40   18   19 1   
    41   18   50 1   
    42   18   62 1   
    43   19   20 2   
    44   19   21 1   
    45   21   22 1   
    46   21   23 1   
    47   21   51 1   
    48   22   52 1   
    49   22   53 1   
    50   22   54 1   
    51   23   24 1   
    52   23   25 1   
    53   23   63 1   
    54   24   55 1   
    55   24   56 1   
    56   24   57 1   
    57   25   26 2   
    58   25   27 1   
    59   27   28 1   
    60   27   58 1   
    61   27   59 1   
    62   28   29 1   
    63   28   60 1   
    64   28   64 1   
    65   29   30 2   
@<TRIPOS>SUBSTRUCTURE
     1 TTX         1 TEMP              0 ****  ****    0 ROOT
