@<TRIPOS>MOLECULE
TTX
   64    65     1     0     0
SMALL
bcc


@<TRIPOS>ATOM
      1 C7         -0.4170   -0.2970   -0.3390 c3        1 TTX      0.077100
      2 N1          1.0620   -0.2150   -0.5150 n4        1 TTX     -0.385000
      3 C15         1.8640   -0.2900    0.6960 ce        1 TTX     -0.381200
      4 C16         1.3910   -0.5480    2.0250 cf        1 TTX      0.178800
      5 C17         0.2460   -0.2690    2.7470 ca        1 TTX     -0.183800
      6 C22         0.0440   -1.0310    3.9620 ca        1 TTX     -0.007500
      7 C21        -1.0630   -0.8270    4.7620 ca        1 TTX     -0.145500
      8 C20        -2.0010    0.1640    4.4370 ca        1 TTX      0.117000
      9 C19        -1.7940    0.9730    3.2900 ca        1 TTX     -0.145500
     10 C18        -0.7130    0.7630    2.4710 ca        1 TTX     -0.007500
     11 C6          1.5090    0.9570   -1.3640 c         1 TTX      0.511100
     12 O1          2.3160    0.6520   -2.2430 o         1 TTX     -0.454100
     13 C5          1.0700    2.4120   -1.1530 c3        1 TTX      0.101500
     14 C4          0.1220    2.8320   -2.3030 c3        1 TTX     -0.127400
     15 C2         -1.3390    2.4410   -2.1000 c3        1 TTX     -0.061700
     16 C1         -1.9520    3.1060   -0.8880 c3        1 TTX     -0.116100
     17 C3         -2.1080    2.8400   -3.3520 c3        1 TTX     -0.116100
     18 N2          2.3050    3.3120   -1.1990 n4        1 TTX     -0.688800
     19 C8          3.2200    3.2340   -0.0120 c         1 TTX      0.477100
     20 O2          2.7310    2.9190    1.0600 o         1 TTX     -0.345100
     21 C9          4.7100    3.6060   -0.1840 c3        1 TTX      0.090500
     22 C10         4.9780    4.4840   -1.3920 c3        1 TTX     -0.176100
     23 N3          5.5720    2.3580   -0.0880 n4        1 TTX     -0.592200
     24 C11         7.0260    2.7010   -0.2700 c3        1 TTX      0.079100
     25 C12         5.1690    1.2940   -1.0680 c         1 TTX      0.513100
     26 O3          4.6060    1.6340   -2.1000 o         1 TTX     -0.402100
     27 C13         5.4170   -0.1730   -0.7100 c3        1 TTX      0.041800
     28 N4          4.1120   -0.8820   -0.5300 n4        1 TTX     -0.693800
     29 C14         3.3070   -0.2740    0.6300 c         1 TTX      0.543300
     30 O4          4.0490    0.2210    1.4830 o         1 TTX     -0.485100
     31 H71        -0.6570   -1.0150    0.4970 hx        1 TTX      0.137033
     32 H72        -0.8650   -0.6930   -1.2980 hx        1 TTX      0.137033
     33 H73        -0.8540    0.7110   -0.1110 hx        1 TTX      0.137033
     34 H161        2.1620   -1.1180    2.6120 ha        1 TTX      0.184000
     35 H221        0.7780   -1.8140    4.2380 ha        1 TTX      0.151500
     36 H211       -1.2120   -1.4440    5.6750 ha        1 TTX      0.214000
     37 H201       -2.8910    0.3310    5.0810 ha        1 TTX      0.224000
     38 H191       -2.5140    1.7880    3.0830 ha        1 TTX      0.214000
     39 H181       -0.5220    1.4580    1.6390 ha        1 TTX      0.151500
     40 H51         0.5750    2.5620   -0.1440 hx        1 TTX      0.167700
     41 H41         0.4940    2.3910   -3.2690 hc        1 TTX      0.113200
     42 H42         0.1350    3.9550   -2.4120 hc        1 TTX      0.113200
     43 H21        -1.4070    1.3230   -2.0010 hc        1 TTX      0.030700
     44 H11        -1.4470    2.7910    0.0580 hc        1 TTX      0.071033
     45 H12        -3.0360    2.8300   -0.8160 hc        1 TTX      0.071033
     46 H13        -1.9010    4.2200   -0.9720 hc        1 TTX      0.071033
     47 H31        -2.0950    3.9480   -3.4950 hc        1 TTX      0.071033
     48 H32        -3.1760    2.5180   -3.2520 hc        1 TTX      0.071033
     49 H33        -1.6790    2.3510   -4.2590 hc        1 TTX      0.071033
     50 HN21        1.9510    4.2900   -1.2630 hn        1 TTX      0.508800
     51 H91         4.9630    4.2230    0.7540 hx        1 TTX      0.199700
     52 H101        4.8810    3.9500   -2.3700 hc        1 TTX      0.124033
     53 H102        4.2860    5.3690   -1.3690 hc        1 TTX      0.124033
     54 H103        6.0180    4.9160   -1.3420 hc        1 TTX      0.124033
     55 H111        7.2210    3.0110   -1.3340 hx        1 TTX      0.147033
     56 H112        7.6460    1.7950   -0.0120 hx        1 TTX      0.147033
     57 H113        7.3000    3.5440    0.4280 hx        1 TTX      0.147033
     58 H131        6.0410   -0.2980    0.2300 hx        1 TTX      0.195200
     59 H132        5.9900   -0.6490   -1.5770 hx        1 TTX      0.195200
     60 HN41        3.6010   -0.8950   -1.4220 hn        1 TTX      0.498300
     61 H114        1.2970   -1.0650   -1.0740 hn        1 TTX      0.467800
     62 H22         2.8350    3.1190   -2.0690 hn        1 TTX      0.508800
     63 H311        5.4570    1.9730    0.8720 hn        1 TTX      0.497800
     64 H421        4.3290   -1.8670   -0.2740 hn        1 TTX      0.498300
@<TRIPOS>BOND
     1    1    2 1   
     2    1   31 1   
     3    1   32 1   
     4    1   33 1   
     5    2    3 1   
     6    2   11 1   
     7    2   61 1   
     8    3    4 2   
     9    3   29 1   
    10    4    5 1   
    11    4   34 1   
    12    5    6 ar  
    13    5   10 ar  
    14    6    7 ar  
    15    6   35 1   
    16    7    8 ar  
    17    7   36 1   
    18    8    9 ar  
    19    8   37 1   
    20    9   10 ar  
    21    9   38 1   
    22   10   39 1   
    23   11   12 2   
    24   11   13 1   
    25   13   14 1   
    26   13   18 1   
    27   13   40 1   
    28   14   15 1   
    29   14   41 1   
    30   14   42 1   
    31   15   16 1   
    32   15   17 1   
    33   15   43 1   
    34   16   44 1   
    35   16   45 1   
    36   16   46 1   
    37   17   47 1   
    38   17   48 1   
    39   17   49 1   
    40   18   19 1   
    41   18   50 1   
    42   18   62 1   
    43   19   20 2   
    44   19   21 1   
    45   21   22 1   
    46   21   23 1   
    47   21   51 1   
    48   22   52 1   
    49   22   53 1   
    50   22   54 1   
    51   23   24 1   
    52   23   25 1   
    53   23   63 1   
    54   24   55 1   
    55   24   56 1   
    56   24   57 1   
    57   25   26 2   
    58   25   27 1   
    59   27   28 1   
    60   27   58 1   
    61   27   59 1   
    62   28   29 1   
    63   28   60 1   
    64   28   64 1   
    65   29   30 2   
@<TRIPOS>SUBSTRUCTURE
     1 TTX         1 TEMP              0 ****  ****    0 ROOT
