@<TRIPOS>MOLECULE
TTX
   60    61     1     0     0
SMALL
bcc


@<TRIPOS>ATOM
      1 C7         50.6030   36.7210   62.9090 c3        1 TTX      0.073300
      2 N1         50.0170   36.2480   61.6780 n         1 TTX     -0.410000
      3 C15        50.9050   36.0630   60.5920 ce        1 TTX     -0.057600
      4 C16        51.4500   37.0610   59.8530 cf        1 TTX     -0.024200
      5 C17        51.2310   38.4900   60.0020 ca        1 TTX     -0.086800
      6 C22        52.3470   39.3430   59.9580 ca        1 TTX     -0.105500
      7 C21        52.1850   40.7200   60.0790 ca        1 TTX     -0.131500
      8 C20        50.9080   41.2640   60.2290 ca        1 TTX     -0.114000
      9 C19        49.7950   40.4260   60.2550 ca        1 TTX     -0.131500
     10 C18        49.9530   39.0450   60.1440 ca        1 TTX     -0.105500
     11 C6         48.6370   36.1160   61.5560 c         1 TTX      0.647100
     12 O1         47.9070   36.3240   62.5420 o         1 TTX     -0.591100
     13 C5         48.0370   35.6710   60.1970 c3        1 TTX      0.040700
     14 C4         46.5210   35.9270   60.2020 c3        1 TTX     -0.090400
     15 C2         46.1930   37.4110   60.1180 c3        1 TTX     -0.065700
     16 C1         46.3900   37.9500   58.7170 c3        1 TTX     -0.093100
     17 C3         44.7630   37.6430   60.5680 c3        1 TTX     -0.093100
     18 N2         48.3970   34.2940   59.9560 n         1 TTX     -0.571900
     19 C8         48.7500   33.8440   58.6960 c         1 TTX      0.639100
     20 O2         48.6660   34.5850   57.6990 o         1 TTX     -0.591100
     21 C9         49.4050   32.4450   58.5520 c3        1 TTX      0.040700
     22 C10        48.9580   31.8650   57.2080 c3        1 TTX     -0.102100
     23 N3         49.2030   31.5500   59.6690 n         1 TTX     -0.476800
     24 C11        48.0200   30.7280   59.6450 c3        1 TTX      0.068300
     25 C12        50.1360   31.3710   60.6800 c         1 TTX      0.628100
     26 O3         49.9660   30.4800   61.5350 o         1 TTX     -0.596100
     27 C13        51.3860   32.2620   60.7950 c3        1 TTX      0.024000
     28 N4         51.1020   33.6250   61.1220 n         1 TTX     -0.555900
     29 C14        51.3470   34.6590   60.2400 c         1 TTX      0.663300
     30 O4         51.9610   34.4420   59.1720 o         1 TTX     -0.620100
     31 H71        49.8050   36.8640   63.6850 h1        1 TTX      0.053367
     32 H72        51.3490   35.9670   63.2800 h1        1 TTX      0.053367
     33 H73        51.1280   37.6980   62.7340 h1        1 TTX      0.053367
     34 H161       52.1670   36.7790   59.0530 ha        1 TTX      0.173000
     35 H221       53.3540   38.9160   59.8300 ha        1 TTX      0.137500
     36 H211       53.0650   41.3790   60.0530 ha        1 TTX      0.137500
     37 H201       50.7820   42.3530   60.3210 ha        1 TTX      0.136000
     38 H191       48.7870   40.8520   60.3650 ha        1 TTX      0.137500
     39 H181       49.0640   38.3930   60.1540 ha        1 TTX      0.137500
     40 H51        48.5010   36.3000   59.3750 h1        1 TTX      0.103700
     41 H41        46.0800   35.5030   61.1430 hc        1 TTX      0.062200
     42 H42        46.0580   35.3980   59.3290 hc        1 TTX      0.062200
     43 H21        46.8770   37.9650   60.8230 hc        1 TTX      0.051700
     44 H11        45.7380   37.4060   57.9910 hc        1 TTX      0.036867
     45 H12        46.1270   39.0350   58.6820 hc        1 TTX      0.036867
     46 H13        47.4520   37.8350   58.3900 hc        1 TTX      0.036867
     47 H31        44.6310   37.3170   61.6280 hc        1 TTX      0.036867
     48 H32        44.5080   38.7280   60.4950 hc        1 TTX      0.036867
     49 H33        44.0530   37.0690   59.9260 hc        1 TTX      0.036867
     50 HN21       48.1440   33.6420   60.6600 hn        1 TTX      0.320500
     51 H91        50.5140   32.6860   58.4660 h1        1 TTX      0.107700
     52 H101       49.2280   32.5940   56.4040 hc        1 TTX      0.058033
     53 H102       49.4740   30.8950   57.0110 hc        1 TTX      0.058033
     54 H103       47.8550   31.7030   57.1810 hc        1 TTX      0.058033
     55 H111       48.1090   29.9340   58.8560 h1        1 TTX      0.051033
     56 H112       47.8740   30.2300   60.6420 h1        1 TTX      0.051033
     57 H113       47.1260   31.3680   59.4180 h1        1 TTX      0.051033
     58 H131       51.9890   32.2020   59.8430 h1        1 TTX      0.093700
     59 H132       52.0020   31.8110   61.6310 h1        1 TTX      0.093700
     60 HN41       50.5880   33.7880   61.9550 hn        1 TTX      0.328500
@<TRIPOS>BOND
     1    1    2 1   
     2    1   31 1   
     3    1   32 1   
     4    1   33 1   
     5    2    3 1   
     6    2   11 1   
     7    3    4 2   
     8    3   29 1   
     9    4    5 1   
    10    4   34 1   
    11    5    6 ar  
    12    5   10 ar  
    13    6    7 ar  
    14    6   35 1   
    15    7    8 ar  
    16    7   36 1   
    17    8    9 ar  
    18    8   37 1   
    19    9   10 ar  
    20    9   38 1   
    21   10   39 1   
    22   11   12 2   
    23   11   13 1   
    24   13   14 1   
    25   13   18 1   
    26   13   40 1   
    27   14   15 1   
    28   14   41 1   
    29   14   42 1   
    30   15   16 1   
    31   15   17 1   
    32   15   43 1   
    33   16   44 1   
    34   16   45 1   
    35   16   46 1   
    36   17   47 1   
    37   17   48 1   
    38   17   49 1   
    39   18   19 1   
    40   18   50 1   
    41   19   20 2   
    42   19   21 1   
    43   21   22 1   
    44   21   23 1   
    45   21   51 1   
    46   22   52 1   
    47   22   53 1   
    48   22   54 1   
    49   23   24 1   
    50   23   25 1   
    51   24   55 1   
    52   24   56 1   
    53   24   57 1   
    54   25   26 2   
    55   25   27 1   
    56   27   28 1   
    57   27   58 1   
    58   27   59 1   
    59   28   29 1   
    60   28   60 1   
    61   29   30 2   
@<TRIPOS>SUBSTRUCTURE
     1 TTX         1 TEMP              0 ****  ****    0 ROOT
