@<TRIPOS>MOLECULE
TTY
   20    21     1     0     0
SMALL
bcc


@<TRIPOS>ATOM
      1 OAA        -3.1470    0.2050   -0.9210 o         1 TTY     -0.816800
      2 CAI        -2.4000    0.2850    0.0920 c         1 TTY      0.935200
      3 OAC        -2.6780    0.9100    1.1510 o         1 TTY     -0.816800
      4 CAK        -1.0930   -0.4800    0.0580 cc        1 TTY     -0.150900
      5 CAM         0.2660    0.0180   -0.0130 cc        1 TTY     -0.267900
      6 CAJ         0.8400    1.3480   -0.1250 c         1 TTY      0.612700
      7 OAB         0.2610    2.3820   -0.4660 o         1 TTY     -0.516100
      8 CAF         2.3210    1.3830    0.2220 c3        1 TTY     -0.190400
      9 CAE         3.1000    0.2340   -0.3850 c3        1 TTY     -0.064400
     10 CAG         2.5730   -1.1270    0.0470 c3        1 TTY     -0.106700
     11 CAL         1.1050   -1.0960    0.0470 cd        1 TTY      0.243000
     12 OAH         0.3670   -2.2620    0.1350 os        1 TTY     -0.379800
     13 CAD        -0.9830   -1.8560    0.1410 cd        1 TTY      0.187600
     14 H2          2.7570    2.3560   -0.1260 hc        1 TTY      0.057200
     15 H3          2.4020    1.3510    1.3400 hc        1 TTY      0.057200
     16 H4          3.0500    0.3080   -1.5040 hc        1 TTY      0.037200
     17 H5          4.1780    0.3200   -0.0890 hc        1 TTY      0.037200
     18 H6          2.9540   -1.9270   -0.6400 hc        1 TTY      0.049200
     19 H7          2.9380   -1.3720    1.0820 hc        1 TTY      0.049200
     20 H8         -1.6890   -2.6750    0.2020 h4        1 TTY      0.044100
@<TRIPOS>BOND
     1    1    2 1   
     2    2    3 1   
     3    2    4 1   
     4    4    5 1   
     5    4   13 2   
     6    5    6 1   
     7    5   11 2   
     8    6    7 2   
     9    6    8 1   
    10    8    9 1   
    11    8   14 1   
    12    8   15 1   
    13    9   10 1   
    14    9   16 1   
    15    9   17 1   
    16   10   11 1   
    17   10   18 1   
    18   10   19 1   
    19   11   12 1   
    20   12   13 1   
    21   13   20 1   
@<TRIPOS>SUBSTRUCTURE
     1 TTY         1 TEMP              0 ****  ****    0 ROOT
