@<TRIPOS>MOLECULE
TTY
   20    21     1     0     0
SMALL
bcc


@<TRIPOS>ATOM
      1 OAA         0.5340    0.9100    0.2980 o         1 TTY     -0.816800
      2 CAI         1.2580   -0.0920    0.0490 c         1 TTY      0.935200
      3 OAC         1.3060   -1.1430    0.7430 o         1 TTY     -0.816800
      4 CAK         2.0910   -0.0530   -1.2160 cc        1 TTY     -0.150900
      5 CAM         3.5280    0.0440   -1.3730 cc        1 TTY     -0.267900
      6 CAJ         4.6290    0.1870   -0.4350 c         1 TTY      0.612700
      7 OAB         4.5610    0.5380    0.7450 o         1 TTY     -0.516100
      8 CAF         5.9790   -0.1390   -1.0560 c3        1 TTY     -0.190400
      9 CAE         6.1560    0.4580   -2.4380 c3        1 TTY     -0.064400
     10 CAG         5.0900   -0.0050   -3.4200 c3        1 TTY     -0.106700
     11 CAL         3.7880   -0.0240   -2.7420 cd        1 TTY      0.243000
     12 OAH         2.6120   -0.1420   -3.4600 os        1 TTY     -0.379800
     13 CAD         1.5810   -0.1590   -2.4970 cd        1 TTY      0.187600
     14 H2          6.0590   -1.2570   -1.1110 hc        1 TTY      0.057200
     15 H3          6.7940    0.2310   -0.3820 hc        1 TTY      0.057200
     16 H4          7.1660    0.1780   -2.8350 hc        1 TTY      0.037200
     17 H5          6.1230    1.5770   -2.3600 hc        1 TTY      0.037200
     18 H6          5.3290   -1.0390   -3.7910 hc        1 TTY      0.049200
     19 H7          5.0640    0.6730   -4.3130 hc        1 TTY      0.049200
     20 H8          0.5870   -0.2440   -2.9180 h4        1 TTY      0.044100
@<TRIPOS>BOND
     1    1    2 1   
     2    2    3 1   
     3    2    4 1   
     4    4    5 1   
     5    4   13 2   
     6    5    6 1   
     7    5   11 2   
     8    6    7 2   
     9    6    8 1   
    10    8    9 1   
    11    8   14 1   
    12    8   15 1   
    13    9   10 1   
    14    9   16 1   
    15    9   17 1   
    16   10   11 1   
    17   10   18 1   
    18   10   19 1   
    19   11   12 1   
    20   12   13 1   
    21   13   20 1   
@<TRIPOS>SUBSTRUCTURE
     1 TTY         1 TEMP              0 ****  ****    0 ROOT
