@<TRIPOS>MOLECULE
TTY
   20    21     1     0     0
SMALL
bcc


@<TRIPOS>ATOM
      1 OAA         0.4910    0.8370    0.2620 o         1 TTY     -0.816800
      2 CAI         1.2530   -0.1430    0.0420 c         1 TTY      0.935200
      3 OAC         1.3390   -1.1720    0.7650 o         1 TTY     -0.816800
      4 CAK         2.0870   -0.1080   -1.2220 cc        1 TTY     -0.150900
      5 CAM         3.5200    0.0370   -1.3780 cc        1 TTY     -0.267900
      6 CAJ         4.6130    0.2460   -0.4430 c         1 TTY      0.612700
      7 OAB         4.5290    0.6260    0.7270 o         1 TTY     -0.516100
      8 CAF         5.9760   -0.0480   -1.0520 c3        1 TTY     -0.190400
      9 CAE         6.1350    0.5180   -2.4490 c3        1 TTY     -0.064400
     10 CAG         5.0890   -0.0100   -3.4210 c3        1 TTY     -0.106700
     11 CAL         3.7870   -0.0580   -2.7440 cd        1 TTY      0.243000
     12 OAH         2.6180   -0.2380   -3.4620 os        1 TTY     -0.379800
     13 CAD         1.5860   -0.2670   -2.5000 cd        1 TTY      0.187600
     14 H2          6.7750    0.3690   -0.3860 hc        1 TTY      0.057200
     15 H3          6.0960   -1.1630   -1.0770 hc        1 TTY      0.057200
     16 H4          7.1560    0.2640   -2.8370 hc        1 TTY      0.037200
     17 H5          6.0610    1.6360   -2.4010 hc        1 TTY      0.037200
     18 H6          5.0410    0.6430   -4.3310 hc        1 TTY      0.049200
     19 H7          5.3670   -1.0440   -3.7630 hc        1 TTY      0.049200
     20 H8          0.5970   -0.3990   -2.9210 h4        1 TTY      0.044100
@<TRIPOS>BOND
     1    1    2 1   
     2    2    3 1   
     3    2    4 1   
     4    4    5 1   
     5    4   13 2   
     6    5    6 1   
     7    5   11 2   
     8    6    7 2   
     9    6    8 1   
    10    8    9 1   
    11    8   14 1   
    12    8   15 1   
    13    9   10 1   
    14    9   16 1   
    15    9   17 1   
    16   10   11 1   
    17   10   18 1   
    18   10   19 1   
    19   11   12 1   
    20   12   13 1   
    21   13   20 1   
@<TRIPOS>SUBSTRUCTURE
     1 TTY         1 TEMP              0 ****  ****    0 ROOT
