@<TRIPOS>MOLECULE
TTY
   20    17     1     0     0
SMALL
bcc


@<TRIPOS>ATOM
      1 OAA        -0.1830   -0.9790    3.7530 o         1 TTY     -0.551500
      2 CAI        -0.8310   -1.3560    2.7420 c1        1 TTY      0.384000
      3 OAC        -2.0330   -1.7110    2.8610 o         1 TTY     -0.551500
      4 CAK        -0.1610   -1.3980    1.3860 c1        1 TTY     -0.065000
      5 CAM        -0.1020   -0.3680    0.4870 c1        1 TTY     -0.182000
      6 CAJ        -0.5470    1.1430    0.5330 c1        1 TTY      0.303000
      7 OAB        -1.0180    1.6060    1.5520 o         1 TTY     -0.277000
      8 CAF        -0.0720    2.0320   -0.5200 c2        1 TTY     -0.219000
      9 CAE        -0.0050    1.3540   -1.8270 c3        1 TTY     -0.143000
     10 CAG         0.7350    0.1210   -1.8890 c3        1 TTY     -0.091000
     11 CAL         0.6050   -0.8340   -0.6700 c2        1 TTY     -0.046000
     12 OAH         0.9630   -2.1400   -0.4490 os        1 TTY     -0.121000
     13 CAD         0.4980   -2.5100    0.8200 c1        1 TTY     -0.144000
     14 H2          0.6810    2.5670   -0.1960 ha        1 TTY      0.096500
     15 H3         -0.7280    2.7450   -0.6660 ha        1 TTY      0.096500
     16 H4          0.4330    1.9760   -2.4460 hc        1 TTY      0.076500
     17 H5         -0.9280    1.1410   -2.0820 hc        1 TTY      0.076500
     18 H6          1.6820    0.3630   -1.9590 hc        1 TTY      0.088500
     19 H7          0.4030   -0.3690   -2.6690 hc        1 TTY      0.088500
     20 H8          0.6070   -3.3850    1.2380 DU        1 TTY      0.181000
@<TRIPOS>BOND
     1    1    2 1   
     2    2    3 1   
     3    4    5 1   
     4    4   13 1   
     5    5   11 1   
     6    6    7 1   
     7    8    9 1   
     8    8   14 1   
     9    8   15 1   
    10    9   10 1   
    11    9   16 1   
    12    9   17 1   
    13   10   11 1   
    14   10   18 1   
    15   10   19 1   
    16   11   12 1   
    17   12   13 1   
@<TRIPOS>SUBSTRUCTURE
     1 TTY         1 TEMP              0 ****  ****    0 ROOT
