@<TRIPOS>MOLECULE
TTZ
   48    50     1     0     0
SMALL
bcc


@<TRIPOS>ATOM
      1 O7          0.5600   -0.0580   -0.9930 oh        1 TTZ     -0.597800
      2 C7          1.8750    0.1160   -0.5170 c3        1 TTZ      0.113400
      3 C5          2.0180   -0.1850    0.9830 c3        1 TTZ      0.132800
      4 O5          1.5180   -1.4830    1.2550 oh        1 TTZ     -0.587800
      5 C4          3.4930   -0.0410    1.4420 c3        1 TTZ      0.115100
      6 O4          4.3440   -0.3290    0.3570 oh        1 TTZ     -0.589800
      7 C3          3.6460    1.4260    1.9110 c3        1 TTZ      0.117100
      8 O3          4.6260    1.4230    2.9260 oh        1 TTZ     -0.577800
      9 C2          2.2740    1.8250    2.4540 c3        1 TTZ     -0.054600
     10 S1          1.6820    3.4210    1.8750 ss        1 TTZ     -0.195300
     11 C6          1.2420    0.7640    1.9540 c3        1 TTZ      0.113500
     12 N1          0.0700    1.3940    1.3830 n2        1 TTZ     -0.469900
     13 C1          0.2050    2.6870    1.2840 c2        1 TTZ      0.473100
     14 N1'        -0.8250    3.5560    0.7140 n4        1 TTZ     -0.736000
     15 C1'        -2.2630    3.1350    1.0470 c3        1 TTZ      0.348300
     16 C2'        -3.2870    4.0420    0.3170 c3        1 TTZ      0.071100
     17 O2'        -2.8090    4.2470   -1.0000 oh        1 TTZ     -0.618800
     18 O5'        -2.4650    3.0840    2.4270 os        1 TTZ     -0.359600
     19 C5'        -2.5970    4.3390    3.1210 c3        1 TTZ      0.120100
     20 C6'        -2.8670    3.9600    4.5820 c3        1 TTZ      0.140400
     21 O6'        -1.6030    3.6660    5.1510 oh        1 TTZ     -0.605800
     22 C4'        -3.7480    5.1610    2.5300 c3        1 TTZ      0.088100
     23 O4'        -3.7510    6.3970    3.2170 oh        1 TTZ     -0.574800
     24 C3'        -3.5020    5.3830    1.0300 c3        1 TTZ      0.053100
     25 O3'        -4.5630    6.0860    0.4210 oh        1 TTZ     -0.571800
     26 H7          0.2690   -0.9400   -0.7200 ho        1 TTZ      0.423000
     27 H7C1        2.5790   -0.5550   -1.0840 h1        1 TTZ      0.071200
     28 H7C2        2.1360    1.1850   -0.7310 h1        1 TTZ      0.071200
     29 H5          2.1040   -2.1110    0.8070 ho        1 TTZ      0.432000
     30 H4          3.6940   -0.7390    2.3030 h1        1 TTZ      0.090700
     31 H6          0.8730    0.1340    2.8210 h1        1 TTZ      0.150700
     32 HA          5.2460   -0.3470    0.7080 ho        1 TTZ      0.435000
     33 H3          3.9540    2.0830    1.0510 h1        1 TTZ      0.079700
     34 HB          4.9130    2.3360    3.0630 ho        1 TTZ      0.421000
     35 H2          2.3010    1.8510    3.5740 h1        1 TTZ      0.132700
     36 H1'        -0.7440    3.5410   -0.3180 hn        1 TTZ      0.475800
     37 HC         -2.3770    2.0570    0.6970 hx        1 TTZ      0.170700
     38 H2'        -4.2560    3.4640    0.2880 h1        1 TTZ      0.096700
     39 HD         -3.4270    4.8520   -1.4390 ho        1 TTZ      0.464000
     40 H3'        -2.6120    6.0620    0.8780 h1        1 TTZ      0.101700
     41 H5'        -1.6320    4.9130    3.0590 h1        1 TTZ      0.076700
     42 H6'1       -3.5380    3.0630    4.6370 h1        1 TTZ      0.066700
     43 H6'2       -3.3420    4.8410    5.0920 h1        1 TTZ      0.066700
     44 H4'        -4.7290    4.6300    2.6860 h1        1 TTZ      0.068700
     45 H6'        -1.7500    3.5210    6.0940 ho        1 TTZ      0.427000
     46 HE         -4.3910    6.9700    2.7700 ho        1 TTZ      0.436000
     47 HF         -5.3900    5.6260    0.6250 ho        1 TTZ      0.419000
     48 H1'2       -0.6590    4.5110    1.0500 hn        1 TTZ      0.475800
@<TRIPOS>BOND
     1    1    2 1   
     2    1   26 1   
     3    2    3 1   
     4    2   27 1   
     5    2   28 1   
     6    3    4 1   
     7    3    5 1   
     8    3   11 1   
     9    4   29 1   
    10    5    6 1   
    11    5    7 1   
    12    5   30 1   
    13    6   32 1   
    14    7    8 1   
    15    7    9 1   
    16    7   33 1   
    17    8   34 1   
    18    9   10 1   
    19    9   11 1   
    20    9   35 1   
    21   10   13 1   
    22   11   12 1   
    23   11   31 1   
    24   12   13 2   
    25   13   14 1   
    26   14   15 1   
    27   14   36 1   
    28   14   48 1   
    29   15   16 1   
    30   15   18 1   
    31   15   37 1   
    32   16   17 1   
    33   16   24 1   
    34   16   38 1   
    35   17   39 1   
    36   18   19 1   
    37   19   20 1   
    38   19   22 1   
    39   19   41 1   
    40   20   21 1   
    41   20   42 1   
    42   20   43 1   
    43   21   45 1   
    44   22   23 1   
    45   22   24 1   
    46   22   44 1   
    47   23   46 1   
    48   24   25 1   
    49   24   40 1   
    50   25   47 1   
@<TRIPOS>SUBSTRUCTURE
     1 TTZ         1 TEMP              0 ****  ****    0 ROOT
