@<TRIPOS>MOLECULE
TTZ
   47    49     1     0     0
SMALL
bcc


@<TRIPOS>ATOM
      1 O7         -5.8790    3.3470    0.0270 oh        1 TTZ     -0.605800
      2 C7         -5.5490    4.5500   -0.6340 c3        1 TTZ      0.123400
      3 C5         -6.3640    4.7030   -1.9280 c3        1 TTZ      0.098800
      4 O5         -7.7160    4.3400   -1.6960 oh        1 TTZ     -0.600800
      5 C4         -6.4040    6.1740   -2.4240 c3        1 TTZ      0.147100
      6 O4         -5.9950    7.0920   -1.4310 oh        1 TTZ     -0.589800
      7 C3         -5.4030    6.2840   -3.5920 c3        1 TTZ      0.151100
      8 O3         -5.9590    7.1910   -4.5280 oh        1 TTZ     -0.585800
      9 C2         -5.2950    4.8840   -4.1910 c3        1 TTZ     -0.048600
     10 S1         -3.6200    4.3950   -4.5680 ss        1 TTZ     -0.307300
     11 C6         -5.8370    3.8690   -3.1420 c3        1 TTZ      0.105500
     12 N1         -4.8590    2.8550   -2.8210 n2        1 TTZ     -0.656900
     13 C1         -3.7190    3.0130   -3.4470 c2        1 TTZ      0.666100
     14 N1'        -2.5550    2.2580   -3.2910 nh        1 TTZ     -0.807200
     15 C1'        -2.5850    1.0000   -2.5700 c3        1 TTZ      0.356300
     16 C2'        -1.1870    0.6030   -2.0090 c3        1 TTZ      0.134100
     17 O2'        -0.6510    1.6090   -1.1910 oh        1 TTZ     -0.556800
     18 O5'        -3.1210   -0.0890   -3.3320 os        1 TTZ     -0.423600
     19 C5'        -2.3180   -0.5350   -4.4220 c3        1 TTZ      0.062100
     20 C6'        -3.0690   -1.7340   -5.0170 c3        1 TTZ      0.140400
     21 O6'        -4.2280   -1.3130   -5.6990 oh        1 TTZ     -0.592800
     22 C4'        -0.9180   -0.9470   -3.9570 c3        1 TTZ      0.073100
     23 O4'        -0.0890   -1.3240   -5.0390 oh        1 TTZ     -0.585800
     24 C3'        -0.2590    0.1920   -3.1610 c3        1 TTZ      0.076100
     25 O3'         0.9640   -0.2300   -2.5900 oh        1 TTZ     -0.576800
     26 H7         -5.4310    2.6200   -0.4230 ho        1 TTZ      0.418000
     27 H7C1       -5.8510    5.3550    0.0930 h1        1 TTZ      0.066700
     28 H7C2       -4.4520    4.6300   -0.8400 h1        1 TTZ      0.066700
     29 H5         -7.7150    3.5690   -1.1090 ho        1 TTZ      0.429000
     30 H4         -7.4440    6.4130   -2.7870 h1        1 TTZ      0.088700
     31 H6         -6.7320    3.3290   -3.5780 h1        1 TTZ      0.104700
     32 HA         -6.7670    7.2610   -0.8760 ho        1 TTZ      0.416000
     33 H3         -4.4090    6.6520   -3.2180 h1        1 TTZ      0.081700
     34 HB         -5.2320    7.5170   -5.0710 ho        1 TTZ      0.409000
     35 H2         -5.8960    4.8310   -5.1330 h1        1 TTZ      0.111700
     36 H1'        -1.9850    2.2550   -4.1120 hn        1 TTZ      0.412800
     37 HC         -3.3100    1.0800   -1.7020 h2        1 TTZ      0.129700
     38 H2'        -1.3350   -0.2750   -1.3150 h1        1 TTZ      0.108700
     39 HD         -0.3280    2.3210   -1.7590 ho        1 TTZ      0.410000
     40 H3'        -0.0540    1.0680   -3.8410 h1        1 TTZ      0.030700
     41 H5'        -2.2440    0.2770   -5.1990 h1        1 TTZ      0.045700
     42 H6'1       -3.3260   -2.4640   -4.2050 h1        1 TTZ      0.065700
     43 H6'2       -2.4230   -2.2240   -5.7940 h1        1 TTZ      0.065700
     44 H4'        -0.9730   -1.8730   -3.3150 h1        1 TTZ      0.107700
     45 H6'        -4.8110   -0.9080   -5.0430 ho        1 TTZ      0.415000
     46 HE         -0.1010   -0.6070   -5.6860 ho        1 TTZ      0.404000
     47 HF          1.4260   -0.7440   -3.2680 ho        1 TTZ      0.419000
@<TRIPOS>BOND
     1    1    2 1   
     2    1   26 1   
     3    2    3 1   
     4    2   27 1   
     5    2   28 1   
     6    3    4 1   
     7    3    5 1   
     8    3   11 1   
     9    4   29 1   
    10    5    6 1   
    11    5    7 1   
    12    5   30 1   
    13    6   32 1   
    14    7    8 1   
    15    7    9 1   
    16    7   33 1   
    17    8   34 1   
    18    9   10 1   
    19    9   11 1   
    20    9   35 1   
    21   10   13 1   
    22   11   12 1   
    23   11   31 1   
    24   12   13 2   
    25   13   14 1   
    26   14   15 1   
    27   14   36 1   
    28   15   16 1   
    29   15   18 1   
    30   15   37 1   
    31   16   17 1   
    32   16   24 1   
    33   16   38 1   
    34   17   39 1   
    35   18   19 1   
    36   19   20 1   
    37   19   22 1   
    38   19   41 1   
    39   20   21 1   
    40   20   42 1   
    41   20   43 1   
    42   21   45 1   
    43   22   23 1   
    44   22   24 1   
    45   22   44 1   
    46   23   46 1   
    47   24   25 1   
    48   24   40 1   
    49   25   47 1   
@<TRIPOS>SUBSTRUCTURE
     1 TTZ         1 TEMP              0 ****  ****    0 ROOT
