@<TRIPOS>MOLECULE
TTZ
   48    50     1     0     0
SMALL
bcc


@<TRIPOS>ATOM
      1 O7         -0.4310    0.3050    0.6720 oh        1 TTZ     -0.615800
      2 C7          0.9300    0.1360    0.3420 c3        1 TTZ      0.110400
      3 C5          1.8550    0.0590    1.5680 c3        1 TTZ      0.132800
      4 O5          1.4290   -0.9840    2.4230 oh        1 TTZ     -0.584800
      5 C4          3.3290   -0.1220    1.1220 c3        1 TTZ      0.115100
      6 O4          3.3590   -0.8580   -0.0780 oh        1 TTZ     -0.590800
      7 C3          3.8800    1.3120    0.9260 c3        1 TTZ      0.119100
      8 O3          5.2550    1.2620    1.2330 oh        1 TTZ     -0.577800
      9 C2          3.1150    2.1840    1.9240 c3        1 TTZ     -0.058600
     10 S1          2.3920    3.6720    1.2150 ss        1 TTZ     -0.187300
     11 C6          1.9190    1.3400    2.4660 c3        1 TTZ      0.109500
     12 N1          0.6930    2.1090    2.4830 n2        1 TTZ     -0.474900
     13 C1          0.8150    3.2360    1.8370 c2        1 TTZ      0.468100
     14 N1'        -0.3070    4.1500    1.6230 ny        1 TTZ     -0.743000
     15 C1'        -1.6080    3.4210    1.2220 c3        1 TTZ      0.346300
     16 C2'        -2.4290    4.2620    0.2140 c3        1 TTZ      0.105100
     17 O2'        -1.5290    4.7630   -0.7550 oh        1 TTZ     -0.623800
     18 O5'        -2.3290    3.0730    2.3660 os        1 TTZ     -0.369600
     19 C5'        -3.0690    4.1060    3.0410 c3        1 TTZ      0.041100
     20 C6'        -3.8570    3.3560    4.1280 c3        1 TTZ      0.141400
     21 O6'        -2.9800    2.8530    5.1040 oh        1 TTZ     -0.575800
     22 C4'        -3.9930    4.8650    2.0830 c3        1 TTZ      0.083100
     23 O4'        -4.5340    6.0070    2.7200 oh        1 TTZ     -0.586800
     24 C3'        -3.1700    5.4140    0.9060 c3        1 TTZ      0.105100
     25 O3'        -4.0000    5.9810   -0.0870 oh        1 TTZ     -0.590800
     26 H7         -0.6550   -0.3670    1.3300 ho        1 TTZ      0.429000
     27 H7C1        1.0590   -0.8080   -0.2590 h1        1 TTZ      0.074200
     28 H7C2        1.1980    1.0190   -0.2960 h1        1 TTZ      0.074200
     29 H5          1.6000   -1.8180    1.9610 ho        1 TTZ      0.434000
     30 H4          3.9130   -0.6480    1.9290 h1        1 TTZ      0.092700
     31 H6          2.1150    1.0040    3.5290 h1        1 TTZ      0.150700
     32 HA          4.2880   -1.0580   -0.2620 ho        1 TTZ      0.437000
     33 H3          3.7100    1.6560   -0.1310 h1        1 TTZ      0.081700
     34 HB          5.6680    2.0600    0.8780 ho        1 TTZ      0.423000
     35 H2          3.7960    2.4910    2.7590 h1        1 TTZ      0.130700
     36 H1'        -0.4680    4.6870    2.4840 hn        1 TTZ      0.474800
     37 HC         -1.3100    2.4200    0.7550 hx        1 TTZ      0.189700
     38 H2'        -3.1730    3.5630   -0.2670 h1        1 TTZ      0.114700
     39 HD         -2.0570    5.2590   -1.4020 ho        1 TTZ      0.471000
     40 H3'        -2.4450    6.1910    1.2790 h1        1 TTZ      0.055700
     41 H5'        -2.3520    4.8190    3.5320 h1        1 TTZ      0.067700
     42 H6'1       -4.4740    2.5430    3.6640 h1        1 TTZ      0.073200
     43 H6'2       -4.5130    4.0920    4.6680 h1        1 TTZ      0.073200
     44 H4'        -4.8080    4.1890    1.7020 h1        1 TTZ      0.083700
     45 H6'        -2.5480    2.0710    4.7330 ho        1 TTZ      0.419000
     46 HE         -5.2640    5.7120    3.2810 ho        1 TTZ      0.432000
     47 HF         -4.5420    6.6570    0.3480 ho        1 TTZ      0.449000
     48 H1'2       -0.0520    4.7920    0.8550 hn        1 TTZ      0.474800
@<TRIPOS>BOND
     1    1    2 1   
     2    1   26 1   
     3    2    3 1   
     4    2   27 1   
     5    2   28 1   
     6    3    4 1   
     7    3    5 1   
     8    3   11 1   
     9    4   29 1   
    10    5    6 1   
    11    5    7 1   
    12    5   30 1   
    13    6   32 1   
    14    7    8 1   
    15    7    9 1   
    16    7   33 1   
    17    8   34 1   
    18    9   10 1   
    19    9   11 1   
    20    9   35 1   
    21   10   13 1   
    22   11   12 1   
    23   11   31 1   
    24   12   13 2   
    25   13   14 1   
    26   14   15 1   
    27   14   36 1   
    28   14   48 1   
    29   15   16 1   
    30   15   18 1   
    31   15   37 1   
    32   16   17 1   
    33   16   24 1   
    34   16   38 1   
    35   17   39 1   
    36   18   19 1   
    37   19   20 1   
    38   19   22 1   
    39   19   41 1   
    40   20   21 1   
    41   20   42 1   
    42   20   43 1   
    43   21   45 1   
    44   22   23 1   
    45   22   24 1   
    46   22   44 1   
    47   23   46 1   
    48   24   25 1   
    49   24   40 1   
    50   25   47 1   
@<TRIPOS>SUBSTRUCTURE
     1 TTZ         1 TEMP              0 ****  ****    0 ROOT
