@<TRIPOS>MOLECULE
TU0
   20    20     1     0     0
SMALL
bcc


@<TRIPOS>ATOM
      1 BR          3.5360   -1.1660    0.4140 br        1 TU0     -0.122100
      2 C4          2.3090    0.2360    0.1890 ca        1 TU0     -0.065900
      3 C3          2.7750    1.5310   -0.0540 ca        1 TU0     -0.090000
      4 C2          1.8740    2.5740   -0.2280 ca        1 TU0     -0.175000
      5 C5          0.9380   -0.0170    0.2660 ca        1 TU0     -0.058000
      6 C6          0.0090    1.0180    0.1050 ca        1 TU0     -0.108800
      7 C1          0.4940    2.3190   -0.1520 ca        1 TU0      0.145100
      8 O13        -0.3220    3.4070   -0.3450 oh        1 TU0     -0.511100
      9 C7         -1.4200    0.7610    0.2170 ce        1 TU0     -0.085200
     10 C8         -2.0520   -0.3160   -0.2420 c2        1 TU0     -0.298100
     11 S9         -3.7920   -0.5740   -0.1000 s6        1 TU0      1.449700
     12 O10        -4.1970   -0.9040   -1.4130 o         1 TU0     -0.744867
     13 O11        -3.9150   -1.6370    0.8220 o         1 TU0     -0.744867
     14 O12        -4.3020    0.6610    0.3680 o         1 TU0     -0.744867
     15 H3          3.8550    1.7350   -0.1130 ha        1 TU0      0.133000
     16 H5          0.5600   -1.0350    0.4580 ha        1 TU0      0.160000
     17 H2          2.2230    3.5960   -0.4260 ha        1 TU0      0.141000
     18 H7         -2.0020    1.5460    0.7430 ha        1 TU0      0.140000
     19 H13        -1.2440    3.1030   -0.3600 ho        1 TU0      0.444000
     20 H8         -1.5080   -1.1150   -0.7640 h4        1 TU0      0.134000
@<TRIPOS>BOND
     1    1    2 1   
     2    2    3 ar  
     3    2    5 ar  
     4    3    4 ar  
     5    3   15 1   
     6    4    7 ar  
     7    4   17 1   
     8    5    6 ar  
     9    5   16 1   
    10    6    7 ar  
    11    6    9 1   
    12    7    8 1   
    13    8   19 1   
    14    9   10 2   
    15    9   18 1   
    16   10   11 1   
    17   10   20 1   
    18   11   12 1   
    19   11   13 1   
    20   11   14 1   
@<TRIPOS>SUBSTRUCTURE
     1 TU0         1 TEMP              0 ****  ****    0 ROOT
