@<TRIPOS>MOLECULE
TU0
   20    20     1     0     0
SMALL
bcc


@<TRIPOS>ATOM
      1 BR          0.4300    1.3470   -0.6020 br        1 TU0     -0.114100
      2 C4          2.1340    0.5920   -0.3840 ca        1 TU0     -0.054900
      3 C3          2.7280    0.6120    0.8780 ca        1 TU0     -0.085000
      4 C2          3.9840    0.0400    1.0600 ca        1 TU0     -0.234000
      5 C5          2.7950    0.0190   -1.4760 ca        1 TU0     -0.051000
      6 C6          4.0570   -0.5660   -1.3180 ca        1 TU0     -0.058800
      7 C1          4.6380   -0.5520   -0.0280 ca        1 TU0      0.129100
      8 O13         5.8650   -1.1630    0.1220 oh        1 TU0     -0.495100
      9 C7          4.7680   -1.2270   -2.4050 ce        1 TU0     -0.022200
     10 C8          4.8200   -0.9030   -3.6950 c2        1 TU0     -0.331100
     11 S9          4.1510    0.3890   -4.6800 s6        1 TU0      1.449700
     12 O10         4.5820    0.0530   -5.9870 o         1 TU0     -0.746533
     13 O11         2.7440    0.3030   -4.5090 o         1 TU0     -0.746533
     14 O12         4.7100    1.5890   -4.1880 o         1 TU0     -0.746533
     15 H3          2.2160    1.0750    1.7350 ha        1 TU0      0.128000
     16 H5          2.3330    0.0320   -2.4890 ha        1 TU0      0.225000
     17 H2          4.4600    0.0550    2.0500 ha        1 TU0      0.120000
     18 H7          5.3440   -2.1030   -2.0410 ha        1 TU0      0.095000
     19 H13         6.1800   -0.9700    1.0160 ho        1 TU0      0.405000
     20 H8          5.4350   -1.5720   -4.3290 h4        1 TU0      0.134000
@<TRIPOS>BOND
     1    1    2 1   
     2    2    3 ar  
     3    2    5 ar  
     4    3    4 ar  
     5    3   15 1   
     6    4    7 ar  
     7    4   17 1   
     8    5    6 ar  
     9    5   16 1   
    10    6    7 ar  
    11    6    9 1   
    12    7    8 1   
    13    8   19 1   
    14    9   10 2   
    15    9   18 1   
    16   10   11 1   
    17   10   20 1   
    18   11   12 1   
    19   11   13 1   
    20   11   14 1   
@<TRIPOS>SUBSTRUCTURE
     1 TU0         1 TEMP              0 ****  ****    0 ROOT
