@<TRIPOS>MOLECULE
TU0
   20    20     1     0     0
SMALL
bcc


@<TRIPOS>ATOM
      1 Br          0.4400    1.3710   -0.6030 br        1 TU0     -0.114100
      2 C4          2.1490    0.6270   -0.3840 ca        1 TU0     -0.054900
      3 C3          2.7600    0.6880    0.8690 ca        1 TU0     -0.085000
      4 C2          4.0190    0.1250    1.0520 ca        1 TU0     -0.234000
      5 C5          2.7960    0.0200   -1.4660 ca        1 TU0     -0.051000
      6 C6          4.0620   -0.5570   -1.3070 ca        1 TU0     -0.058800
      7 C1          4.6600   -0.5000   -0.0260 ca        1 TU0      0.129100
      8 O13         5.8910   -1.1030    0.1270 oh        1 TU0     -0.495100
      9 C7          4.7590   -1.2520   -2.3810 ce        1 TU0     -0.022200
     10 C8          4.7920   -0.9700   -3.6820 c2        1 TU0     -0.331100
     11 S9          4.1070    0.2880   -4.6980 s6        1 TU0      1.449700
     12 O10         4.5200   -0.0900   -6.0000 o         1 TU0     -0.746533
     13 O11         2.7030    0.2040   -4.5060 o         1 TU0     -0.746533
     14 O12         4.6690    1.5040   -4.2530 o         1 TU0     -0.746533
     15 H3          2.2590    1.1780    1.7170 ha        1 TU0      0.128000
     16 H5          2.3200   -0.0010   -2.4720 ha        1 TU0      0.225000
     17 H2          4.5100    0.1740    2.0330 ha        1 TU0      0.120000
     18 H7          5.3420   -2.1150   -1.9970 ha        1 TU0      0.095000
     19 H13         6.2180   -0.8810    1.0100 ho        1 TU0      0.405000
     20 H8          5.4000   -1.6580   -4.3030 h4        1 TU0      0.134000
@<TRIPOS>BOND
     1    1    2 1   
     2    2    3 ar  
     3    2    5 ar  
     4    3    4 ar  
     5    3   15 1   
     6    4    7 ar  
     7    4   17 1   
     8    5    6 ar  
     9    5   16 1   
    10    6    7 ar  
    11    6    9 1   
    12    7    8 1   
    13    8   19 1   
    14    9   10 2   
    15    9   18 1   
    16   10   11 1   
    17   10   20 1   
    18   11   12 1   
    19   11   13 1   
    20   11   14 1   
@<TRIPOS>SUBSTRUCTURE
     1 TU0         1 TEMP              0 ****  ****    0 ROOT
