@<TRIPOS>MOLECULE
TU1
   60    62     1     0     0
SMALL
bcc


@<TRIPOS>ATOM
      1 C4          0.0570   -1.1290   -0.3730 c3        1 TU1     -0.248000
      2 F2         -4.2810   -6.4060   -7.6730 f         1 TU1     -0.064000
      3 N1          1.2470   -3.1890    0.2010 n7        1 TU1     -0.202000
      4 O1         -7.3880   -1.4690    0.2000 o         1 TU1     -0.215000
      5 C3          1.3130   -1.9290   -0.2770 c1        1 TU1      0.009000
      6 F3         -4.2140   -1.7980   -2.4830 f         1 TU1     -0.122000
      7 C2          0.1240   -3.8360    0.6150 c1        1 TU1      0.043000
      8 C7         -4.8700    0.0070    0.0940 c2        1 TU1     -0.383000
      9 N3         -5.9050   -0.1110   -0.9600 ny        1 TU1     -0.045000
     10 C1         -1.1370   -3.0920    0.5510 c2        1 TU1     -0.223000
     11 N4         -6.1630    3.8300   -0.3920 n2        1 TU1     -0.210000
     12 C5         -1.1990   -1.8130    0.0840 c2        1 TU1     -0.001000
     13 C6         -2.5870    0.1120   -0.4530 c2        1 TU1      0.272000
     14 C9         -6.3940   -2.5010   -1.7210 ca        1 TU1     -0.212000
     15 C10        -7.4190   -3.4640   -1.8060 ca        1 TU1     -0.027000
     16 C11        -7.3280   -4.5350   -2.6830 ca        1 TU1     -0.139000
     17 C12        -6.2020   -4.6930   -3.5090 cp        1 TU1      0.077000
     18 C13        -6.1020   -5.8060   -4.4390 cq        1 TU1     -0.137000
     19 C14        -6.6130   -7.0710   -4.1780 ca        1 TU1      0.177000
     20 C15        -6.4800   -7.8670   -5.4170 ca        1 TU1     -0.172000
     21 C16        -5.1790   -7.8690   -5.8540 ca        1 TU1     -0.122000
     22 C17        -4.9540   -6.5710   -6.5320 ca        1 TU1      0.117000
     23 C18        -5.4030   -5.5510   -5.7210 ca        1 TU1     -0.173000
     24 C19        -5.1640   -3.7530   -3.4260 ca        1 TU1     -0.164000
     25 C20        -5.2540   -2.6690   -2.5400 ca        1 TU1      0.129000
     26 C21        -5.3300    0.6820    1.3610 c3        1 TU1     -0.103000
     27 C22        -6.2070    1.8780    1.1780 c2        1 TU1     -0.212000
     28 C23        -5.6190    2.9220    0.3190 c2        1 TU1     -0.047000
     29 C24        -8.1820    3.1820    1.6940 c1        1 TU1     -0.186000
     30 C29        -8.8530    4.1730    1.6260 c1        1 TU1     -0.124000
     31 C28       -10.3950    0.4340    2.9810 c1        1 TU1      0.222000
     32 C27        -9.3370    1.1940    3.1530 c2        1 TU1     -0.500000
     33 C26        -7.9610    0.9270    2.6780 c3        1 TU1     -0.052000
     34 C25        -7.4030    2.0130    1.8070 c2        1 TU1      0.085000
     35 F1         -7.2090   -7.4780   -3.0600 f         1 TU1     -0.059000
     36 H2         -3.2620   -1.5930    0.3800 hn        1 TU1      0.305000
     37 H7         -1.7420    0.7130   -0.8680 h5        1 TU1      0.233000
     38 H4          0.2500   -0.1960    0.2330 hc        1 TU1      0.165500
     39 H1         -2.0130   -3.6560    0.9120 ha        1 TU1      0.178000
     40 H3         -0.0210   -0.8220   -1.4560 hc        1 TU1      0.165500
     41 HA          2.1110   -3.7040    0.2550 hn        1 TU1      0.292000
     42 H211       -5.8470   -0.1180    1.9600 hc        1 TU1      0.120500
     43 H212       -4.4170    0.9960    1.9380 hc        1 TU1      0.120500
     44 HB         -5.4650   -0.0850   -1.8830 hn        1 TU1      0.226000
     45 H23        -4.5050    2.8830    0.2820 h4        1 TU1      0.142000
     46 H26        -7.2880    0.8080    3.5750 hc        1 TU1      0.112000
     47 H27        -7.9390   -0.0440    2.1050 hc        1 TU1      0.112000
     48 H28        -9.4470    5.0530    1.5660 ha        1 TU1      0.242000
     49 H29        -9.4630    2.1360    3.7310 ha        1 TU1      0.202000
     50 HC         -7.1590    3.9060   -0.3690 hn        1 TU1      0.151000
     51 H10        -8.3070   -3.3580   -1.1570 ha        1 TU1      0.176000
     52 H19        -4.2600   -3.8650   -4.0460 ha        1 TU1      0.174000
     53 H11        -8.1490   -5.2710   -2.7290 ha        1 TU1      0.175000
     54 H18        -5.2330   -4.5010   -5.9950 ha        1 TU1      0.156000
     55 H16        -4.3270   -8.3500   -5.3590 ha        1 TU1      0.169000
     56 H15        -7.3290   -7.7460   -6.1140 ha        1 TU1      0.165000
     57 N2         -2.4320   -1.1170    0.0320 n7        1 TU1     -0.190000
     58 O2         -3.7460    0.7620   -0.4680 os        1 TU1     -0.156000
     59 H32        -6.5960    0.6520   -0.8990 hn        1 TU1      0.226000
     60 C8         -6.6130   -1.4210   -0.7520 c2        1 TU1      0.352000
@<TRIPOS>BOND
     1    1    5 1   
     2    1   12 1   
     3    1   38 1   
     4    1   40 1   
     5    2   22 1   
     6    3    5 1   
     7    3    7 1   
     8    3   41 1   
     9    4   60 1   
    10    6   25 1   
    11    7   10 1   
    12    8    9 1   
    13    8   26 1   
    14    8   58 1   
    15    9   44 1   
    16    9   59 1   
    17    9   60 1   
    18   10   12 1   
    19   10   39 1   
    20   11   28 1   
    21   11   50 1   
    22   12   57 1   
    23   13   37 1   
    24   13   57 1   
    25   13   58 1   
    26   14   15 1   
    27   14   25 1   
    28   14   60 1   
    29   15   16 1   
    30   15   51 1   
    31   16   17 1   
    32   16   53 1   
    33   17   18 1   
    34   17   24 1   
    35   18   19 1   
    36   18   23 1   
    37   19   20 1   
    38   19   35 1   
    39   20   21 1   
    40   20   56 1   
    41   21   22 1   
    42   21   55 1   
    43   22   23 1   
    44   23   54 1   
    45   24   25 1   
    46   24   52 1   
    47   26   27 1   
    48   26   42 1   
    49   26   43 1   
    50   27   28 1   
    51   27   34 1   
    52   28   45 1   
    53   29   30 1   
    54   29   34 1   
    55   30   48 1   
    56   31   32 1   
    57   32   33 1   
    58   32   49 1   
    59   33   34 1   
    60   33   46 1   
    61   33   47 1   
    62   36   57 1   
@<TRIPOS>SUBSTRUCTURE
     1 TU1         1 TEMP              0 ****  ****    0 ROOT
