@<TRIPOS>MOLECULE
TU1
   59    59     1     0     0
SMALL
bcc


@<TRIPOS>ATOM
      1 C4          0.2880   -0.0180   -0.6290 c2        1 TU1     -0.244000
      2 F2         -7.1840   -7.1990   -7.5530 f         1 TU1     -0.136000
      3 N1         -0.6600   -2.6000    5.2170 n2        1 TU1     -0.390000
      4 O1         -4.3700   -2.5030    0.3770 o         1 TU1     -0.359000
      5 C3         -0.7870   -2.7750    6.3750 c1        1 TU1      0.080000
      6 F3         -3.5790   -4.6850   -1.4330 f         1 TU1     -0.083000
      7 C2         -0.2480   -2.0940    2.1710 c1        1 TU1      0.185000
      8 C7         -4.2500    0.1780   -0.3940 c3        1 TU1      0.016000
      9 N3         -4.7470   -0.8980   -1.2100 n         1 TU1     -0.377000
     10 C1         -0.0270   -1.8940    0.8940 c2        1 TU1     -0.437000
     11 N4         -8.3910    1.7820   -1.7930 n2        1 TU1     -0.214000
     12 C5         -0.5650   -0.8050    0.0570 c2        1 TU1      0.081000
     13 C6         -2.7020    0.3170   -0.5190 c2        1 TU1      0.281000
     14 C9         -5.4510   -3.1950   -1.6540 ca        1 TU1     -0.156000
     15 C10        -6.7130   -2.9480   -2.2040 ca        1 TU1     -0.075000
     16 C11        -7.3340   -3.8940   -3.0120 ca        1 TU1     -0.134000
     17 C12        -6.6970   -5.1110   -3.2920 ca        1 TU1      0.001000
     18 C13        -7.3420   -6.1090   -4.1500 c2        1 TU1     -0.100000
     19 C14        -8.7780   -6.5240   -3.6690 c3        1 TU1      0.243000
     20 C15        -9.1320   -7.4960   -4.6990 c1        1 TU1     -0.185000
     21 C16        -8.5750   -7.8840   -5.7050 c1        1 TU1     -0.179000
     22 C17        -7.2410   -7.6420   -6.2490 c3        1 TU1      0.231000
     23 C18        -6.7210   -6.5640   -5.2590 c2        1 TU1     -0.165000
     24 C19        -5.4320   -5.3720   -2.7590 ca        1 TU1     -0.158000
     25 C20        -4.8050   -4.4180   -1.9340 ca        1 TU1      0.149000
     26 C21        -4.8700    1.5440   -0.7410 c3        1 TU1     -0.129000
     27 C22        -6.3180    1.6200   -0.4010 c2        1 TU1     -0.129000
     28 C23        -7.2270    1.3330   -1.5280 c2        1 TU1     -0.032000
     29 C24        -8.1330    2.0180    1.1600 c1        1 TU1     -0.166000
     30 C29        -9.2890    2.0790    1.4750 c1        1 TU1     -0.156000
     31 C28        -5.7370    4.5330    3.0160 c1        1 TU1      0.213000
     32 C27        -5.5000    3.7010    2.0270 c2        1 TU1     -0.493000
     33 C26        -5.8420    2.2560    1.9820 c3        1 TU1     -0.044000
     34 C25        -6.7620    1.9490    0.8370 c2        1 TU1      0.044000
     35 F1         -8.7760   -7.0060   -2.3780 f         1 TU1     -0.131000
     36 H2         -2.4690   -1.4650    0.4690 hn        1 TU1      0.263000
     37 H7         -4.4900   -0.0650    0.6890 h1        1 TU1      0.135000
     38 H4         -0.0350    0.8110   -1.2720 ha        1 TU1      0.143500
     39 H1          0.6540   -2.5870    0.3540 ha        1 TU1      0.210000
     40 H3          1.3710   -0.1780   -0.5540 ha        1 TU1      0.143500
     41 HA         -0.5560   -2.4540    4.2570 hn        1 TU1      0.297000
     42 H211       -4.2950    2.3260   -0.1730 hc        1 TU1      0.120000
     43 H212       -4.7120    1.7650   -1.8310 hc        1 TU1      0.120000
     44 HB         -5.0130   -0.6890   -2.1420 hn        1 TU1      0.239000
     45 H23        -6.8070    0.6220   -2.2740 h4        1 TU1      0.130000
     46 H26        -4.8910    1.6630    1.8870 hc        1 TU1      0.104000
     47 H27        -6.3300    1.9410    2.9450 hc        1 TU1      0.104000
     48 H28       -10.3120    2.1320    1.7500 ha        1 TU1      0.233000
     49 H29        -4.9870    4.0910    1.1230 ha        1 TU1      0.193000
     50 HC         -8.7930    2.4310   -1.1480 hn        1 TU1      0.151000
     51 H10        -7.2290   -1.9980   -1.9840 ha        1 TU1      0.153000
     52 H19        -4.9210   -6.3250   -2.9660 ha        1 TU1      0.162000
     53 H11        -8.3280   -3.6800   -3.4360 ha        1 TU1      0.149000
     54 H18        -5.7340   -6.1720   -5.5550 ha        1 TU1      0.159000
     55 H16        -6.5930   -8.5650   -6.1560 h1        1 TU1      0.132000
     56 H15        -9.4480   -5.6140   -3.7130 h1        1 TU1      0.128000
     57 N2         -1.9690   -0.7010    0.0590 n         1 TU1     -0.323000
     58 C8         -4.8170   -2.1980   -0.7470 c2        1 TU1      0.358000
     59 O2         -2.2000    1.3000   -1.0910 o         1 TU1     -0.353000
@<TRIPOS>BOND
     1    1   12 1   
     2    1   38 1   
     3    1   40 1   
     4    2   22 1   
     5    3    5 1   
     6    3   41 1   
     7    4   58 1   
     8    6   25 1   
     9    7   10 1   
    10    8    9 1   
    11    8   13 1   
    12    8   26 1   
    13    8   37 1   
    14    9   44 1   
    15    9   58 1   
    16   10   12 1   
    17   10   39 1   
    18   11   28 1   
    19   11   50 1   
    20   12   57 1   
    21   13   57 1   
    22   13   59 1   
    23   14   15 1   
    24   14   25 1   
    25   14   58 1   
    26   15   16 1   
    27   15   51 1   
    28   16   17 1   
    29   16   53 1   
    30   17   18 1   
    31   17   24 1   
    32   18   19 1   
    33   18   23 1   
    34   19   20 1   
    35   19   35 1   
    36   19   56 1   
    37   20   21 1   
    38   21   22 1   
    39   22   23 1   
    40   22   55 1   
    41   23   54 1   
    42   24   25 1   
    43   24   52 1   
    44   26   27 1   
    45   26   42 1   
    46   26   43 1   
    47   27   28 1   
    48   27   34 1   
    49   28   45 1   
    50   29   30 1   
    51   29   34 1   
    52   30   48 1   
    53   31   32 1   
    54   32   33 1   
    55   32   49 1   
    56   33   34 1   
    57   33   46 1   
    58   33   47 1   
    59   36   57 1   
@<TRIPOS>SUBSTRUCTURE
     1 TU1         1 TEMP              0 ****  ****    0 ROOT
