@<TRIPOS>MOLECULE
TUB
   86    82     1     0     0
SMALL
bcc


@<TRIPOS>ATOM
      1 C1         -4.4760    1.3640    0.1020 c1        1 TUB      0.100000
      2 C2         -3.0800    1.2420    0.1260 c1        1 TUB      0.007000
      3 C3         -2.4150    1.0850    1.3440 c1        1 TUB     -0.130000
      4 C4         -3.1500    1.0810    2.5520 c2        1 TUB     -0.093000
      5 C5         -4.5060    1.3330    2.5320 c1        1 TUB     -0.013000
      6 C6         -5.1900    1.4060    1.2990 c1        1 TUB     -0.200000
      7 C7         -2.2850    1.6210    3.7050 c3        1 TUB      0.043000
      8 N8         -2.8450    2.5710    4.6140 n3        1 TUB     -0.264000
      9 C9         -4.2740    2.6780    4.7540 c3        1 TUB     -0.064000
     10 C10        -5.1550    2.0800    3.6830 c3        1 TUB     -0.126000
     11 C11         2.0140   -3.1720   -0.2390 c1        1 TUB      0.094000
     12 C12         3.1430   -3.9620   -0.4040 c2        1 TUB      0.039000
     13 C13         4.3360   -3.3870   -0.8710 c1        1 TUB     -0.156000
     14 C14         4.3840   -2.0070   -1.1730 c2        1 TUB     -0.083000
     15 C15         3.2900   -1.2200   -0.9400 c1        1 TUB     -0.131000
     16 C16         2.0990   -1.7960   -0.4120 c1        1 TUB      0.044000
     17 C17         5.4630   -1.5400   -2.1450 c3        1 TUB     -0.137000
     18 C18         5.2980   -0.1590   -2.8410 c3        1 TUB     -0.120000
     19 C20         2.9400   -0.0650   -1.9290 c3        1 TUB      0.000000
     20 O21        -2.3140    1.2070   -1.1500 os        1 TUB     -0.129000
     21 C22        -1.4330    1.2510   -2.3300 c2        1 TUB      0.035000
     22 C23        -1.8790    0.3420    4.5240 c3        1 TUB     -0.159000
     23 C24        -0.5590   -0.3230    3.8750 c2        1 TUB     -0.082000
     24 C25        -0.2540    0.5410   -2.0730 c2        1 TUB     -0.113000
     25 C26         0.6820    0.3570   -3.0900 c1        1 TUB     -0.162000
     26 C27         0.4800    0.9470   -4.3350 c2        1 TUB     -0.102000
     27 C28        -0.6870    1.6650   -4.5840 c1        1 TUB     -0.213000
     28 C29        -1.6280    1.8450   -3.5640 c2        1 TUB      0.107000
     29 C30        -0.9070   -1.6600    3.2910 c2        1 TUB     -0.086000
     30 C31        -0.6710   -1.6300    1.8060 c1        1 TUB     -0.142000
     31 C32         0.9470    0.2020    2.0690 c1        1 TUB     -0.209000
     32 C33         0.1080    0.6180    3.1050 c2        1 TUB     -0.109000
     33 O34         0.9810   -0.9020    0.0830 os        1 TUB     -0.146000
     34 C35         1.9150   -0.6760   -2.8780 c2        1 TUB     -0.133000
     35 O36         3.1540   -5.2650    0.0980 os        1 TUB     -0.215000
     36 O37        -5.1680    1.4830   -1.1550 os        1 TUB     -0.179000
     37 O38        -2.6100    2.8520   -3.8140 oh        1 TUB     -0.203000
     38 C39         0.8000   -1.0830    1.5180 c1        1 TUB      0.047000
     39 C40         3.5070    0.7020   -4.0440 c3        1 TUB     -0.190000
     40 C41         4.2610    1.8250   -2.2090 c3        1 TUB     -0.190000
     41 C42        -2.2650    2.4080    5.8780 c3        1 TUB     -0.114000
     42 O43         0.7520   -3.7810   -0.0450 o         1 TUB     -0.207000
     43 C45         3.5010   -6.2200   -0.8340 c3        1 TUB     -0.074000
     44 C46        -6.3780    0.7070   -1.2320 c3        1 TUB     -0.083000
     45 H3         -1.4630    1.0820    1.3680 DU        1 TUB      0.144250
     46 H6         -6.1630    1.5210    1.2850 ha        1 TUB      0.149000
     47 H7         -1.4740    2.0110    3.3200 h1        1 TUB      0.089000
     48 H9         -4.5130    2.2350    5.6010 h1        1 TUB      0.080000
     49 H9A        -4.4850    3.6240    4.7980 h1        1 TUB      0.080000
     50 H10        -5.7680    1.4650    4.1210 hc        1 TUB      0.104500
     51 H10A       -5.6800    2.8010    3.3030 hc        1 TUB      0.104500
     52 H13         5.1660   -3.9650   -0.9940 DU        1 TUB      0.144250
     53 H17         5.5380   -2.2140   -2.8460 hc        1 TUB      0.126500
     54 H18         5.9850    0.4460   -2.4510 hx        1 TUB      0.137000
     55 H20         2.4990    0.6590   -1.4150 hx        1 TUB      0.153000
     56 H23        -1.6950    0.5950    5.4520 hc        1 TUB      0.105000
     57 H23A       -2.6090   -0.3000    4.5020 hc        1 TUB      0.105000
     58 H25        -0.0610    0.2310   -1.1770 ha        1 TUB      0.159000
     59 H27         1.1340    0.8220   -5.0450 ha        1 TUB      0.132000
     60 H28        -0.8230    2.0910   -5.4530 DU        1 TUB      0.144250
     61 H30        -1.1750   -2.4650    3.8140 ha        1 TUB      0.158000
     62 H31        -1.2760   -1.9940    1.1340 ha        1 TUB      0.167000
     63 H32         1.7040    0.7770    1.7860 DU        1 TUB      0.144250
     64 H33         0.0860    1.5550    3.3600 ha        1 TUB      0.139000
     65 H35         2.3440   -0.8620   -3.7530 ha        1 TUB      0.135000
     66 H35A        1.5810   -1.5020   -2.5020 ha        1 TUB      0.135000
     67 HO38       -2.8750    2.8030   -4.6580 ho        1 TUB      0.227000
     68 H40         4.1380    1.2390   -4.5680 hx        1 TUB      0.139333
     69 H40A        2.6440    1.1580   -4.0080 hx        1 TUB      0.139333
     70 H40B        3.3970   -0.1700   -4.4640 hx        1 TUB      0.139333
     71 H41         4.9650    2.2590   -2.7320 hx        1 TUB      0.139333
     72 H41A        3.4530    2.3550   -2.2530 hx        1 TUB      0.139333
     73 H41B        4.5460    1.7460   -1.2830 hx        1 TUB      0.139333
     74 H42        -1.3000    2.2870    5.7810 h1        1 TUB      0.074667
     75 H42A       -2.4420    3.2040    6.4250 h1        1 TUB      0.074667
     76 H42B       -2.6570    1.6060    6.3230 h1        1 TUB      0.074667
     77 HO43        0.7830   -4.6300   -0.3280 ho        1 TUB      0.252000
     78 H45         3.4260   -5.8400   -1.7340 h1        1 TUB      0.098333
     79 H45A        4.4220   -6.5080   -0.6770 h1        1 TUB      0.098333
     80 H45B        2.9020   -6.9870   -0.7540 h1        1 TUB      0.098333
     81 H46        -6.2900   -0.1000   -0.6600 h1        1 TUB      0.089667
     82 H46A       -6.5360    0.4270   -2.1800 h1        1 TUB      0.089667
     83 H46B       -7.1440    1.2550   -0.9170 h1        1 TUB      0.089667
     84 N19         4.0070    0.5360   -2.7360 n4        1 TUB      0.036000
     85 H401        6.3100   -1.5240   -1.6570 hc        1 TUB      0.126500
     86 H411        5.4710   -0.2980   -3.7980 hx        1 TUB      0.137000
@<TRIPOS>BOND
     1    1    6 1   
     2    1   36 1   
     3    2    3 1   
     4    2   20 1   
     5    3    4 1   
     6    4    5 1   
     7    4    7 1   
     8    5   10 1   
     9    6   46 1   
    10    7    8 1   
    11    7   22 1   
    12    7   47 1   
    13    8    9 1   
    14    8   41 1   
    15    9   10 1   
    16    9   48 1   
    17    9   49 1   
    18   10   50 1   
    19   10   51 1   
    20   11   12 1   
    21   11   16 1   
    22   12   13 1   
    23   12   35 1   
    24   13   14 1   
    25   14   15 1   
    26   14   17 1   
    27   15   19 1   
    28   16   33 1   
    29   17   18 1   
    30   17   53 1   
    31   17   85 1   
    32   18   54 1   
    33   18   84 1   
    34   18   86 1   
    35   19   34 1   
    36   19   55 1   
    37   19   84 1   
    38   20   21 1   
    39   21   24 1   
    40   21   28 1   
    41   22   23 1   
    42   22   56 1   
    43   22   57 1   
    44   23   29 1   
    45   23   32 1   
    46   24   25 1   
    47   24   58 1   
    48   25   26 1   
    49   26   27 1   
    50   26   59 1   
    51   27   28 1   
    52   28   37 1   
    53   29   30 1   
    54   29   61 1   
    55   30   62 1   
    56   31   32 1   
    57   31   38 1   
    58   32   64 1   
    59   33   38 1   
    60   34   65 1   
    61   34   66 1   
    62   35   43 1   
    63   36   44 1   
    64   37   67 1   
    65   39   68 1   
    66   39   69 1   
    67   39   70 1   
    68   39   84 1   
    69   40   71 1   
    70   40   72 1   
    71   40   73 1   
    72   40   84 1   
    73   41   74 1   
    74   41   75 1   
    75   41   76 1   
    76   42   77 1   
    77   43   78 1   
    78   43   79 1   
    79   43   80 1   
    80   44   81 1   
    81   44   82 1   
    82   44   83 1   
@<TRIPOS>SUBSTRUCTURE
     1 TUB         1 TEMP              0 ****  ****    0 ROOT
