@<TRIPOS>MOLECULE
TUB
   86    92     1     0     0
SMALL
bcc


@<TRIPOS>ATOM
      1 C1          4.1870   -1.7310   -0.5910 ca        1 TUB      0.125100
      2 C2          3.2020   -1.3020    0.3260 ca        1 TUB      0.038100
      3 C3          3.1530    0.0350    0.7230 ca        1 TUB     -0.085000
      4 C4          4.0890    0.9510    0.2320 ca        1 TUB     -0.131300
      5 C5          5.0840    0.5220   -0.6580 ca        1 TUB     -0.020300
      6 C6          5.1210   -0.8130   -1.0790 ca        1 TUB     -0.195000
      7 C7          4.0360    2.3890    0.6980 c3        1 TUB      0.233800
      8 N8          5.3170    3.0970    0.5880 n3        1 TUB     -0.718600
      9 C9          5.9320    2.8960   -0.7130 c3        1 TUB      0.162800
     10 C10         6.1510    1.4420   -1.1350 c3        1 TUB     -0.078100
     11 C11        -3.9730    2.4660    0.2980 ca        1 TUB      0.119100
     12 C12        -5.1830    2.3350   -0.4340 ca        1 TUB      0.090100
     13 C13        -5.6720    1.0780   -0.7890 ca        1 TUB     -0.162000
     14 C14        -4.9420   -0.0680   -0.4550 ca        1 TUB     -0.078300
     15 C15        -3.7180    0.0460    0.2120 ca        1 TUB     -0.160300
     16 C16        -3.2520    1.3050    0.6300 ca        1 TUB      0.113100
     17 C17        -5.4640   -1.4130   -0.8080 c3        1 TUB     -0.048100
     18 C18        -4.9620   -2.5710    0.0600 c3        1 TUB      0.119800
     19 C20        -2.9290   -1.2020    0.4930 c3        1 TUB      0.205800
     20 O21         2.3780   -2.2240    0.9790 os        1 TUB     -0.253200
     21 C22         1.2850   -2.6840    0.2460 ca        1 TUB      0.020100
     22 C23         2.9360    3.1600   -0.0700 c3        1 TUB     -0.036100
     23 C24         1.5670    2.7280    0.3160 ca        1 TUB     -0.080300
     24 C25         0.1440   -1.9040    0.0610 ca        1 TUB     -0.094000
     25 C26        -0.9810   -2.4580   -0.5620 ca        1 TUB     -0.173300
     26 C27        -0.9270   -3.7740   -1.0450 ca        1 TUB     -0.109000
     27 C28         0.1980   -4.5640   -0.8550 ca        1 TUB     -0.159000
     28 C29         1.3140   -4.0290   -0.1880 ca        1 TUB      0.171100
     29 C30         1.1240    2.8600    1.6400 ca        1 TUB     -0.102500
     30 C31        -0.1490    2.4410    2.0110 ca        1 TUB     -0.154000
     31 C32        -0.5840    1.7880   -0.3020 ca        1 TUB     -0.154000
     32 C33         0.6960    2.2150   -0.6520 ca        1 TUB     -0.102500
     33 O34        -2.1830    1.3450    1.5120 os        1 TUB     -0.256200
     34 C35        -2.1940   -1.6320   -0.7910 c3        1 TUB     -0.034100
     35 O36        -5.8010    3.5340   -0.7150 os        1 TUB     -0.332900
     36 O37         4.1530   -3.0650   -0.9340 os        1 TUB     -0.344900
     37 O38         2.3700   -4.8620    0.0300 oh        1 TUB     -0.478100
     38 C39        -0.9840    1.8820    1.0320 ca        1 TUB      0.090100
     39 C42         6.2090    2.8410    1.6980 c3        1 TUB      0.150100
     40 O43        -3.4790    3.6680    0.7180 oh        1 TUB     -0.460100
     41 C45        -7.0020    3.4700   -1.4830 c3        1 TUB      0.115700
     42 C46         5.1630   -3.5190   -1.8330 c3        1 TUB      0.113700
     43 H3          2.3810    0.3610    1.4390 ha        1 TUB      0.150000
     44 H6          5.9030   -1.1320   -1.7840 ha        1 TUB      0.149000
     45 H7          3.7450    2.3880    1.7930 h1        1 TUB      0.064700
     46 H9          5.2630    3.3980   -1.4690 h1        1 TUB      0.059700
     47 H9A         6.9220    3.4310   -0.7260 h1        1 TUB      0.059700
     48 H10         7.1340    1.0790   -0.7270 hc        1 TUB      0.063700
     49 H10A        6.2200    1.3990   -2.2550 hc        1 TUB      0.063700
     50 H13        -6.6260    0.9800   -1.3280 ha        1 TUB      0.158000
     51 H17        -6.5870   -1.4070   -0.7560 hc        1 TUB      0.085700
     52 H18        -4.5560   -3.3760   -0.6190 hx        1 TUB      0.092200
     53 H20        -2.1570   -1.0050    1.3010 hx        1 TUB      0.125700
     54 H23         3.0400    4.2590    0.1490 hc        1 TUB      0.068200
     55 H23A        3.0880    3.0220   -1.1730 hc        1 TUB      0.068200
     56 H25         0.1420   -0.8530    0.3960 ha        1 TUB      0.154000
     57 H27        -1.7840   -4.1900   -1.6000 ha        1 TUB      0.128000
     58 H28         0.2400   -5.6000   -1.2250 ha        1 TUB      0.165000
     59 H30         1.7890    3.3070    2.3970 ha        1 TUB      0.147500
     60 H31        -0.5040    2.5380    3.0470 ha        1 TUB      0.146000
     61 H32        -1.2710    1.3980   -1.0670 ha        1 TUB      0.146000
     62 H33         1.0230    2.1400   -1.7010 ha        1 TUB      0.147500
     63 H35        -2.9000   -2.1510   -1.4920 hc        1 TUB      0.078200
     64 H35A       -1.8770   -0.6750   -1.2980 hc        1 TUB      0.078200
     65 HO38        3.1020   -4.3390    0.4080 ho        1 TUB      0.461000
     66 H40        -2.3700   -3.2390    2.1940 hx        1 TUB      0.100533
     67 H40A       -2.6790   -3.9400    0.5320 hx        1 TUB      0.100533
     68 H40B       -3.8900   -4.2220    1.8810 hx        1 TUB      0.100533
     69 H41        -5.1660   -0.8120    2.0380 hx        1 TUB      0.100533
     70 H41A       -3.7090   -1.3530    3.0070 hx        1 TUB      0.100533
     71 H41B       -5.1380   -2.4840    2.7930 hx        1 TUB      0.100533
     72 H42         6.5330    1.7670    1.7750 h1        1 TUB      0.039033
     73 H42A        7.1210    3.4820    1.5770 h1        1 TUB      0.039033
     74 H42B        5.6940    3.1290    2.6520 h1        1 TUB      0.039033
     75 HO43       -4.0500    4.3760    0.3720 ho        1 TUB      0.454000
     76 H45        -6.8080    2.9970   -2.4760 h1        1 TUB      0.059367
     77 H45A       -7.7920    2.9140   -0.9230 h1        1 TUB      0.059367
     78 H45B       -7.2820    4.5490   -1.6020 h1        1 TUB      0.059367
     79 H46         5.0770   -2.9940   -2.8150 h1        1 TUB      0.054367
     80 H46A        6.1770   -3.3700   -1.3910 h1        1 TUB      0.054367
     81 H46B        4.9320   -4.6100   -1.9430 h1        1 TUB      0.054367
     82 N19        -3.8900   -2.2450    1.0630 n4        1 TUB     -0.597800
     83 H401       -5.1880   -1.6300   -1.8790 hc        1 TUB      0.085700
     84 H411       -5.8290   -3.0100    0.6330 hx        1 TUB      0.092200
     85 C40        -3.1630   -3.4900    1.4400 c3        1 TUB      0.089600
     86 C41        -4.5160   -1.6880    2.3040 c3        1 TUB      0.089600
@<TRIPOS>BOND
     1    1    2 ar  
     2    1    6 ar  
     3    1   36 1   
     4    2    3 ar  
     5    2   20 1   
     6    3    4 ar  
     7    3   43 1   
     8    4    5 ar  
     9    4    7 1   
    10    5    6 ar  
    11    5   10 1   
    12    6   44 1   
    13    7    8 1   
    14    7   22 1   
    15    7   45 1   
    16    8    9 1   
    17    8   39 1   
    18    9   10 1   
    19    9   46 1   
    20    9   47 1   
    21   10   48 1   
    22   10   49 1   
    23   11   12 ar  
    24   11   16 ar  
    25   11   40 1   
    26   12   13 ar  
    27   12   35 1   
    28   13   14 ar  
    29   13   50 1   
    30   14   15 ar  
    31   14   17 1   
    32   15   16 ar  
    33   15   19 1   
    34   16   33 1   
    35   17   18 1   
    36   17   51 1   
    37   17   83 1   
    38   18   52 1   
    39   18   82 1   
    40   18   84 1   
    41   19   34 1   
    42   19   53 1   
    43   19   82 1   
    44   20   21 1   
    45   21   24 ar  
    46   21   28 ar  
    47   22   23 1   
    48   22   54 1   
    49   22   55 1   
    50   23   29 ar  
    51   23   32 ar  
    52   24   25 ar  
    53   24   56 1   
    54   25   26 ar  
    55   25   34 1   
    56   26   27 ar  
    57   26   57 1   
    58   27   28 ar  
    59   27   58 1   
    60   28   37 1   
    61   29   30 ar  
    62   29   59 1   
    63   30   38 ar  
    64   30   60 1   
    65   31   32 ar  
    66   31   38 ar  
    67   31   61 1   
    68   32   62 1   
    69   33   38 1   
    70   34   63 1   
    71   34   64 1   
    72   35   41 1   
    73   36   42 1   
    74   37   65 1   
    75   39   72 1   
    76   39   73 1   
    77   39   74 1   
    78   40   75 1   
    79   41   76 1   
    80   41   77 1   
    81   41   78 1   
    82   42   79 1   
    83   42   80 1   
    84   42   81 1   
    85   66   85 1   
    86   67   85 1   
    87   68   85 1   
    88   69   86 1   
    89   70   86 1   
    90   71   86 1   
    91   82   85 1   
    92   82   86 1   
@<TRIPOS>SUBSTRUCTURE
     1 TUB         1 TEMP              0 ****  ****    0 ROOT
