@<TRIPOS>MOLECULE
TUC
   23    24     1     0     0
SMALL
bcc


@<TRIPOS>ATOM
      1 C1          2.4130   -2.2260    0.0010 ca        1 TUC      0.332200
      2 C2          1.1870   -1.5800    0.0000 ca        1 TUC     -0.171300
      3 C3          1.1640   -0.1610    0.0000 ca        1 TUC     -0.054000
      4 C4          2.3970    0.5380    0.0000 ca        1 TUC     -0.121300
      5 C5          3.5960   -0.2490    0.0000 ca        1 TUC      0.385200
      6 C6         -0.0600    0.5950    0.0000 ca        1 TUC      0.178100
      7 C7         -0.0160    1.9820   -0.0000 ca        1 TUC     -0.251000
      8 C8          1.2250    2.6500   -0.0000 ca        1 TUC     -0.075000
      9 C9          2.4110    1.9540   -0.0000 ca        1 TUC     -0.189000
     10 C10        -2.4390    0.5480    0.0000 c3        1 TUC     -0.016600
     11 C11        -3.5970   -0.4880    0.0000 c         1 TUC      0.926600
     12 N1          3.6170   -1.5730    0.0000 nb        1 TUC     -0.670000
     13 O1         -1.1940   -0.1620    0.0000 os        1 TUC     -0.273900
     14 O3         -3.3410   -1.7160    0.0000 o         1 TUC     -0.818300
     15 H1          2.4820   -3.3270    0.0010 h4        1 TUC      0.012100
     16 H2          0.2320   -2.1310    0.0010 ha        1 TUC      0.184000
     17 H5          4.5740    0.2640    0.0000 h4        1 TUC      0.005100
     18 H7         -0.9430    2.5720   -0.0000 ha        1 TUC      0.145000
     19 H8          1.2280    3.7500   -0.0010 ha        1 TUC      0.117000
     20 H9          3.3770    2.4770   -0.0000 ha        1 TUC      0.119000
     21 H101       -2.5040    1.1860   -0.9170 h1        1 TUC      0.026700
     22 H102       -2.5040    1.1870    0.9170 h1        1 TUC      0.026700
     23 OXT        -4.7480    0.0310    0.0000 o         1 TUC     -0.818300
@<TRIPOS>BOND
     1    1    2 ar  
     2    1   12 ar  
     3    1   15 1   
     4    2    3 ar  
     5    2   16 1   
     6    3    4 ar  
     7    3    6 ar  
     8    4    5 ar  
     9    4    9 ar  
    10    5   12 ar  
    11    5   17 1   
    12    6    7 ar  
    13    6   13 1   
    14    7    8 ar  
    15    7   18 1   
    16    8    9 ar  
    17    8   19 1   
    18    9   20 1   
    19   10   11 1   
    20   10   13 1   
    21   10   21 1   
    22   10   22 1   
    23   11   14 1   
    24   11   23 1   
@<TRIPOS>SUBSTRUCTURE
     1 TUC         1 TEMP              0 ****  ****    0 ROOT
