@<TRIPOS>MOLECULE
TUC
   23    23     1     0     0
SMALL
bcc


@<TRIPOS>ATOM
      1 C1          0.4280   -0.2020   -0.4610 c2        1 TUC     -0.031000
      2 C2          1.6620    0.0810   -0.0020 c2        1 TUC     -0.129000
      3 C3          2.1180    0.1020    1.3740 c2        1 TUC      0.098000
      4 C4          1.4240    0.6760    2.4120 c2        1 TUC     -0.242000
      5 C5         -1.6320   -0.8970    0.8810 c1        1 TUC      0.078000
      6 C6          3.4450   -0.4540    1.6310 c2        1 TUC      0.056000
      7 C7          4.0110   -0.3650    2.8620 c2        1 TUC     -0.201000
      8 C8          3.2910    0.2790    3.9800 c3        1 TUC     -0.182000
      9 C9          1.9380    0.7640    3.7240 c1        1 TUC     -0.128000
     10 C10         5.3250   -0.7430    0.1910 c3        1 TUC     -0.095000
     11 C11         5.3630    0.5660   -0.6210 c2        1 TUC      0.317000
     12 N1         -0.6720   -0.5710    0.2730 n2        1 TUC     -0.282000
     13 O1          4.0080   -1.1570    0.5850 os        1 TUC     -0.230000
     14 O3          4.3340    0.9400   -1.2530 o         1 TUC     -0.566500
     15 H1          2.4810    0.3150   -0.7370 ha        1 TUC      0.250000
     16 H2          0.2260   -0.1710   -1.5520 h4        1 TUC      0.146000
     17 H5          0.4270    1.1120    2.2320 ha        1 TUC      0.138000
     18 H7          3.2320   -0.4370    4.8520 hc        1 TUC      0.142500
     19 H8          5.0220   -0.7500    3.0540 ha        1 TUC      0.133000
     20 H9          3.8850    1.1710    4.3450 hc        1 TUC      0.142500
     21 H101        5.9910   -0.6690    1.0870 h1        1 TUC      0.077000
     22 H102        5.6570   -1.5900   -0.4650 h1        1 TUC      0.077000
     23 OXT         6.4660    1.1780   -0.6300 o         1 TUC     -0.566500
@<TRIPOS>BOND
     1    1    2 1   
     2    1   12 1   
     3    1   16 1   
     4    2    3 1   
     5    2   15 1   
     6    3    4 1   
     7    3    6 1   
     8    4    9 1   
     9    4   17 1   
    10    5   12 1   
    11    6    7 1   
    12    6   13 1   
    13    7    8 1   
    14    7   19 1   
    15    8    9 1   
    16    8   18 1   
    17    8   20 1   
    18   10   11 1   
    19   10   13 1   
    20   10   21 1   
    21   10   22 1   
    22   11   14 1   
    23   11   23 1   
@<TRIPOS>SUBSTRUCTURE
     1 TUC         1 TEMP              0 ****  ****    0 ROOT
