@<TRIPOS>MOLECULE
TUE
   38    40     1     0     0
SMALL
bcc


@<TRIPOS>ATOM
      1 N01         0.1930   -0.8600    0.1270 nb        1 TUE     -0.734000
      2 C02         1.5300   -0.7200    0.2150 ca        1 TUE      0.641200
      3 N02         2.3630   -1.4650   -0.6330 nv        1 TUE     -0.927500
      4 C03         2.1600    0.1260    1.2160 ca        1 TUE     -0.273300
      5 C04         1.3710    0.7830    2.1170 ca        1 TUE     -0.056000
      6 C05        -0.0440    0.6380    2.0650 ca        1 TUE     -0.179300
      7 C06        -0.9070    1.2940    2.9770 ca        1 TUE     -0.099000
      8 C07        -2.2670    1.1270    2.8970 ca        1 TUE     -0.120000
      9 C08        -2.8230    0.2950    1.8920 ca        1 TUE     -0.074300
     10 C09        -2.0140   -0.3500    0.9830 ca        1 TUE     -0.174300
     11 C10        -0.5900   -0.2020    1.0480 ca        1 TUE      0.439600
     12 C11        -4.3010    0.0800    1.8350 c3        1 TUE      0.170700
     13 O12        -4.9350    1.3040    2.2410 os        1 TUE     -0.317900
     14 N21        -8.4560    0.2290    1.8680 nb        1 TUE     -0.635000
     15 C22        -7.1100    0.1760    1.8830 ca        1 TUE      0.322200
     16 C23        -6.3120    1.2970    2.1960 ca        1 TUE      0.009800
     17 C24        -6.9350    2.5220    2.5070 ca        1 TUE     -0.099000
     18 C25        -8.3280    2.5720    2.4910 ca        1 TUE     -0.166600
     19 C26        -9.0440    1.3980    2.1630 ca        1 TUE      0.360200
     20 C27        -9.0700    3.8240    2.8450 c3        1 TUE      0.146100
     21 N28        -8.5750    5.0010    2.1700 n2        1 TUE     -0.591900
     22 C29        -9.2820    5.6150    1.3040 c2        1 TUE      0.433100
     23 HN02        1.9190   -1.9070   -1.4090 hn        1 TUE      0.404800
     24 HN0A        3.2180   -1.0100   -0.8590 hn        1 TUE      0.404800
     25 H03         3.2540    0.2160    1.2410 ha        1 TUE      0.143000
     26 H04         1.8120    1.4300    2.8910 ha        1 TUE      0.139000
     27 H06        -0.4650    1.9400    3.7510 ha        1 TUE      0.134000
     28 H07        -2.9460    1.6380    3.5960 ha        1 TUE      0.150000
     29 H09        -2.4470   -0.9890    0.1970 ha        1 TUE      0.149000
     30 H11        -4.6340   -0.1840    0.7950 h1        1 TUE      0.052700
     31 H11A       -4.5960   -0.7380    2.5480 h1        1 TUE      0.052700
     32 H24        -6.3270    3.4060    2.7490 ha        1 TUE      0.170000
     33 H26       -10.1490    1.3990    2.1380 h4        1 TUE      0.022100
     34 H27        -8.9240    4.0170    3.9500 h1        1 TUE      0.053700
     35 H27A      -10.1750    3.6510    2.6770 h1        1 TUE      0.053700
     36 H29       -10.2980    5.3400    0.9600 h4        1 TUE     -0.015700
     37 H29A       -8.8510    6.5220    0.8410 h4        1 TUE     -0.015700
     38 H22        -6.6700   -0.8040    1.6340 h4        1 TUE      0.026100
@<TRIPOS>BOND
     1    1    2 ar  
     2    1   11 ar  
     3    2    3 1   
     4    2    4 ar  
     5    3   23 1   
     6    3   24 1   
     7    4    5 ar  
     8    4   25 1   
     9    5    6 ar  
    10    5   26 1   
    11    6    7 ar  
    12    6   11 ar  
    13    7    8 ar  
    14    7   27 1   
    15    8    9 ar  
    16    8   28 1   
    17    9   10 ar  
    18    9   12 1   
    19   10   11 ar  
    20   10   29 1   
    21   12   13 1   
    22   12   30 1   
    23   12   31 1   
    24   13   16 1   
    25   14   15 ar  
    26   14   19 ar  
    27   15   16 ar  
    28   15   38 1   
    29   16   17 ar  
    30   17   18 ar  
    31   17   32 1   
    32   18   19 ar  
    33   18   20 1   
    34   19   33 1   
    35   20   21 1   
    36   20   34 1   
    37   20   35 1   
    38   21   22 2   
    39   22   36 1   
    40   22   37 1   
@<TRIPOS>SUBSTRUCTURE
     1 TUE         1 TEMP              0 ****  ****    0 ROOT
