@<TRIPOS>MOLECULE
TUE
   38    40     1     0     0
SMALL
bcc


@<TRIPOS>ATOM
      1 N01         0.1940   -0.8410    0.1070 nb        1 TUE     -0.734000
      2 C02         1.5310   -0.7030    0.1990 ca        1 TUE      0.641200
      3 N02         2.3650   -1.4370   -0.6580 nh        1 TUE     -0.927500
      4 C03         2.1600    0.1290    1.2120 ca        1 TUE     -0.273300
      5 C04         1.3700    0.7740    2.1210 ca        1 TUE     -0.056000
      6 C05        -0.0460    0.6300    2.0650 ca        1 TUE     -0.179300
      7 C06        -0.9090    1.2750    2.9840 ca        1 TUE     -0.099000
      8 C07        -2.2690    1.1090    2.8990 ca        1 TUE     -0.120000
      9 C08        -2.8240    0.2920    1.8820 ca        1 TUE     -0.074300
     10 C09        -2.0140   -0.3410    0.9660 ca        1 TUE     -0.174300
     11 C10        -0.5900   -0.1950    1.0350 ca        1 TUE      0.439600
     12 C11        -4.3020    0.0790    1.8190 c3        1 TUE      0.170700
     13 O12        -4.9360    1.2980    2.2400 os        1 TUE     -0.317900
     14 N21        -8.4570    0.2300    1.8440 nb        1 TUE     -0.635000
     15 C22        -7.1120    0.1760    1.8620 ca        1 TUE      0.322200
     16 C23        -6.3130    1.2920    2.1920 ca        1 TUE      0.009800
     17 C24        -6.9350    2.5140    2.5180 ca        1 TUE     -0.099000
     18 C25        -8.3280    2.5660    2.4990 ca        1 TUE     -0.166600
     19 C26        -9.0450    1.3970    2.1540 ca        1 TUE      0.360200
     20 C27        -9.0700    3.8130    2.8680 c3        1 TUE      0.146100
     21 N28        -8.5730    4.9980    2.2100 n2        1 TUE     -0.591900
     22 C29        -9.2760    5.6240    1.3510 c2        1 TUE      0.433100
     23 HN02        1.9230   -1.8670   -1.4400 hn        1 TUE      0.404800
     24 HN0A        3.2210   -0.9790   -0.8760 hn        1 TUE      0.404800
     25 H03         3.2540    0.2180    1.2410 ha        1 TUE      0.143000
     26 H04         1.8090    1.4100    2.9050 ha        1 TUE      0.139000
     27 H06        -0.4680    1.9100    3.7670 ha        1 TUE      0.134000
     28 H07        -2.9490    1.6110    3.6040 ha        1 TUE      0.150000
     29 H09        -2.4460   -0.9690    0.1700 ha        1 TUE      0.149000
     30 H11        -4.6330   -0.1710    0.7760 h1        1 TUE      0.052700
     31 H11A       -4.5990   -0.7490    2.5210 h1        1 TUE      0.052700
     32 H24        -6.3270    3.3940    2.7730 ha        1 TUE      0.170000
     33 H26       -10.1490    1.3990    2.1260 h4        1 TUE      0.022100
     34 H27       -10.1750    3.6430    2.6950 h1        1 TUE      0.053700
     35 H27A       -8.9270    3.9910    3.9760 h1        1 TUE      0.053700
     36 H29       -10.2920    5.3550    1.0000 h4        1 TUE     -0.015700
     37 H29A       -8.8440    6.5370    0.9010 h4        1 TUE     -0.015700
     38 H22        -6.6710   -0.8010    1.6010 h4        1 TUE      0.026100
@<TRIPOS>BOND
     1    1    2 ar  
     2    1   11 ar  
     3    2    3 1   
     4    2    4 ar  
     5    3   23 1   
     6    3   24 1   
     7    4    5 ar  
     8    4   25 1   
     9    5    6 ar  
    10    5   26 1   
    11    6    7 ar  
    12    6   11 ar  
    13    7    8 ar  
    14    7   27 1   
    15    8    9 ar  
    16    8   28 1   
    17    9   10 ar  
    18    9   12 1   
    19   10   11 ar  
    20   10   29 1   
    21   12   13 1   
    22   12   30 1   
    23   12   31 1   
    24   13   16 1   
    25   14   15 ar  
    26   14   19 ar  
    27   15   16 ar  
    28   15   38 1   
    29   16   17 ar  
    30   17   18 ar  
    31   17   32 1   
    32   18   19 ar  
    33   18   20 1   
    34   19   33 1   
    35   20   21 1   
    36   20   34 1   
    37   20   35 1   
    38   21   22 2   
    39   22   36 1   
    40   22   37 1   
@<TRIPOS>SUBSTRUCTURE
     1 TUE         1 TEMP              0 ****  ****    0 ROOT
