@<TRIPOS>MOLECULE
TUH
   47    49     1     0     0
SMALL
bcc


@<TRIPOS>ATOM
      1 C4          0.1290    0.0500    0.0600 ca        1 TUH     -0.109000
      2 C5          1.4900    0.3460    0.2780 ca        1 TUH      0.153000
      3 C6          2.0090    0.3690    1.5780 ca        1 TUH     -0.256000
      4 C7         -0.4450    0.0690   -1.2850 c2        1 TUH      0.058000
      5 C13         1.3120   -2.5280   -3.5020 c3        1 TUH     -0.186000
      6 C15         2.0330   -3.7720   -3.3990 c1        1 TUH     -0.109000
      7 C17         1.3950   -4.0130   -1.0500 c2        1 TUH      0.040000
      8 C20         1.6720   -5.9580    0.4920 c1        1 TUH      0.229000
      9 C21         3.4920   -6.1310   -3.2880 c3        1 TUH     -0.099000
     10 C24        -2.3280   -1.2950    3.2600 c3        1 TUH     -0.211500
     11 C1          1.1580    0.1020    2.6590 ca        1 TUH      0.143000
     12 C2         -0.2090   -0.1990    2.4650 ca        1 TUH     -0.186000
     13 C3         -0.6980   -0.2050    1.1580 ca        1 TUH     -0.025000
     14 N8         -0.0410   -0.7950   -2.3550 n         1 TUH     -0.224000
     15 C9         -0.8530   -0.4070   -3.4820 c2        1 TUH      0.328000
     16 N10        -1.5880    0.7470   -3.0220 ns        1 TUH     -0.242000
     17 N11        -1.3830    0.9430   -1.6980 n2        1 TUH     -0.071000
     18 C12         0.6240   -2.0260   -2.2680 c2        1 TUH      0.057000
     19 C14         0.6760   -2.7710   -1.1210 c2        1 TUH     -0.189000
     20 C16         2.0650   -4.5060   -2.1710 c2        1 TUH     -0.058000
     21 C18         1.3820   -4.6970    0.2240 c2        1 TUH     -0.451000
     22 N19         2.6970   -5.7600   -2.1480 n7        1 TUH     -0.256000
     23 C23        -1.5160    0.7990    4.3230 c3        1 TUH     -0.211500
     24 O25         1.7650    0.1480    3.8890 oh        1 TUH     -0.248000
     25 O26         2.2670    0.6130   -0.8180 oh        1 TUH     -0.232000
     26 O27        -0.8370   -0.8770   -4.6280 o         1 TUH     -0.326000
     27 H6          3.0670    0.6000    1.7640 ha        1 TUH      0.160000
     28 H13         2.0380   -1.7460   -3.8850 hc        1 TUH      0.191500
     29 H15         0.5570   -2.6570   -4.3450 hc        1 TUH      0.191500
     30 H20         3.1610   -5.9500   -1.2770 hn        1 TUH      0.177000
     31 H21         4.4720   -5.5830   -3.3340 h1        1 TUH      0.083000
     32 H21A        2.9250   -5.9140   -4.2310 h1        1 TUH      0.083000
     33 H21B        3.6960   -7.2330   -3.2160 h1        1 TUH      0.083000
     34 H22        -2.0460   -2.1840    2.6460 hc        1 TUH      0.080667
     35 H24        -0.5120   -1.1160    4.3680 hc        1 TUH      0.082000
     36 H24A       -3.0560   -0.6750    2.6830 hc        1 TUH      0.080667
     37 H24B       -2.8380   -1.6510    4.1890 hc        1 TUH      0.080667
     38 H3         -1.7660   -0.4110    0.9740 ha        1 TUH      0.152000
     39 HN10       -2.5130    0.9140   -3.3630 hn        1 TUH      0.262000
     40 H14         0.1720   -2.4340   -0.2000 ha        1 TUH      0.142000
     41 H18         1.0690   -4.0800    1.0980 ha        1 TUH      0.194000
     42 H23        -2.1320    1.4280    3.6360 hc        1 TUH      0.080667
     43 H23A       -2.1220    0.5660    5.2310 hc        1 TUH      0.080667
     44 H23B       -0.6200    1.3910    4.6300 hc        1 TUH      0.080667
     45 HO25        1.0890    0.0660    4.5790 ho        1 TUH      0.230000
     46 HO26        3.1640    0.8160   -0.5110 ho        1 TUH      0.229000
     47 C22        -1.0990   -0.4890    3.6320 c3        1 TUH     -0.064000
@<TRIPOS>BOND
     1    1    2 1   
     2    1    4 1   
     3    1   13 1   
     4    2    3 1   
     5    2   25 1   
     6    3   11 1   
     7    3   27 1   
     8    4   14 1   
     9    4   17 1   
    10    5    6 1   
    11    5   18 1   
    12    5   28 1   
    13    5   29 1   
    14    6   20 1   
    15    7   19 1   
    16    7   20 1   
    17    7   21 1   
    18    8   21 1   
    19    9   22 1   
    20    9   31 1   
    21    9   32 1   
    22    9   33 1   
    23   10   34 1   
    24   10   36 1   
    25   10   37 1   
    26   10   47 1   
    27   11   12 1   
    28   11   24 1   
    29   12   13 1   
    30   12   47 1   
    31   13   38 1   
    32   14   15 1   
    33   14   18 1   
    34   15   16 1   
    35   15   26 1   
    36   16   17 1   
    37   16   39 1   
    38   18   19 1   
    39   19   40 1   
    40   20   22 1   
    41   21   41 1   
    42   22   30 1   
    43   23   42 1   
    44   23   43 1   
    45   23   44 1   
    46   23   47 1   
    47   24   45 1   
    48   25   46 1   
    49   35   47 1   
@<TRIPOS>SUBSTRUCTURE
     1 TUH         1 TEMP              0 ****  ****    0 ROOT
