@<TRIPOS>MOLECULE
TUH
   47    50     1     0     0
SMALL
bcc


@<TRIPOS>ATOM
      1 C4         -1.5460    0.7990    0.6720 ca        1 TUH     -0.238900
      2 C5         -1.5550    0.2410    1.9640 ca        1 TUH      0.206100
      3 C6         -2.3360   -0.8920    2.2400 ca        1 TUH     -0.200000
      4 C7         -0.7690    1.9960    0.3510 cc        1 TUH      0.396500
      5 C13         2.8850    1.1310    0.7290 ca        1 TUH     -0.097000
      6 C15         3.8160    0.1180    0.5910 ca        1 TUH     -0.131000
      7 C17         2.0980   -1.1940   -0.6120 ca        1 TUH     -0.087800
      8 C20         3.2800   -3.0950   -1.0550 cc        1 TUH     -0.101100
      9 C21         5.5080   -2.4800   -0.0610 c3        1 TUH      0.030600
     10 C24        -3.4640   -1.1900   -2.5620 c3        1 TUH     -0.092600
     11 C1         -3.1110   -1.4510    1.2180 ca        1 TUH      0.180100
     12 C2         -3.1230   -0.9040   -0.0880 ca        1 TUH     -0.192300
     13 C3         -2.3420    0.2250   -0.3280 ca        1 TUH     -0.026000
     14 N8          0.6630    2.0750    0.4280 n         1 TUH     -0.284500
     15 C9          0.9800    3.4240    0.0110 c         1 TUH      0.724500
     16 N10        -0.3060    4.0820   -0.1210 n         1 TUH     -0.266900
     17 N11        -1.3060    3.1810    0.0040 nd        1 TUH     -0.485300
     18 C12         1.5620    1.0010    0.2140 ca        1 TUH      0.001600
     19 C14         1.1780   -0.1590   -0.4710 ca        1 TUH     -0.091000
     20 C16         3.4330   -1.0570   -0.0740 ca        1 TUH     -0.041200
     21 C18         2.0350   -2.5000   -1.2290 cd        1 TUH     -0.185200
     22 N19         4.1330   -2.2380   -0.3440 na        1 TUH     -0.076400
     23 C23        -5.4110   -1.1200   -1.0210 c3        1 TUH     -0.092600
     24 O25        -3.8380   -2.5550    1.5890 oh        1 TUH     -0.494100
     25 O26        -0.8460    0.7340    3.0270 oh        1 TUH     -0.484100
     26 O27         2.0920    3.9600   -0.0520 o         1 TUH     -0.586500
     27 H6         -2.3410   -1.3290    3.2480 ha        1 TUH      0.173000
     28 H13         3.1780    2.0700    1.2290 ha        1 TUH      0.159000
     29 H15         4.8320    0.2360    0.9930 ha        1 TUH      0.139000
     30 H20         3.6310   -4.0780   -1.3750 h4        1 TUH      0.166000
     31 H21         6.1610   -2.0540   -0.8710 h1        1 TUH      0.050700
     32 H21A        5.7830   -1.9980    0.9150 h1        1 TUH      0.050700
     33 H21B        5.6890   -3.5860    0.0070 h1        1 TUH      0.050700
     34 H22        -3.8800   -2.6470   -1.0590 hc        1 TUH      0.042700
     35 H24        -3.6750   -0.1240   -2.8190 hc        1 TUH      0.040033
     36 H24A       -2.3650   -1.3700   -2.6470 hc        1 TUH      0.040033
     37 H24B       -3.9890   -1.8360   -3.3080 hc        1 TUH      0.040033
     38 H3         -2.3420    0.6890   -1.3280 ha        1 TUH      0.146000
     39 HN10       -0.4290    4.7860   -0.8220 hn        1 TUH      0.342500
     40 H14         0.1620   -0.2740   -0.8830 ha        1 TUH      0.147000
     41 H18         1.1710   -2.9280   -1.7260 ha        1 TUH      0.158000
     42 H23        -5.5270   -0.0180   -1.1620 hc        1 TUH      0.040033
     43 H23A       -6.0310   -1.6440   -1.7870 hc        1 TUH      0.040033
     44 H23B       -5.7940   -1.3840   -0.0060 hc        1 TUH      0.040033
     45 HO25       -4.4160   -2.8130    0.8560 ho        1 TUH      0.427000
     46 HO26       -0.3770    1.5360    2.7530 ho        1 TUH      0.439000
     47 C22        -3.9540   -1.5230   -1.1670 c3        1 TUH     -0.015400
@<TRIPOS>BOND
     1    1    2 ar  
     2    1    4 1   
     3    1   13 ar  
     4    2    3 ar  
     5    2   25 1   
     6    3   11 ar  
     7    3   27 1   
     8    4   14 1   
     9    4   17 2   
    10    5    6 ar  
    11    5   18 ar  
    12    5   28 1   
    13    6   20 ar  
    14    6   29 1   
    15    7   19 ar  
    16    7   20 ar  
    17    7   21 1   
    18    8   21 2   
    19    8   22 1   
    20    8   30 1   
    21    9   22 1   
    22    9   31 1   
    23    9   32 1   
    24    9   33 1   
    25   10   35 1   
    26   10   36 1   
    27   10   37 1   
    28   10   47 1   
    29   11   12 ar  
    30   11   24 1   
    31   12   13 ar  
    32   12   47 1   
    33   13   38 1   
    34   14   15 1   
    35   14   18 1   
    36   15   16 1   
    37   15   26 2   
    38   16   17 1   
    39   16   39 1   
    40   18   19 ar  
    41   19   40 1   
    42   20   22 1   
    43   21   41 1   
    44   23   42 1   
    45   23   43 1   
    46   23   44 1   
    47   23   47 1   
    48   24   45 1   
    49   25   46 1   
    50   34   47 1   
@<TRIPOS>SUBSTRUCTURE
     1 TUH         1 TEMP              0 ****  ****    0 ROOT
