@<TRIPOS>MOLECULE
TUH
   47    48     1     0     0
SMALL
bcc


@<TRIPOS>ATOM
      1 C4          0.1860    0.2550   -0.1830 ca        1 TUH     -0.111000
      2 C5          1.5310    0.2490    0.2460 ca        1 TUH      0.159000
      3 C6          1.8450    0.0970    1.6010 ca        1 TUH     -0.257000
      4 C7         -0.1620    0.4550   -1.5880 c2        1 TUH      0.059000
      5 C13         1.4740   -2.2880   -3.7120 c3        1 TUH     -0.185000
      6 C15         1.9490   -3.6440   -3.5970 c1        1 TUH     -0.109000
      7 C17         0.8830   -3.8980   -1.4120 c2        1 TUH      0.041000
      8 C20         1.0600   -5.7360    0.2680 c1        1 TUH      0.229000
      9 C21         3.0080   -6.2000   -3.4300 c3        1 TUH     -0.098000
     10 C24        -0.4470   -1.9620    6.1510 c3        1 TUH     -0.277000
     11 C1          0.8070   -0.0430    2.5330 ca        1 TUH      0.155000
     12 C2         -0.5470   -0.0360    2.1270 ca        1 TUH     -0.166000
     13 C3         -0.8300    0.1250    0.7670 ca        1 TUH     -0.019000
     14 N8          0.2420   -0.4120   -2.6570 n         1 TUH     -0.225000
     15 C9         -0.3070    0.1780   -3.8520 c2        1 TUH      0.328000
     16 N10        -0.8880    1.4220   -3.4100 n         1 TUH     -0.243000
     17 N11        -0.8570    1.5080   -2.0590 n2        1 TUH     -0.072000
     18 C12         0.6640   -1.7460   -2.5720 c2        1 TUH      0.057000
     19 C14         0.3790   -2.5550   -1.5060 c2        1 TUH     -0.189000
     20 C16         1.6940   -4.4190   -2.4210 c2        1 TUH     -0.059000
     21 C18         0.4990   -4.6530   -0.2400 c2        1 TUH     -0.450000
     22 N19         2.3180   -5.6700   -2.2840 n3        1 TUH     -0.255000
     23 C23        -2.8040    0.4140    3.0150 c2        1 TUH     -0.193000
     24 O25         1.2080   -0.1830    3.8360 oh        1 TUH     -0.247000
     25 O26         2.5010    0.4070   -0.7080 oh        1 TUH     -0.232000
     26 O27        -0.1990   -0.2270   -5.0170 o         1 TUH     -0.326000
     27 H6          2.8880    0.0910    1.9470 ha        1 TUH      0.162000
     28 H13         2.3840   -1.6340   -3.8870 hc        1 TUH      0.191000
     29 H15         0.8780   -2.2190   -4.6780 hc        1 TUH      0.191000
     30 H20         1.7290   -6.3540   -1.8430 hn        1 TUH      0.176000
     31 H21         2.3090   -6.5510   -4.2380 h1        1 TUH      0.082667
     32 H21A        3.6290   -7.0670   -3.0830 h1        1 TUH      0.082667
     33 H21B        3.6750   -5.4110   -3.8670 h1        1 TUH      0.082667
     34 H22        -0.2330   -2.4040    7.1490 hc        1 TUH      0.070000
     35 H24        -1.4180   -0.9160    3.9130 ha        1 TUH      0.123000
     36 H24A       -1.3160   -2.4840    5.6950 hc        1 TUH      0.070000
     37 H24B       -0.6820   -0.8810    6.2710 hc        1 TUH      0.070000
     38 H3         -1.8820    0.1470    0.4360 ha        1 TUH      0.150000
     39 HN10       -1.7060    1.7780   -3.8630 hn        1 TUH      0.262000
     40 H14        -0.2270   -2.1900   -0.6600 ha        1 TUH      0.142000
     41 H18        -0.3780   -4.2550    0.3210 ha        1 TUH      0.194000
     42 H23         0.4450   -2.0820    5.4970 hc        1 TUH      0.070000
     43 H23A       -3.5970    0.2440    3.7560 ha        1 TUH      0.120500
     44 H23B       -3.0550    1.1300    2.2210 ha        1 TUH      0.120500
     45 HO25        0.4260   -0.1690    4.4100 ho        1 TUH      0.234000
     46 HO26        3.3660    0.3770   -0.2700 ho        1 TUH      0.231000
     47 C22        -1.6250   -0.2040    3.0900 c2        1 TUH     -0.143000
@<TRIPOS>BOND
     1    1    2 1   
     2    1    4 1   
     3    1   13 1   
     4    2    3 1   
     5    2   25 1   
     6    3   11 1   
     7    3   27 1   
     8    4   14 1   
     9    4   17 1   
    10    5    6 1   
    11    5   18 1   
    12    5   28 1   
    13    5   29 1   
    14    6   20 1   
    15    7   19 1   
    16    7   20 1   
    17    7   21 1   
    18    8   21 1   
    19    9   22 1   
    20    9   31 1   
    21    9   32 1   
    22    9   33 1   
    23   10   34 1   
    24   10   36 1   
    25   10   37 1   
    26   10   42 1   
    27   11   12 1   
    28   11   24 1   
    29   12   13 1   
    30   12   47 1   
    31   13   38 1   
    32   14   15 1   
    33   14   18 1   
    34   15   16 1   
    35   15   26 1   
    36   16   17 1   
    37   16   39 1   
    38   18   19 1   
    39   19   40 1   
    40   20   22 1   
    41   21   41 1   
    42   22   30 1   
    43   23   43 1   
    44   23   44 1   
    45   23   47 1   
    46   24   45 1   
    47   25   46 1   
    48   35   47 1   
@<TRIPOS>SUBSTRUCTURE
     1 TUH         1 TEMP              0 ****  ****    0 ROOT
