@<TRIPOS>MOLECULE
TUH
   47    49     1     0     0
SMALL
bcc


@<TRIPOS>ATOM
      1 C4          0.1280    0.0490    0.0610 ca        1 TUH     -0.109000
      2 C5          1.4900    0.3460    0.2720 ca        1 TUH      0.153000
      3 C6          2.0160    0.3700    1.5680 ca        1 TUH     -0.256000
      4 C7         -0.4550    0.0680   -1.2800 c2        1 TUH      0.058000
      5 C13         1.2920   -2.5290   -3.5070 c3        1 TUH     -0.185000
      6 C15         2.0150   -3.7720   -3.4080 c1        1 TUH     -0.109000
      7 C17         1.3910   -4.0130   -1.0550 c2        1 TUH      0.040000
      8 C20         1.6800   -5.9570    0.4870 c1        1 TUH      0.230000
      9 C21         3.4770   -6.1290   -3.3040 c3        1 TUH     -0.099000
     10 C24        -2.3100   -1.2960    3.2760 c3        1 TUH     -0.211500
     11 C1          1.1720    0.1030    2.6550 ca        1 TUH      0.143000
     12 C2         -0.1960   -0.1990    2.4690 ca        1 TUH     -0.186000
     13 C3         -0.6930   -0.2060    1.1650 ca        1 TUH     -0.025000
     14 N8         -0.0560   -0.7960   -2.3520 n         1 TUH     -0.224000
     15 C9         -0.8750   -0.4100   -3.4740 c2        1 TUH      0.328000
     16 N10        -1.6080    0.7440   -3.0100 n         1 TUH     -0.242000
     17 N11        -1.3950    0.9410   -1.6880 n2        1 TUH     -0.071000
     18 C12         0.6110   -2.0270   -2.2690 c2        1 TUH      0.057000
     19 C14         0.6710   -2.7710   -1.1220 c2        1 TUH     -0.189000
     20 C16         2.0550   -4.5050   -2.1790 c2        1 TUH     -0.058000
     21 C18         1.3870   -4.6960    0.2200 c2        1 TUH     -0.451000
     22 N19         2.6890   -5.7590   -2.1600 n3        1 TUH     -0.256000
     23 C23        -1.4920    0.7990    4.3340 c3        1 TUH     -0.211500
     24 O25         1.7870    0.1500    3.8810 oh        1 TUH     -0.248000
     25 O26         2.2600    0.6130   -0.8300 oh        1 TUH     -0.232000
     26 O27        -0.8650   -0.8800   -4.6200 o         1 TUH     -0.326000
     27 H6          3.0750    0.6020    1.7480 ha        1 TUH      0.160000
     28 H13         2.0150   -1.7460   -3.8940 hc        1 TUH      0.191500
     29 H15         0.5320   -2.6580   -4.3450 hc        1 TUH      0.191500
     30 H20         3.1590   -5.9470   -1.2920 hn        1 TUH      0.177000
     31 H21         4.4560   -5.5800   -3.3570 h1        1 TUH      0.083000
     32 H21A        2.9040   -5.9130   -4.2440 h1        1 TUH      0.083000
     33 H21B        3.6830   -7.2310   -3.2330 h1        1 TUH      0.083000
     34 H22        -2.0310   -2.1840    2.6620 hc        1 TUH      0.080667
     35 H24        -0.4870   -1.1150    4.3740 hc        1 TUH      0.082000
     36 H24A       -3.0410   -0.6760    2.7030 hc        1 TUH      0.080667
     37 H24B       -2.8130   -1.6510    4.2080 hc        1 TUH      0.080667
     38 H3         -1.7610   -0.4130    0.9870 ha        1 TUH      0.152000
     39 HN10       -2.5350    0.9110   -3.3460 hn        1 TUH      0.262000
     40 H14         0.1720   -2.4340   -0.1970 ha        1 TUH      0.142000
     41 H18         1.0770   -4.0790    1.0950 ha        1 TUH      0.194000
     42 H23        -2.1130    1.4270    3.6510 hc        1 TUH      0.080667
     43 H23A       -2.0920    0.5660    5.2460 hc        1 TUH      0.080667
     44 H23B       -0.5950    1.3910    4.6360 hc        1 TUH      0.080667
     45 HO25        1.1150    0.0680    4.5750 ho        1 TUH      0.230000
     46 HO26        3.1590    0.8170   -0.5280 ho        1 TUH      0.229000
     47 C22        -1.0790   -0.4890    3.6410 c3        1 TUH     -0.064000
@<TRIPOS>BOND
     1    1    2 1   
     2    1    4 1   
     3    1   13 1   
     4    2    3 1   
     5    2   25 1   
     6    3   11 1   
     7    3   27 1   
     8    4   14 1   
     9    4   17 1   
    10    5    6 1   
    11    5   18 1   
    12    5   28 1   
    13    5   29 1   
    14    6   20 1   
    15    7   19 1   
    16    7   20 1   
    17    7   21 1   
    18    8   21 1   
    19    9   22 1   
    20    9   31 1   
    21    9   32 1   
    22    9   33 1   
    23   10   34 1   
    24   10   36 1   
    25   10   37 1   
    26   10   47 1   
    27   11   12 1   
    28   11   24 1   
    29   12   13 1   
    30   12   47 1   
    31   13   38 1   
    32   14   15 1   
    33   14   18 1   
    34   15   16 1   
    35   15   26 1   
    36   16   17 1   
    37   16   39 1   
    38   18   19 1   
    39   19   40 1   
    40   20   22 1   
    41   21   41 1   
    42   22   30 1   
    43   23   42 1   
    44   23   43 1   
    45   23   44 1   
    46   23   47 1   
    47   24   45 1   
    48   25   46 1   
    49   35   47 1   
@<TRIPOS>SUBSTRUCTURE
     1 TUH         1 TEMP              0 ****  ****    0 ROOT
