@<TRIPOS>MOLECULE
TUI
   50    43     1     0     0
SMALL
bcc


@<TRIPOS>ATOM
      1 O21        -2.3670    0.3960    1.9720 o         1 TUI     -0.409000
      2 C19        -1.3190   -0.2080    1.7840 c1        1 TUI      0.380000
      3 N20        -0.8010   -1.0530    2.7890 n3        1 TUI     -0.290000
      4 C22        -1.5200   -1.2110    4.0660 c2        1 TUI     -0.159000
      5 S23        -1.2710   -2.3100    5.1060 ss        1 TUI      0.695000
      6 C24        -2.2730   -2.0990    6.2590 c1        1 TUI     -0.723000
      7 S27        -2.5140   -3.1910    7.6370 s         1 TUI      0.451000
      8 C28        -1.5430   -2.6630    8.9700 c2        1 TUI     -0.196000
      9 N29        -0.1940   -2.8020    8.9250 n2        1 TUI     -0.139000
     10 C30         0.5520   -2.4780    9.9970 c1        1 TUI     -0.055000
     11 C31        -0.0620   -2.0010   11.1510 c1        1 TUI     -0.133500
     12 C32        -1.3960   -1.8640   11.1940 c1        1 TUI     -0.133500
     13 C33        -2.1480   -2.1910   10.1100 c1        1 TUI     -0.181000
     14 C25        -3.0790   -0.9450    5.9390 c1        1 TUI     -0.021000
     15 N26        -2.6010   -0.3810    4.5460 n2        1 TUI     -0.184000
     16 N18        -0.6110   -0.0620    0.5210 n2        1 TUI     -0.324000
     17 C17        -1.3530    0.1550   -0.6970 c3        1 TUI      0.039000
     18 C15        -0.3890    0.0530   -1.9260 c2        1 TUI     -0.137000
     19 N16        -0.2820    0.9710   -2.9460 n2        1 TUI     -0.125000
     20 N14         0.4630   -0.9680   -2.1890 n2        1 TUI     -0.183000
     21 C13         1.0960   -0.6950   -3.3580 c1        1 TUI     -0.166000
     22 C12         0.6280    0.5130   -3.8240 c2        1 TUI     -0.040000
     23 C3          0.9530    1.0970   -5.0390 c1        1 TUI     -0.089000
     24 C2          1.9800    2.0350   -5.1040 c1        1 TUI     -0.133500
     25 C1          2.2500    2.7010   -6.3110 c1        1 TUI     -0.133500
     26 C4          0.1810    0.8150   -6.1890 c1        1 TUI     -0.082000
     27 C5          0.4480    1.4770   -7.3890 c1        1 TUI     -0.228000
     28 C6          1.4820    2.4210   -7.4540 c1        1 TUI      0.129000
     29 O7          1.7380    3.1010   -8.6560 os        1 TUI     -0.166000
     30 C8          2.6240    2.4280   -9.5090 c3        1 TUI     -0.113000
     31 C9          2.8300    3.2520  -10.7930 c2        1 TUI      0.346000
     32 O11         2.2210    2.9240  -11.8600 o         1 TUI     -0.554000
     33 O10         3.6790    4.1600  -10.8180 o         1 TUI     -0.554000
     34 H81         2.2560    1.5630   -9.7370 h1        1 TUI      0.061000
     35 H82         3.4740    2.3080   -9.0610 h1        1 TUI      0.061000
     36 H5         -0.0870    1.2820   -8.1850 ha        1 TUI      0.143000
     37 H4         -0.5280    0.1680   -6.1440 ha        1 TUI      0.112000
     38 H2          2.5170    2.2300   -4.3060 ha        1 TUI      0.139500
     39 H1          2.8810    3.4300   -6.3240 ha        1 TUI      0.139500
     40 H13         1.7950   -1.2430   -3.7760 DU        1 TUI      0.210333
     41 H14         0.5870   -1.7050   -1.6730 DU        1 TUI      0.210333
     42 H171       -2.0400   -0.5110   -0.7740 h1        1 TUI      0.128500
     43 H172       -1.7640    1.0510   -0.6750 h1        1 TUI      0.128500
     44 H18         0.3090   -0.1560    0.4930 hn        1 TUI      0.222000
     45 H20        -0.0630   -1.5750    2.6120 hn        1 TUI      0.258000
     46 H25        -3.8050   -0.5730    6.4970 DU        1 TUI      0.210333
     47 H33        -3.1000   -1.9240   10.3130 ha        1 TUI      0.146000
     48 H32        -1.8250   -1.5150   11.9960 ha        1 TUI      0.139500
     49 H31         0.4780   -1.7240   11.9080 ha        1 TUI      0.139500
     50 H30         1.5140   -2.4860    9.9330 ha        1 TUI      0.161000
@<TRIPOS>BOND
     1    1    2 1   
     2    2    3 1   
     3    3    4 1   
     4    3   45 1   
     5    4    5 1   
     6    4   15 1   
     7    5    6 1   
     8    6   14 1   
     9    7    8 1   
    10    8    9 1   
    11    8   13 1   
    12    9   10 1   
    13   10   50 1   
    14   11   12 1   
    15   11   49 1   
    16   12   48 1   
    17   13   47 1   
    18   14   15 1   
    19   16   17 1   
    20   16   44 1   
    21   17   18 1   
    22   17   42 1   
    23   17   43 1   
    24   18   19 1   
    25   18   20 1   
    26   19   22 1   
    27   20   21 1   
    28   21   22 1   
    29   22   23 1   
    30   23   26 1   
    31   24   25 1   
    32   24   38 1   
    33   25   39 1   
    34   26   37 1   
    35   27   28 1   
    36   27   36 1   
    37   28   29 1   
    38   29   30 1   
    39   30   31 1   
    40   30   34 1   
    41   30   35 1   
    42   31   32 1   
    43   31   33 1   
@<TRIPOS>SUBSTRUCTURE
     1 TUI         1 TEMP              0 ****  ****    0 ROOT
