@<TRIPOS>MOLECULE
TUI
   50    53     1     0     0
SMALL
bcc


@<TRIPOS>ATOM
      1 O21        -1.8070   -2.6500   -0.1600 o         1 TUI     -0.648100
      2 C19        -1.5060   -2.5040   -1.3740 c         1 TUI      0.753100
      3 N20        -2.3930   -1.8160   -2.2250 n         1 TUI     -0.523400
      4 C22        -3.6430   -1.4020   -1.7750 cc        1 TUI      0.498300
      5 S23        -4.1630   -1.4980   -0.1470 ss        1 TUI      0.110700
      6 C24        -5.6430   -0.8150   -0.5320 cc        1 TUI     -0.291500
      7 S27        -6.8740   -0.6300    0.5540 ss        1 TUI     -0.103200
      8 C28        -6.8420    0.9710    1.1390 ca        1 TUI      0.459600
      9 N29        -5.9410    1.8910    0.7250 nb        1 TUI     -0.665000
     10 C30        -6.0140    3.1220    1.2630 ca        1 TUI      0.410200
     11 C31        -6.9700    3.4990    2.2230 ca        1 TUI     -0.262300
     12 C32        -7.8960    2.5420    2.6430 ca        1 TUI     -0.081000
     13 C33        -7.8400    1.2610    2.1000 ca        1 TUI     -0.246300
     14 C25        -5.6820   -0.5250   -1.9040 cd        1 TUI      0.444200
     15 N26        -4.5710   -0.8520   -2.6250 nd        1 TUI     -0.710000
     16 N18        -0.3390   -3.0620   -1.9260 n         1 TUI     -0.514900
     17 C17         0.6510   -3.5890   -1.0140 c3        1 TUI      0.060700
     18 C15         1.4280   -2.5410   -0.2740 cc        1 TUI      0.309800
     19 N16         2.7090   -2.1630   -0.5210 nd        1 TUI     -0.651000
     20 N14         0.8790   -1.8130    0.7930 na        1 TUI     -0.296900
     21 C13         1.8640   -0.9420    1.2340 cc        1 TUI     -0.255600
     22 C12         3.0040   -1.1660    0.4160 cd        1 TUI      0.396800
     23 C3          4.2740   -0.4750    0.5180 ca        1 TUI     -0.196500
     24 C2          4.5690    0.2800    1.6680 ca        1 TUI     -0.074500
     25 C1          5.7670    0.9620    1.7860 ca        1 TUI     -0.208000
     26 C4          5.2220   -0.5340   -0.5120 ca        1 TUI     -0.074500
     27 C5          6.4310    0.1450   -0.4110 ca        1 TUI     -0.208000
     28 C6          6.7150    0.9030    0.7380 ca        1 TUI      0.174100
     29 O7          7.8610    1.6140    0.9470 os        1 TUI     -0.283900
     30 C8          8.8360    1.5770   -0.1030 c3        1 TUI     -0.011600
     31 C9         10.0310    2.4690    0.3540 c         1 TUI      0.926600
     32 O11         9.9850    3.6870    0.0430 o         1 TUI     -0.819300
     33 O10        10.9800    1.8900    0.9420 o         1 TUI     -0.819300
     34 H81         9.1760    0.5220   -0.2550 h1        1 TUI      0.022200
     35 H82         8.3860    1.9860   -1.0420 h1        1 TUI      0.022200
     36 H5          7.1610    0.0870   -1.2300 ha        1 TUI      0.145000
     37 H4          5.0140   -1.1250   -1.4170 ha        1 TUI      0.122500
     38 H2          3.8400    0.3260    2.4910 ha        1 TUI      0.122500
     39 H1          6.0040    1.5540    2.6810 ha        1 TUI      0.145000
     40 H13         1.7080   -0.2460    2.0560 h4        1 TUI      0.180000
     41 H14        -0.0440   -1.9050    1.1350 hn        1 TUI      0.316700
     42 H171        0.1280   -4.2570   -0.2700 h1        1 TUI      0.089200
     43 H172        1.3620   -4.2120   -1.6310 h1        1 TUI      0.089200
     44 H18         0.0380   -2.6080   -2.7320 hn        1 TUI      0.308500
     45 H20        -2.2020   -1.7380   -3.2000 hn        1 TUI      0.344500
     46 H25        -6.5270   -0.0590   -2.4290 h4        1 TUI      0.047100
     47 H33        -8.5520    0.4820    2.4070 ha        1 TUI      0.146000
     48 H32        -8.6600    2.7950    3.3920 ha        1 TUI      0.135000
     49 H31        -6.9800    4.5180    2.6280 ha        1 TUI      0.142000
     50 H30        -5.2590    3.8420    0.9000 h4        1 TUI      0.024100
@<TRIPOS>BOND
     1    1    2 2   
     2    2    3 1   
     3    2   16 1   
     4    3    4 1   
     5    3   45 1   
     6    4    5 1   
     7    4   15 2   
     8    5    6 1   
     9    6    7 1   
    10    6   14 2   
    11    7    8 1   
    12    8    9 ar  
    13    8   13 ar  
    14    9   10 ar  
    15   10   11 ar  
    16   10   50 1   
    17   11   12 ar  
    18   11   49 1   
    19   12   13 ar  
    20   12   48 1   
    21   13   47 1   
    22   14   15 1   
    23   14   46 1   
    24   16   17 1   
    25   16   44 1   
    26   17   18 1   
    27   17   42 1   
    28   17   43 1   
    29   18   19 2   
    30   18   20 1   
    31   19   22 1   
    32   20   21 1   
    33   20   41 1   
    34   21   22 2   
    35   21   40 1   
    36   22   23 1   
    37   23   24 ar  
    38   23   26 ar  
    39   24   25 ar  
    40   24   38 1   
    41   25   28 ar  
    42   25   39 1   
    43   26   27 ar  
    44   26   37 1   
    45   27   28 ar  
    46   27   36 1   
    47   28   29 1   
    48   29   30 1   
    49   30   31 1   
    50   30   34 1   
    51   30   35 1   
    52   31   32 1   
    53   31   33 1   
@<TRIPOS>SUBSTRUCTURE
     1 TUI         1 TEMP              0 ****  ****    0 ROOT
