@<TRIPOS>MOLECULE
TUI
   51    54     1     0     0
SMALL
bcc


@<TRIPOS>ATOM
      1 O21         2.7790   -2.2720    0.5370 o         1 TUI     -0.458100
      2 C19         2.6780   -1.1100    0.1450 c         1 TUI      0.627100
      3 N20         2.4570    0.0430    0.8990 ns        1 TUI     -0.421400
      4 C22         1.6450   -0.1090    2.0510 cc        1 TUI      0.261300
      5 S23         2.2350    0.2040    3.6140 ss        1 TUI      0.266700
      6 C24         0.7690   -0.1620    4.2900 cc        1 TUI     -0.222500
      7 S27         0.2260   -0.1530    5.8580 ss        1 TUI     -0.005200
      8 C28         1.5550    0.2840    6.8300 ca        1 TUI      0.426600
      9 N29         2.7660    0.5700    6.2930 nb        1 TUI     -0.712000
     10 C30         3.7590    0.9100    7.1330 ca        1 TUI      0.422200
     11 C31         3.6010    0.9840    8.5300 ca        1 TUI     -0.233300
     12 C32         2.3490    0.6870    9.0720 ca        1 TUI     -0.069000
     13 C33         1.3050    0.3310    8.2190 ca        1 TUI     -0.218300
     14 C25        -0.1470   -0.5390    3.2690 cd        1 TUI      0.345200
     15 N26         0.3380   -0.5110    2.0050 nd        1 TUI     -0.623000
     16 N18         2.9910   -0.9300   -1.3420 ny        1 TUI     -0.676800
     17 C17         1.7280   -0.7580   -2.1390 c3        1 TUI      0.130500
     18 C15         2.0690   -0.3400   -3.5230 cc        1 TUI      0.235800
     19 N16         2.9210    0.6960   -3.7980 nd        1 TUI     -0.671000
     20 N14         1.6080   -0.9430   -4.7000 na        1 TUI     -0.263900
     21 C13         2.1670   -0.2390   -5.7520 cc        1 TUI     -0.223600
     22 C12         3.0030    0.7730   -5.1830 cd        1 TUI      0.452800
     23 C3          3.8280    1.7090   -5.9100 ca        1 TUI     -0.252500
     24 C2          4.2860    2.8900   -5.3080 ca        1 TUI     -0.057500
     25 C1          5.1040    3.7710   -6.0000 ca        1 TUI     -0.212000
     26 C4          4.1980    1.4310   -7.2410 ca        1 TUI     -0.057500
     27 C5          5.0140    2.2950   -7.9440 ca        1 TUI     -0.212000
     28 C6          5.4880    3.4790   -7.3240 ca        1 TUI      0.205100
     29 O7          6.3000    4.2520   -8.0840 os        1 TUI     -0.263900
     30 C8          6.8480    5.4260   -7.4650 c3        1 TUI     -0.025600
     31 C9          7.8650    6.0340   -8.4870 c         1 TUI      0.930600
     32 O11         8.9910    5.4830   -8.5590 o         1 TUI     -0.804300
     33 O10         7.4790    7.0580   -9.1030 o         1 TUI     -0.804300
     34 H81         7.3810    5.1400   -6.5240 h1        1 TUI      0.026700
     35 H82         6.0190    6.1440   -7.2520 h1        1 TUI      0.026700
     36 H5          5.3160    2.0860   -8.9810 ha        1 TUI      0.156500
     37 H4          3.8420    0.5080   -7.7230 ha        1 TUI      0.118500
     38 H2          3.9930    3.1320   -4.2750 ha        1 TUI      0.118500
     39 H1          5.4500    4.6960   -5.5170 ha        1 TUI      0.156500
     40 H13         1.9570   -0.4690   -6.7970 h4        1 TUI      0.203000
     41 H14         0.9310   -1.6590   -4.7640 hn        1 TUI      0.310700
     42 H171        1.1120    0.0470   -1.6390 hx        1 TUI      0.109200
     43 H172        1.1590   -1.7300   -2.1110 hx        1 TUI      0.109200
     44 H18         3.6110   -0.1220   -1.4960 hn        1 TUI      0.474800
     45 H20         2.2650    0.8910    0.3920 hn        1 TUI      0.330500
     46 H25        -1.1890   -0.8400    3.4420 h4        1 TUI      0.064100
     47 H33         0.3060    0.0910    8.6130 ha        1 TUI      0.159000
     48 H32         2.1840    0.7330   10.1590 ha        1 TUI      0.154000
     49 H31         4.4470    1.2690    9.1700 ha        1 TUI      0.158000
     50 H30         4.7320    1.1370    6.6580 h4        1 TUI      0.032100
     51 H182        3.4850   -1.7720   -1.6660 hn        1 TUI      0.474800
@<TRIPOS>BOND
     1    1    2 2   
     2    2    3 1   
     3    2   16 1   
     4    3    4 1   
     5    3   45 1   
     6    4    5 1   
     7    4   15 2   
     8    5    6 1   
     9    6    7 1   
    10    6   14 2   
    11    7    8 1   
    12    8    9 ar  
    13    8   13 ar  
    14    9   10 ar  
    15   10   11 ar  
    16   10   50 1   
    17   11   12 ar  
    18   11   49 1   
    19   12   13 ar  
    20   12   48 1   
    21   13   47 1   
    22   14   15 1   
    23   14   46 1   
    24   16   17 1   
    25   16   44 1   
    26   16   51 1   
    27   17   18 1   
    28   17   42 1   
    29   17   43 1   
    30   18   19 2   
    31   18   20 1   
    32   19   22 1   
    33   20   21 1   
    34   20   41 1   
    35   21   22 2   
    36   21   40 1   
    37   22   23 1   
    38   23   24 ar  
    39   23   26 ar  
    40   24   25 ar  
    41   24   38 1   
    42   25   28 ar  
    43   25   39 1   
    44   26   27 ar  
    45   26   37 1   
    46   27   28 ar  
    47   27   36 1   
    48   28   29 1   
    49   29   30 1   
    50   30   31 1   
    51   30   34 1   
    52   30   35 1   
    53   31   32 1   
    54   31   33 1   
@<TRIPOS>SUBSTRUCTURE
     1 TUI         1 TEMP              0 ****  ****    0 ROOT
