@<TRIPOS>MOLECULE
TUI
   50    53     1     0     0
SMALL
bcc


@<TRIPOS>ATOM
      1 O21         0.6580   -0.7020   -0.2240 o         1 TUI     -0.648100
      2 C19         0.0430    0.3740   -0.4470 c         1 TUI      0.753100
      3 N20        -0.3190    1.1970    0.6370 n         1 TUI     -0.523400
      4 C22        -0.1140    0.7850    1.9510 cc        1 TUI      0.498300
      5 S23         0.7460   -0.6270    2.3960 ss        1 TUI      0.110700
      6 C24         0.5110   -0.3100    4.0240 cc        1 TUI     -0.291500
      7 S27         0.9880   -1.3330    5.2310 ss        1 TUI     -0.103200
      8 C28         2.4820   -0.7860    5.8430 ca        1 TUI      0.459600
      9 N29         3.1090    0.3220    5.3830 nb        1 TUI     -0.665000
     10 C30         4.2860    0.6500    5.9440 ca        1 TUI      0.410200
     11 C31         4.8940   -0.0870    6.9750 ca        1 TUI     -0.262300
     12 C32         4.2380   -1.2280    7.4440 ca        1 TUI     -0.081000
     13 C33         3.0180   -1.5890    6.8790 ca        1 TUI     -0.246300
     14 C25        -0.2130    0.8820    4.1700 cd        1 TUI      0.444200
     15 N26        -0.5810    1.5120    3.0170 nd        1 TUI     -0.710000
     16 N18        -0.3540    0.7520   -1.7420 n         1 TUI     -0.514900
     17 C17         0.1890    0.0090   -2.8570 c3        1 TUI      0.060700
     18 C15         1.6320    0.3000   -3.1470 cc        1 TUI      0.309800
     19 N16         2.1120    1.0520   -4.1710 nd        1 TUI     -0.651000
     20 N14         2.6740   -0.1980   -2.3490 na        1 TUI     -0.296900
     21 C13         3.8590    0.2630   -2.9020 cc        1 TUI     -0.255600
     22 C12         3.5050    1.0370   -4.0400 cd        1 TUI      0.396800
     23 C3          4.4280    1.7150   -4.9270 ca        1 TUI     -0.196500
     24 C2          5.7970    1.3930   -4.8910 ca        1 TUI     -0.074500
     25 C1          6.7030    2.0370   -5.7170 ca        1 TUI     -0.208000
     26 C4          3.9890    2.6970   -5.8250 ca        1 TUI     -0.074500
     27 C5          4.8850    3.3540   -6.6620 ca        1 TUI     -0.208000
     28 C6          6.2520    3.0320   -6.6140 ca        1 TUI      0.174100
     29 O7          7.2220    3.6100   -7.3800 os        1 TUI     -0.283900
     30 C8          6.7930    4.6280   -8.2940 c3        1 TUI     -0.011600
     31 C9          8.0660    5.1440   -9.0310 c         1 TUI      0.926600
     32 O11         8.6790    6.1090   -8.5040 o         1 TUI     -0.819300
     33 O10         8.3470    4.6000  -10.1300 o         1 TUI     -0.819300
     34 H81         6.3140    5.4620   -7.7220 h1        1 TUI      0.022200
     35 H82         6.0720    4.1870   -9.0270 h1        1 TUI      0.022200
     36 H5          4.5210    4.1220   -7.3580 ha        1 TUI      0.145000
     37 H4          2.9210    2.9590   -5.8740 ha        1 TUI      0.122500
     38 H2          6.1560    0.6160   -4.2010 ha        1 TUI      0.122500
     39 H1          7.7740    1.7910   -5.6940 ha        1 TUI      0.145000
     40 H13         4.8340    0.0320   -2.4770 h4        1 TUI      0.180000
     41 H14         2.5600   -0.7520   -1.5370 hn        1 TUI      0.316700
     42 H171        0.0680   -1.0920   -2.6400 h1        1 TUI      0.089200
     43 H172       -0.4330    0.2770   -3.7600 h1        1 TUI      0.089200
     44 H18        -0.4650    1.7310   -1.9090 hn        1 TUI      0.308500
     45 H20        -0.8560    2.0240    0.4890 hn        1 TUI      0.344500
     46 H25        -0.4970    1.3360    5.1280 h4        1 TUI      0.047100
     47 H33         2.4740   -2.4800    7.2210 ha        1 TUI      0.146000
     48 H32         4.6790   -1.8350    8.2480 ha        1 TUI      0.135000
     49 H31         5.8570    0.2280    7.3930 ha        1 TUI      0.142000
     50 H30         4.7650    1.5600    5.5370 h4        1 TUI      0.024100
@<TRIPOS>BOND
     1    1    2 2   
     2    2    3 1   
     3    2   16 1   
     4    3    4 1   
     5    3   45 1   
     6    4    5 1   
     7    4   15 2   
     8    5    6 1   
     9    6    7 1   
    10    6   14 2   
    11    7    8 1   
    12    8    9 ar  
    13    8   13 ar  
    14    9   10 ar  
    15   10   11 ar  
    16   10   50 1   
    17   11   12 ar  
    18   11   49 1   
    19   12   13 ar  
    20   12   48 1   
    21   13   47 1   
    22   14   15 1   
    23   14   46 1   
    24   16   17 1   
    25   16   44 1   
    26   17   18 1   
    27   17   42 1   
    28   17   43 1   
    29   18   19 2   
    30   18   20 1   
    31   19   22 1   
    32   20   21 1   
    33   20   41 1   
    34   21   22 2   
    35   21   40 1   
    36   22   23 1   
    37   23   24 ar  
    38   23   26 ar  
    39   24   25 ar  
    40   24   38 1   
    41   25   28 ar  
    42   25   39 1   
    43   26   27 ar  
    44   26   37 1   
    45   27   28 ar  
    46   27   36 1   
    47   28   29 1   
    48   29   30 1   
    49   30   31 1   
    50   30   34 1   
    51   30   35 1   
    52   31   32 1   
    53   31   33 1   
@<TRIPOS>SUBSTRUCTURE
     1 TUI         1 TEMP              0 ****  ****    0 ROOT
