@<TRIPOS>MOLECULE
TUI
   51    54     1     0     0
SMALL
bcc


@<TRIPOS>ATOM
      1 O21         2.7750   -2.2790    0.5380 o         1 TUI     -0.458100
      2 C19         2.6760   -1.1170    0.1430 c         1 TUI      0.627100
      3 N20         2.4560    0.0380    0.8950 n         1 TUI     -0.421400
      4 C22         1.6450   -0.1110    2.0480 cc        1 TUI      0.261300
      5 S23         2.2370    0.2050    3.6100 ss        1 TUI      0.266700
      6 C24         0.7710   -0.1580    4.2880 cc        1 TUI     -0.222500
      7 S27         0.2290   -0.1440    5.8560 ss        1 TUI     -0.005200
      8 C28         1.5590    0.2940    6.8260 ca        1 TUI      0.426600
      9 N29         2.7700    0.5780    6.2870 nb        1 TUI     -0.712000
     10 C30         3.7640    0.9190    7.1250 ca        1 TUI      0.422200
     11 C31         3.6070    0.9950    8.5220 ca        1 TUI     -0.233300
     12 C32         2.3560    0.7010    9.0660 ca        1 TUI     -0.069000
     13 C33         1.3100    0.3440    8.2150 ca        1 TUI     -0.218300
     14 C25        -0.1470   -0.5370    3.2690 cd        1 TUI      0.345200
     15 N26         0.3380   -0.5130    2.0030 nd        1 TUI     -0.623000
     16 N18         2.9900   -0.9410   -1.3440 n4        1 TUI     -0.676800
     17 C17         1.7270   -0.7690   -2.1420 c3        1 TUI      0.130500
     18 C15         2.0700   -0.3500   -3.5250 cc        1 TUI      0.235800
     19 N16         2.9190    0.6890   -3.7990 nd        1 TUI     -0.671000
     20 N14         1.6120   -0.9540   -4.7030 na        1 TUI     -0.263900
     21 C13         2.1710   -0.2470   -5.7550 cc        1 TUI     -0.223600
     22 C12         3.0030    0.7660   -5.1830 cd        1 TUI      0.452800
     23 C3          3.8270    1.7050   -5.9080 ca        1 TUI     -0.252500
     24 C2          4.2790    2.8880   -5.3050 ca        1 TUI     -0.057500
     25 C1          5.0960    3.7710   -5.9950 ca        1 TUI     -0.212000
     26 C4          4.2010    1.4290   -7.2380 ca        1 TUI     -0.057500
     27 C5          5.0160    2.2950   -7.9390 ca        1 TUI     -0.212000
     28 C6          5.4860    3.4800   -7.3170 ca        1 TUI      0.205100
     29 O7          6.2980    4.2550   -8.0760 os        1 TUI     -0.263900
     30 C8          6.8400    5.4310   -7.4540 c3        1 TUI     -0.025600
     31 C9          7.8590    6.0410   -8.4730 c         1 TUI      0.930600
     32 O11         8.9880    5.4960   -8.5390 o         1 TUI     -0.804300
     33 O10         7.4710    7.0620   -9.0940 o         1 TUI     -0.804300
     34 H81         6.0080    6.1470   -7.2450 h1        1 TUI      0.026700
     35 H82         7.3710    5.1460   -6.5120 h1        1 TUI      0.026700
     36 H5          5.3220    2.0870   -8.9750 ha        1 TUI      0.156500
     37 H4          3.8490    0.5050   -7.7220 ha        1 TUI      0.118500
     38 H2          3.9830    3.1280   -4.2720 ha        1 TUI      0.118500
     39 H1          5.4390    4.6970   -5.5110 ha        1 TUI      0.156500
     40 H13         1.9630   -0.4780   -6.8000 h4        1 TUI      0.203000
     41 H14         0.9370   -1.6710   -4.7690 hn        1 TUI      0.310700
     42 H171        1.1590   -1.7420   -2.1160 hx        1 TUI      0.109200
     43 H172        1.1100    0.0340   -1.6420 hx        1 TUI      0.109200
     44 H18         3.6100   -0.1330   -1.5000 hn        1 TUI      0.474800
     45 H20         2.2650    0.8840    0.3860 hn        1 TUI      0.330500
     46 H25        -1.1890   -0.8360    3.4430 h4        1 TUI      0.064100
     47 H33         0.3120    0.1050    8.6100 ha        1 TUI      0.159000
     48 H32         2.1920    0.7500   10.1540 ha        1 TUI      0.154000
     49 H31         4.4540    1.2810    9.1610 ha        1 TUI      0.158000
     50 H30         4.7370    1.1430    6.6490 h4        1 TUI      0.032100
     51 H182        3.4840   -1.7830   -1.6660 hn        1 TUI      0.474800
@<TRIPOS>BOND
     1    1    2 2   
     2    2    3 1   
     3    2   16 1   
     4    3    4 1   
     5    3   45 1   
     6    4    5 1   
     7    4   15 2   
     8    5    6 1   
     9    6    7 1   
    10    6   14 2   
    11    7    8 1   
    12    8    9 ar  
    13    8   13 ar  
    14    9   10 ar  
    15   10   11 ar  
    16   10   50 1   
    17   11   12 ar  
    18   11   49 1   
    19   12   13 ar  
    20   12   48 1   
    21   13   47 1   
    22   14   15 1   
    23   14   46 1   
    24   16   17 1   
    25   16   44 1   
    26   16   51 1   
    27   17   18 1   
    28   17   42 1   
    29   17   43 1   
    30   18   19 2   
    31   18   20 1   
    32   19   22 1   
    33   20   21 1   
    34   20   41 1   
    35   21   22 2   
    36   21   40 1   
    37   22   23 1   
    38   23   24 ar  
    39   23   26 ar  
    40   24   25 ar  
    41   24   38 1   
    42   25   28 ar  
    43   25   39 1   
    44   26   27 ar  
    45   26   37 1   
    46   27   28 ar  
    47   27   36 1   
    48   28   29 1   
    49   29   30 1   
    50   30   31 1   
    51   30   34 1   
    52   30   35 1   
    53   31   32 1   
    54   31   33 1   
@<TRIPOS>SUBSTRUCTURE
     1 TUI         1 TEMP              0 ****  ****    0 ROOT
