@<TRIPOS>MOLECULE
TUL
   12    12     1     0     0
SMALL
bcc


@<TRIPOS>ATOM
      1 O4         -0.0890   -0.0030   -0.0400 o         1 TUL     -0.594500
      2 C4          1.1500   -0.0020    0.0230 c         1 TUL      0.701700
      3 C5          1.9340    0.0000    1.2640 cc        1 TUL     -0.302200
      4 C6          3.2920    0.0020    1.2060 cd        1 TUL      0.034600
      5 N1          3.9630    0.0010   -0.0020 ns        1 TUL     -0.429100
      6 C2          3.2820   -0.0010   -1.2290 c         1 TUL      0.543400
      7 S2          4.0980   -0.0020   -2.6100 s         1 TUL     -0.490400
      8 N3          1.8910   -0.0020   -1.1810 ns        1 TUL     -0.541500
      9 H1          1.3740    0.0010    2.2060 ha        1 TUL      0.183000
     10 H3          3.9300    0.0030    2.1100 h4        1 TUL      0.168000
     11 H4          1.4060   -0.0040   -2.0570 hn        1 TUL      0.363500
     12 H2          4.9610    0.0020   -0.0430 hn        1 TUL      0.365500
@<TRIPOS>BOND
     1    1    2 2   
     2    2    3 1   
     3    2    8 1   
     4    3    4 2   
     5    3    9 1   
     6    4    5 1   
     7    4   10 1   
     8    5    6 1   
     9    5   12 1   
    10    6    7 2   
    11    6    8 1   
    12    8   11 1   
@<TRIPOS>SUBSTRUCTURE
     1 TUL         1 TEMP              0 ****  ****    0 ROOT
