@<TRIPOS>MOLECULE
TUN
   26    25     1     0     0
SMALL
bcc


@<TRIPOS>ATOM
      1 C2          3.2210   -0.6210    1.3250 c3        1 TUN     -0.106100
      2 C1          1.7260   -0.7200    1.0820 c3        1 TUN      0.193400
      3 O2          1.4560   -0.8680   -0.2720 os        1 TUN     -0.574200
      4 P           0.5100    0.3140   -0.9950 p5        1 TUN      1.419700
      5 O3          0.8420    1.5610   -0.2500 o         1 TUN     -0.842500
      6 N          -1.0190   -0.1450   -0.6580 n3        1 TUN     -0.837700
      7 C3         -1.7080    0.4290    0.4430 c3        1 TUN      0.222300
      8 C4         -1.9160   -0.4540    1.6720 c3        1 TUN     -0.112100
      9 C5         -1.7080   -0.9990   -1.5610 c3        1 TUN      0.222300
     10 C6         -1.9320   -2.4440   -1.1210 c3        1 TUN     -0.112100
     11 OXT         0.7970    0.1560   -2.4450 o         1 TUN     -0.842500
     12 H21C        3.4290   -0.6050    2.4210 hc        1 TUN      0.022367
     13 H22C        3.7450   -1.4930    0.8670 hc        1 TUN      0.022367
     14 H23C        3.6230    0.3120    0.8640 hc        1 TUN      0.022367
     15 H11C        1.3320   -1.6300    1.6270 h1        1 TUN      0.008200
     16 H12C        1.2110    0.1960    1.4910 h1        1 TUN      0.008200
     17 H31C       -1.1080    1.3360    0.7650 h1        1 TUN      0.039950
     18 H32C       -2.7340    0.7890    0.1260 h1        1 TUN      0.039950
     19 H51C       -2.7290   -0.5740   -1.8080 h1        1 TUN      0.039950
     20 H52C       -1.1010   -1.0160   -2.5180 h1        1 TUN      0.039950
     21 H41C       -2.3820    0.1570    2.4820 hc        1 TUN      0.021033
     22 H42C       -2.5890   -1.3140    1.4460 hc        1 TUN      0.021033
     23 H43C       -0.9430   -0.8570    2.0460 hc        1 TUN      0.021033
     24 H61C       -0.9700   -2.9310   -0.8310 hc        1 TUN      0.021033
     25 H62C       -2.6310   -2.5010   -0.2530 hc        1 TUN      0.021033
     26 H63C       -2.3780   -3.0150   -1.9700 hc        1 TUN      0.021033
@<TRIPOS>BOND
     1    1    2 1   
     2    1   12 1   
     3    1   13 1   
     4    1   14 1   
     5    2    3 1   
     6    2   15 1   
     7    2   16 1   
     8    3    4 1   
     9    4    5 1   
    10    4    6 1   
    11    4   11 1   
    12    6    7 1   
    13    6    9 1   
    14    7    8 1   
    15    7   17 1   
    16    7   18 1   
    17    8   21 1   
    18    8   22 1   
    19    8   23 1   
    20    9   10 1   
    21    9   19 1   
    22    9   20 1   
    23   10   24 1   
    24   10   25 1   
    25   10   26 1   
@<TRIPOS>SUBSTRUCTURE
     1 TUN         1 TEMP              0 ****  ****    0 ROOT
