@<TRIPOS>MOLECULE
TUN
   27    26     1     0     0
SMALL
bcc


@<TRIPOS>ATOM
      1 C2         -0.0460    0.3900    0.3000 c3        1 TUN     -0.115100
      2 C1          1.3100   -0.0460   -0.2150 c3        1 TUN      0.167400
      3 O2          1.9730   -0.8180    0.7580 os        1 TUN     -0.588200
      4 P           3.3630   -0.2440    1.3840 p5        1 TUN      1.295700
      5 O3          3.2850   -0.2190    2.8510 o         1 TUN     -0.748500
      6 N           4.4180   -1.7070    1.0530 n4        1 TUN     -0.628500
      7 C3          5.7300   -1.2660    1.5580 c3        1 TUN      0.094300
      8 C4          6.8920   -2.2020    1.3070 c3        1 TUN     -0.116600
      9 C5          3.8580   -2.8670    1.7670 c3        1 TUN      0.094300
     10 C6          3.1250   -3.8540    0.8750 c3        1 TUN     -0.116600
     11 OXT         3.9320    0.7550    0.4660 o         1 TUN     -0.748500
     12 H21C        0.0590    1.1110    1.1450 hc        1 TUN      0.043033
     13 H22C       -0.6130    0.8820   -0.5250 hc        1 TUN      0.043033
     14 H23C       -0.6230   -0.4930    0.6650 hc        1 TUN      0.043033
     15 H11C        1.1710   -0.7060   -1.1190 h1        1 TUN      0.048200
     16 H12C        1.9410    0.8410   -0.5000 h1        1 TUN      0.048200
     17 H31C        5.6010   -1.0790    2.6660 hx        1 TUN      0.105450
     18 H32C        5.9390   -0.2700    1.0540 hx        1 TUN      0.105450
     19 H51C        4.6790   -3.4190    2.3090 hx        1 TUN      0.105450
     20 H52C        3.1490   -2.4610    2.5540 hx        1 TUN      0.105450
     21 H41C        7.8230   -1.7210    1.6970 hc        1 TUN      0.056200
     22 H42C        7.0270   -2.3970    0.2160 hc        1 TUN      0.056200
     23 H43C        6.7580   -3.1790    1.8300 hc        1 TUN      0.056200
     24 H61C        3.8010   -4.2800    0.0960 hc        1 TUN      0.056200
     25 H62C        2.2480   -3.3760    0.3730 hc        1 TUN      0.056200
     26 H63C        2.7490   -4.6900    1.5150 hc        1 TUN      0.056200
     27 HN1         4.4900   -1.9110    0.0620 hn        1 TUN      0.425800
@<TRIPOS>BOND
     1    1    2 1   
     2    1   12 1   
     3    1   13 1   
     4    1   14 1   
     5    2    3 1   
     6    2   15 1   
     7    2   16 1   
     8    3    4 1   
     9    4    5 1   
    10    4    6 1   
    11    4   11 1   
    12    6    7 1   
    13    6    9 1   
    14    6   27 1   
    15    7    8 1   
    16    7   17 1   
    17    7   18 1   
    18    8   21 1   
    19    8   22 1   
    20    8   23 1   
    21    9   10 1   
    22    9   19 1   
    23    9   20 1   
    24   10   24 1   
    25   10   25 1   
    26   10   26 1   
@<TRIPOS>SUBSTRUCTURE
     1 TUN         1 TEMP              0 ****  ****    0 ROOT
