@<TRIPOS>MOLECULE
TUN
   27    26     1     0     0
SMALL
bcc


@<TRIPOS>ATOM
      1 C2         -0.0380    0.3760    0.2230 c3        1 TUN     -0.115100
      2 C1          1.3210   -0.0750   -0.2700 c3        1 TUN      0.167400
      3 O2          1.9760   -0.8220    0.7280 os        1 TUN     -0.588200
      4 P           3.3620   -0.2330    1.3500 p5        1 TUN      1.295700
      5 O3          3.2720   -0.1680    2.8140 o         1 TUN     -0.748500
      6 N           4.4180   -1.7060    1.0670 n4        1 TUN     -0.628500
      7 C3          5.7260   -1.2530    1.5700 c3        1 TUN      0.094300
      8 C4          6.8880   -2.1970    1.3550 c3        1 TUN     -0.116600
      9 C5          3.8490   -2.8460    1.8090 c3        1 TUN      0.094300
     10 C6          3.1220   -3.8560    0.9380 c3        1 TUN     -0.116600
     11 OXT         3.9400    0.7400    0.4090 o         1 TUN     -0.748500
     12 H21C       -0.6190   -0.4970    0.6060 hc        1 TUN      0.043033
     13 H22C        0.0610    1.1180    1.0500 hc        1 TUN      0.043033
     14 H23C       -0.5970    0.8470   -0.6190 hc        1 TUN      0.043033
     15 H11C        1.9560    0.8040   -0.5740 h1        1 TUN      0.048200
     16 H12C        1.1890   -0.7580   -1.1580 h1        1 TUN      0.048200
     17 H31C        5.5880   -1.0360    2.6710 hx        1 TUN      0.105450
     18 H32C        5.9400   -0.2720    1.0400 hx        1 TUN      0.105450
     19 H51C        3.1350   -2.4160    2.5780 hx        1 TUN      0.105450
     20 H52C        4.6660   -3.3840    2.3720 hx        1 TUN      0.105450
     21 H41C        6.7480   -3.1600    1.9030 hc        1 TUN      0.056200
     22 H42C        7.8170   -1.7080    1.7380 hc        1 TUN      0.056200
     23 H43C        7.0310   -2.4220    0.2700 hc        1 TUN      0.056200
     24 H61C        2.7400   -4.6720    1.5980 hc        1 TUN      0.056200
     25 H62C        2.2500   -3.3900    0.4160 hc        1 TUN      0.056200
     26 H63C        3.8040   -4.3040    0.1760 hc        1 TUN      0.056200
     27 HN1         4.4960   -1.9370    0.0830 hn        1 TUN      0.425800
@<TRIPOS>BOND
     1    1    2 1   
     2    1   12 1   
     3    1   13 1   
     4    1   14 1   
     5    2    3 1   
     6    2   15 1   
     7    2   16 1   
     8    3    4 1   
     9    4    5 1   
    10    4    6 1   
    11    4   11 1   
    12    6    7 1   
    13    6    9 1   
    14    6   27 1   
    15    7    8 1   
    16    7   17 1   
    17    7   18 1   
    18    8   21 1   
    19    8   22 1   
    20    8   23 1   
    21    9   10 1   
    22    9   19 1   
    23    9   20 1   
    24   10   24 1   
    25   10   25 1   
    26   10   26 1   
@<TRIPOS>SUBSTRUCTURE
     1 TUN         1 TEMP              0 ****  ****    0 ROOT
