@<TRIPOS>MOLECULE
TUN
   27    26     1     0     0
SMALL
bcc


@<TRIPOS>ATOM
      1 C2         -0.0140    0.4260    0.2370 c3        1 TUN     -0.115100
      2 C1          1.3420   -0.0330   -0.2570 c3        1 TUN      0.167400
      3 O2          1.9840   -0.8020    0.7320 os        1 TUN     -0.588200
      4 P           3.3740   -0.2380    1.3680 p5        1 TUN      1.295700
      5 O3          3.2790   -0.1930    2.8330 o         1 TUN     -0.748500
      6 N           4.4140   -1.7180    1.0670 nx        1 TUN     -0.628500
      7 C3          5.7260   -1.2870    1.5810 c3        1 TUN      0.094300
      8 C4          6.8780   -2.2410    1.3560 c3        1 TUN     -0.116600
      9 C5          3.8300   -2.8620    1.7890 c3        1 TUN      0.094300
     10 C6          3.0950   -3.8500    0.9010 c3        1 TUN     -0.116600
     11 OXT         3.9660    0.7430    0.4440 o         1 TUN     -0.748500
     12 H21C        0.0900    1.1550    1.0750 hc        1 TUN      0.043033
     13 H22C       -0.5660    0.9160   -0.6000 hc        1 TUN      0.043033
     14 H23C       -0.6060   -0.4460    0.6050 hc        1 TUN      0.043033
     15 H11C        1.2050   -0.7010   -1.1550 h1        1 TUN      0.048200
     16 H12C        1.9870    0.8430   -0.5450 h1        1 TUN      0.048200
     17 H31C        5.5860   -1.0850    2.6850 hx        1 TUN      0.105450
     18 H32C        5.9530   -0.3010    1.0670 hx        1 TUN      0.105450
     19 H51C        4.6390   -3.4170    2.3470 hx        1 TUN      0.105450
     20 H52C        3.1180   -2.4360    2.5620 hx        1 TUN      0.105450
     21 H41C        7.8110   -1.7680    1.7510 hc        1 TUN      0.056200
     22 H42C        7.0230   -2.4510    0.2690 hc        1 TUN      0.056200
     23 H43C        6.7250   -3.2100    1.8890 hc        1 TUN      0.056200
     24 H61C        3.7750   -4.2950    0.1350 hc        1 TUN      0.056200
     25 H62C        2.2300   -3.3670    0.3820 hc        1 TUN      0.056200
     26 H63C        2.7010   -4.6730    1.5460 hc        1 TUN      0.056200
     27 HN1         4.4940   -1.9350    0.0790 hn        1 TUN      0.425800
@<TRIPOS>BOND
     1    1    2 1   
     2    1   12 1   
     3    1   13 1   
     4    1   14 1   
     5    2    3 1   
     6    2   15 1   
     7    2   16 1   
     8    3    4 1   
     9    4    5 1   
    10    4    6 1   
    11    4   11 1   
    12    6    7 1   
    13    6    9 1   
    14    6   27 1   
    15    7    8 1   
    16    7   17 1   
    17    7   18 1   
    18    8   21 1   
    19    8   22 1   
    20    8   23 1   
    21    9   10 1   
    22    9   19 1   
    23    9   20 1   
    24   10   24 1   
    25   10   25 1   
    26   10   26 1   
@<TRIPOS>SUBSTRUCTURE
     1 TUN         1 TEMP              0 ****  ****    0 ROOT
