@<TRIPOS>MOLECULE
TUO
   40    41     1     0     0
SMALL
bcc


@<TRIPOS>ATOM
      1 CAE       153.5850 -282.1580  121.0530 ca        1 TUO     -0.070500
      2 CAA       154.0220 -283.2040  121.8530 ca        1 TUO     -0.118500
      3 CAB       153.4280 -283.4320  123.1000 ca        1 TUO     -0.020000
      4 CAC       152.3870 -282.6060  123.5380 ca        1 TUO     -0.118500
      5 CAG       151.9340 -281.5660  122.7360 ca        1 TUO     -0.070500
      6 CAF       152.5290 -281.3190  121.4790 ca        1 TUO     -0.168800
      7 CAN       152.0720 -280.2540  120.6520 cc        1 TUO      0.262800
      8 CAM       150.7310 -279.7420  120.4980 ca        1 TUO     -0.199000
      9 CAL       149.5000 -280.1210  121.0260 ca        1 TUO      0.148000
     10 CAK       148.3250 -279.4680  120.6260 ca        1 TUO     -0.569500
     11 SAJ       146.8690 -279.9890  121.1010 sy        1 TUO      1.483200
     12 OAS       145.8550 -279.7210  120.2130 o         1 TUO     -0.548300
     13 OAD       146.9360 -281.1220  121.8820 o         1 TUO     -0.548300
     14 NAI       146.4880 -278.6810  122.4270 nz        1 TUO     -0.796500
     15 CAT       148.4160 -278.4080  119.6680 ca        1 TUO      0.035000
     16 CAU       149.6020 -277.9960  119.1150 ca        1 TUO     -0.159000
     17 CAV       150.7870 -278.6690  119.5100 ca        1 TUO      0.184000
     18 NAW       152.0780 -278.5020  119.0870 na        1 TUO     -0.182600
     19 CAO       152.8900 -279.4590  119.7670 cc        1 TUO     -0.280200
     20 CAP       154.2460 -279.5460  119.6150 c1        1 TUO      0.735600
     21 OAH       155.4010 -279.6300  119.5130 o         1 TUO     -0.134500
     22 NAQ      -724.4140    0.3860 -561.6680 nz        1 TUO     -0.878400
     23 NAR      -723.4520    0.2480 -562.1820 n8        1 TUO     -0.404600
     24 HAE       154.0360 -282.0130  120.0580 ha        1 TUO      0.133500
     25 HAA       154.8360 -283.8650  121.5040 ha        1 TUO      0.179500
     26 HAB       153.7810 -284.2630  123.7370 ha        1 TUO      0.184000
     27 HAC       151.9270 -282.7820  124.5250 ha        1 TUO      0.179500
     28 HAG       151.1330 -280.9050  123.1020 ha        1 TUO      0.133500
     29 HAL       149.4470 -280.9660  121.7450 ha        1 TUO      0.189000
     30 HNAI      146.3630 -279.1240  123.3400 hn        1 TUO      0.465467
     31 HNAA      147.2110 -277.9750  122.5240 hn        1 TUO      0.465467
     32 HAT       147.4760 -277.9210  119.3340 ha        1 TUO      0.185000
     33 HAU       149.6360 -277.1810  118.3720 ha        1 TUO      0.198000
     34 HNAR     -723.8060    0.1510 -562.5420 hn        1 TUO      0.450133
     35 HNAW      152.4030 -277.8700  118.3910 hn        1 TUO      0.355700
     36 H13      -724.8940    0.8050 -560.8780 hn        1 TUO      0.450133
     37 H14      -722.7610    0.4350 -561.4300 hn        1 TUO      0.466800
     38 HAI3      145.6140 -278.1980  122.2060 hn        1 TUO      0.465467
     39 HAQ2     -725.0900    0.1290 -562.3810 hn        1 TUO      0.450133
     40 HAR3     -722.9590    0.7520 -562.9480 hn        1 TUO      0.466800
@<TRIPOS>BOND
     1    1    2 ar  
     2    1    6 ar  
     3    1   24 1   
     4    2    3 ar  
     5    2   25 1   
     6    3    4 ar  
     7    3   26 1   
     8    4    5 ar  
     9    4   27 1   
    10    5    6 ar  
    11    5   28 1   
    12    6    7 1   
    13    7    8 2   
    14    7   19 1   
    15    8    9 ar  
    16    8   17 ar  
    17    9   10 ar  
    18    9   29 1   
    19   10   11 1   
    20   10   15 ar  
    21   11   12 2   
    22   11   13 2   
    23   11   14 1   
    24   14   30 1   
    25   14   31 1   
    26   14   38 1   
    27   15   16 ar  
    28   15   32 1   
    29   16   17 ar  
    30   16   33 1   
    31   17   18 2   
    32   18   19 1   
    33   18   35 1   
    34   19   20 2   
    35   20   21 2   
    36   22   23 1   
    37   22   34 1   
    38   22   36 1   
    39   22   39 1   
    40   23   37 1   
    41   23   40 1   
@<TRIPOS>SUBSTRUCTURE
     1 TUO         1 TEMP              0 ****  ****    0 ROOT
