@<TRIPOS>MOLECULE
TUO
   40    41     1     0     0
SMALL
bcc


@<TRIPOS>ATOM
      1 CAE       236.0740 -388.4060  164.3180 ca        1 TUO     -0.070500
      2 CAA       236.8340 -387.4780  163.6190 ca        1 TUO     -0.118500
      3 CAB       238.1650 -387.2430  163.9820 ca        1 TUO     -0.020000
      4 CAC       238.7320 -387.9490  165.0480 ca        1 TUO     -0.118500
      5 CAG       237.9830 -388.8900  165.7430 ca        1 TUO     -0.070500
      6 CAF       236.6370 -389.1320  165.3930 ca        1 TUO     -0.157000
      7 CAN       235.8610 -390.0940  166.1020 c2        1 TUO      0.251000
      8 CAM       236.2870 -391.3410  166.6910 ca        1 TUO     -0.199000
      9 CAL       237.5060 -392.0130  166.7210 ca        1 TUO      0.148000
     10 CAK       237.6050 -393.2770  167.3190 ca        1 TUO     -1.014000
     11 SAJ       238.9660 -394.1470  167.2300 s6        1 TUO      2.822000
     12 OAS       238.7720 -395.5070  167.2690 o         1 TUO     -0.827500
     13 OAD       239.9500 -393.5250  166.4930 o         1 TUO     -0.827500
     14 NAI       239.6300 -393.8680  168.9900 n4        1 TUO     -0.518000
     15 CAT       236.4320 -393.8610  167.8970 ca        1 TUO      0.035000
     16 CAU       235.2070 -393.2440  167.8930 ca        1 TUO     -0.159000
     17 CAV       235.1070 -391.9710  167.2730 ca        1 TUO      0.184000
     18 NAW       234.0160 -391.1680  167.0820 na        1 TUO     -0.160000
     19 CAO       234.4440 -390.0090  166.3660 c2        1 TUO     -0.190000
     20 CAP       233.6170 -388.9710  166.0420 c1        1 TUO      0.439000
     21 OAH       232.9350 -388.0700  165.7670 o         1 TUO      0.099000
     22 NAQ     -1131.1080    0.3170 -776.2970 n2        1 TUO     -0.264000
     23 NAR     -1130.6250    0.3910 -775.5580 n4        1 TUO      0.005000
     24 HAE       235.0390 -388.6080  163.9980 ha        1 TUO      0.133500
     25 HAA       236.3910 -386.9290  162.7700 ha        1 TUO      0.179500
     26 HAB       238.7660 -386.5000  163.4270 ha        1 TUO      0.184000
     27 HAC       239.7800 -387.7540  165.3380 ha        1 TUO      0.179500
     28 HAG       238.4310 -389.4200  166.5980 ha        1 TUO      0.133500
     29 HAL       238.3970 -391.5560  166.2410 ha        1 TUO      0.189000
     30 HNAI      240.5450 -393.4140  168.9590 hn        1 TUO      0.260667
     31 HNAA      239.0230 -393.2960  169.5700 hn        1 TUO      0.260667
     32 HAT       236.5150 -394.8760  168.3380 ha        1 TUO      0.185000
     33 HAU       234.3200 -393.7270  168.3390 ha        1 TUO      0.198000
     34 HNAR    -1131.0830    0.5470 -774.6440 hn        1 TUO      0.262000
     35 HNAW      233.0760 -391.3630  167.3400 hn        1 TUO      0.306000
     36 H13     -1130.9810    0.4430 -775.7950 ha        1 TUO      0.286000
     37 H14     -1129.6110    0.2370 -775.4020 hn        1 TUO      0.262000
     38 HAI3      239.7550 -394.7640  169.4660 hn        1 TUO      0.260667
     39 HAQ2    -1132.0890    0.4430 -776.5230 hn        1 TUO      0.225000
     40 HAR3    -1130.7290    0.2450 -776.1360 DU        1 TUO      0.225000
@<TRIPOS>BOND
     1    1    2 1   
     2    1    6 1   
     3    1   24 1   
     4    2    3 1   
     5    2   25 1   
     6    3    4 1   
     7    3   26 1   
     8    4    5 1   
     9    4   27 1   
    10    5    6 1   
    11    5   28 1   
    12    6    7 1   
    13    7    8 1   
    14    7   19 1   
    15    8    9 1   
    16    8   17 1   
    17    9   10 1   
    18    9   29 1   
    19   10   11 1   
    20   10   15 1   
    21   11   12 1   
    22   11   13 1   
    23   11   14 1   
    24   14   30 1   
    25   14   31 1   
    26   14   38 1   
    27   15   16 1   
    28   15   32 1   
    29   16   17 1   
    30   16   33 1   
    31   17   18 1   
    32   18   19 1   
    33   18   35 1   
    34   19   20 1   
    35   20   21 1   
    36   22   23 1   
    37   22   39 1   
    38   23   34 1   
    39   23   37 1   
    40   23   40 1   
    41   36   40 1   
@<TRIPOS>SUBSTRUCTURE
     1 TUO         1 TEMP              0 ****  ****    0 ROOT
