@<TRIPOS>MOLECULE
TUO
   40    39     1     0     0
SMALL
bcc


@<TRIPOS>ATOM
      1 CAE       124.7310 -283.5200  124.7020 ca        1 TUO     -0.070500
      2 CAA       125.7180 -284.2270  125.3750 ca        1 TUO     -0.118500
      3 CAB       125.6670 -284.3530  126.7680 ca        1 TUO     -0.020000
      4 CAC       124.6150 -283.7730  127.4830 ca        1 TUO     -0.118500
      5 CAG       123.6140 -283.0770  126.8150 ca        1 TUO     -0.070500
      6 CAF       123.6560 -282.9340  125.4110 ca        1 TUO     -0.168800
      7 CAN       122.6360 -282.2210  124.7200 cc        1 TUO      0.262800
      8 CAM       121.2270 -282.1370  125.0260 ca        1 TUO     -0.199000
      9 CAL       120.4280 -282.7250  126.0020 ca        1 TUO      0.148000
     10 CAK       119.0420 -282.5120  126.0070 ca        1 TUO     -0.569500
     11 SAJ       118.0720 -283.3070  127.0280 sy        1 TUO      1.483200
     12 OAS       116.7970 -283.5090  126.5570 o         1 TUO     -0.548300
     13 OAD       118.7540 -284.1990  127.8270 o         1 TUO     -0.548300
     14 NAI       117.7340 -281.9170  128.2810 n4        1 TUO     -0.796500
     15 CAT       118.4680 -281.6800  124.9930 ca        1 TUO      0.035000
     16 CAU       119.2080 -281.0790  124.0080 ca        1 TUO     -0.159000
     17 CAV       120.6090 -281.3080  123.9960 ca        1 TUO      0.184000
     18 NAW       121.5640 -280.8830  123.1130 na        1 TUO     -0.182600
     19 CAO       122.8180 -281.4270  123.5280 cc        1 TUO     -0.280200
     20 CAP       124.0020 -281.1680  122.8950 c1        1 TUO      0.735600
     21 OAH       125.0220 -280.9520  122.3820 o         1 TUO     -0.134500
     22 NAQ      -587.2500    0.1170 -583.1950 n2        1 TUO     -0.681500
     23 NAR      -586.1070    0.8090 -583.5800 nh        1 TUO      0.078700
     24 HAE       124.7630 -283.4600  123.6030 ha        1 TUO      0.133500
     25 HAA       126.5440 -284.6950  124.8110 ha        1 TUO      0.179500
     26 HAB       126.4580 -284.9120  127.3010 ha        1 TUO      0.185000
     27 HAC       124.5820 -283.8660  128.5820 ha        1 TUO      0.179500
     28 HAG       122.8050 -282.6010  127.3900 ha        1 TUO      0.133500
     29 HAL       120.8890 -283.3910  126.7610 ha        1 TUO      0.189000
     30 HNAI      118.1760 -281.0340  128.0410 hn        1 TUO      0.465467
     31 HNAA      118.0630 -282.1850  129.2100 hn        1 TUO      0.465467
     32 HAT       117.3660 -281.5460  124.9870 ha        1 TUO      0.185000
     33 HAU       118.7330 -280.4510  123.2350 ha        1 TUO      0.198000
     34 HNAR     -585.6200    0.2390 -584.2970 hn        1 TUO      0.335700
     35 HNAW      121.4220 -280.3380  122.2940 hn        1 TUO      0.355700
     36 H13      -587.8740    0.9780 -583.9840 DU        1 TUO      0.231500
     37 H14      -586.2640    0.7590 -583.9580 DU        1 TUO      0.231500
     38 HAI3      116.7280 -281.7470  128.3570 hn        1 TUO      0.465467
     39 HAQ2     -587.7400    0.6090 -582.4530 hn        1 TUO      0.469400
     40 HAR3     -585.4840    0.8760 -582.7530 hn        1 TUO      0.335700
@<TRIPOS>BOND
     1    1    2 ar  
     2    1    6 ar  
     3    1   24 1   
     4    2    3 ar  
     5    2   25 1   
     6    3    4 ar  
     7    3   26 1   
     8    4    5 ar  
     9    4   27 1   
    10    5    6 ar  
    11    5   28 1   
    12    6    7 1   
    13    7    8 2   
    14    7   19 1   
    15    8    9 ar  
    16    8   17 ar  
    17    9   10 ar  
    18    9   29 1   
    19   10   11 1   
    20   10   15 ar  
    21   11   12 2   
    22   11   13 2   
    23   11   14 1   
    24   14   30 1   
    25   14   31 1   
    26   14   38 1   
    27   15   16 ar  
    28   15   32 1   
    29   16   17 ar  
    30   16   33 1   
    31   17   18 2   
    32   18   19 1   
    33   18   35 1   
    34   19   20 2   
    35   20   21 2   
    36   22   23 2   
    37   22   39 1   
    38   23   34 1   
    39   23   40 1   
@<TRIPOS>SUBSTRUCTURE
     1 TUO         1 TEMP              0 ****  ****    0 ROOT
