@<TRIPOS>MOLECULE
TUO
   37    39     1     0     0
SMALL
bcc


@<TRIPOS>ATOM
      1 CAE        -2.5430   -1.8140    1.0460 ca        1 TUO     -0.107500
      2 CAA        -2.9430   -3.1480    0.9730 ca        1 TUO     -0.133500
      3 CAB        -2.4060   -3.9910    0.0010 ca        1 TUO     -0.117000
      4 CAC        -1.4630   -3.4980   -0.9020 ca        1 TUO     -0.133500
      5 CAG        -1.0570   -2.1680   -0.8320 ca        1 TUO     -0.107500
      6 CAF        -1.5960   -1.3120    0.1420 ca        1 TUO     -0.054800
      7 CAN        -1.1510    0.0620    0.2120 cc        1 TUO      0.023600
      8 CAM         0.2370    0.4890    0.1380 ca        1 TUO     -0.139800
      9 CAL         1.4500   -0.1850    0.0320 ca        1 TUO      0.060000
     10 CAK         2.6430    0.5340   -0.0030 ca        1 TUO     -0.423500
     11 SAJ         4.1250   -0.2590   -0.1140 sy        1 TUO      1.531200
     12 OAS         5.1120    0.5470    0.4940 o         1 TUO     -0.659800
     13 OAD         3.9660   -1.5770    0.3650 o         1 TUO     -0.659800
     14 NAI         4.3990   -0.3110   -1.6940 n3        1 TUO     -1.026700
     15 CAT         2.6150    1.9450    0.0920 ca        1 TUO     -0.004000
     16 CAU         1.4400    2.6600    0.2040 ca        1 TUO     -0.174000
     17 CAV         0.2330    1.9330    0.2240 ca        1 TUO      0.023800
     18 NAW        -1.0830    2.3630    0.3030 na        1 TUO     -0.171400
     19 CAO        -1.9190    1.2260    0.3290 cd        1 TUO     -0.137300
     20 CAP        -3.3910    1.3710    0.4320 c         1 TUO      0.648300
     21 OAH        -4.0740    0.7660    1.2760 o         1 TUO     -0.568100
     22 NAQ        -3.9720    2.3220   -0.4360 n         1 TUO     -0.426300
     23 NAR        -5.3180    2.4580   -0.5950 n3        1 TUO     -0.638800
     24 HAE        -2.9750   -1.1490    1.8120 ha        1 TUO      0.146500
     25 HAA        -3.6850   -3.5330    1.6880 ha        1 TUO      0.135500
     26 HAB        -2.7220   -5.0430   -0.0520 ha        1 TUO      0.134000
     27 HAC        -1.0370   -4.1610   -1.6690 ha        1 TUO      0.135500
     28 HAG        -0.3130   -1.7820   -1.5450 ha        1 TUO      0.146500
     29 HAL         1.4640   -1.2900   -0.0060 ha        1 TUO      0.165000
     30 HNAI        4.8820    0.3940   -2.1890 hn        1 TUO      0.445800
     31 HNAA        4.1270   -1.0660   -2.2710 hn        1 TUO      0.445800
     32 HAT         3.5790    2.4860    0.0980 ha        1 TUO      0.154000
     33 HAU         1.4420    3.7550    0.2840 ha        1 TUO      0.145000
     34 HNAR       -5.7820    1.5550   -0.5410 hn        1 TUO      0.353800
     35 HNAW       -1.3820    3.2830    0.5000 hn        1 TUO      0.312700
     36 H13        -3.4970    2.4520   -1.3130 hn        1 TUO      0.324500
     37 H14        -5.6700    3.0050    0.1840 hn        1 TUO      0.353800
@<TRIPOS>BOND
     1    1    2 ar  
     2    1    6 ar  
     3    1   24 1   
     4    2    3 ar  
     5    2   25 1   
     6    3    4 ar  
     7    3   26 1   
     8    4    5 ar  
     9    4   27 1   
    10    5    6 ar  
    11    5   28 1   
    12    6    7 1   
    13    7    8 1   
    14    7   19 2   
    15    8    9 ar  
    16    8   17 ar  
    17    9   10 ar  
    18    9   29 1   
    19   10   11 1   
    20   10   15 ar  
    21   11   12 2   
    22   11   13 2   
    23   11   14 1   
    24   14   30 1   
    25   14   31 1   
    26   15   16 ar  
    27   15   32 1   
    28   16   17 ar  
    29   16   33 1   
    30   17   18 1   
    31   18   19 1   
    32   18   35 1   
    33   19   20 1   
    34   20   21 2   
    35   20   22 1   
    36   22   23 1   
    37   22   36 1   
    38   23   34 1   
    39   23   37 1   
@<TRIPOS>SUBSTRUCTURE
     1 TUO         1 TEMP              0 ****  ****    0 ROOT
