@<TRIPOS>MOLECULE
TUR
   45    46     1     0     0
SMALL
bcc


@<TRIPOS>ATOM
      1 C1          0.5690    1.2140   -0.6030 c3        1 TUR      0.330900
      2 O1          0.0840    0.0270   -0.1480 os        1 TUR     -0.403600
      3 C2          2.0960    1.1820   -0.5650 c3        1 TUR      0.135100
      4 O2          2.5570   -0.0180   -1.2310 oh        1 TUR     -0.593800
      5 C3          2.6270    1.1890    0.8210 c3        1 TUR      0.110100
      6 O3          4.0730    1.3420    0.7690 oh        1 TUR     -0.612800
      7 C4          2.0550    2.3020    1.6440 c3        1 TUR      0.093100
      8 O4          2.4610    2.1280    2.9770 oh        1 TUR     -0.610800
      9 C5          0.5240    2.3330    1.5980 c3        1 TUR      0.064100
     10 O5          0.0020    2.3230    0.2270 os        1 TUR     -0.438600
     11 C6          0.0470    3.5510    2.2800 c3        1 TUR      0.126400
     12 O6         -0.3100    3.2270    3.6410 oh        1 TUR     -0.604800
     13 OAB        -2.0050   -4.9270    0.4540 oh        1 TUR     -0.593800
     14 OAC        -4.0530   -0.7610   -2.1010 oh        1 TUR     -0.599800
     15 OAG         0.0340   -2.5470   -2.5750 oh        1 TUR     -0.590800
     16 OAH        -2.2570    0.4460   -0.2620 oh        1 TUR     -0.593800
     17 CAJ        -1.0230   -3.9190    0.3270 c3        1 TUR      0.117400
     18 CAK        -2.6640   -0.6380   -2.3520 c3        1 TUR      0.109400
     19 OAN        -2.2270   -2.0060   -0.2360 os        1 TUR     -0.464600
     20 CAR        -0.2400   -2.1590   -1.2900 c3        1 TUR      0.115100
     21 CAT        -1.4570   -2.9190   -0.7510 c3        1 TUR      0.107100
     22 CAV        -0.6350   -0.6630   -1.2510 c3        1 TUR      0.112100
     23 CAW        -1.9050   -0.6600   -1.0310 c3        1 TUR      0.279600
     24 H1          0.2670    1.3440   -1.5750 h2        1 TUR      0.090700
     25 H2          2.4330    1.9460   -1.0310 h1        1 TUR      0.064700
     26 HO2         3.2810    0.1620   -1.6820 ho        1 TUR      0.430000
     27 H3          2.4190    0.3610    1.2370 h1        1 TUR      0.081700
     28 HO3         4.4710    0.6170    1.1640 ho        1 TUR      0.431000
     29 H4          2.3990    3.1470    1.3180 h1        1 TUR      0.054700
     30 HO4         3.1120    2.7930    3.2040 ho        1 TUR      0.432000
     31 H5          0.1720    1.5350    2.0820 h1        1 TUR      0.095700
     32 H6          0.7790    4.2480    2.2790 h1        1 TUR      0.063700
     33 H6A        -0.7120    3.8890    1.8260 h1        1 TUR      0.063700
     34 HO6        -0.5720    3.9500    4.0530 ho        1 TUR      0.411000
     35 HOAB       -1.7200   -5.5390    0.9860 ho        1 TUR      0.409000
     36 HOAC       -4.5040   -0.7220   -2.8820 ho        1 TUR      0.416000
     37 HOAG        0.6730   -3.2120   -2.5660 ho        1 TUR      0.416000
     38 HOAH       -3.0830    0.3400    0.0440 ho        1 TUR      0.422000
     39 HAJ        -0.9180   -3.4540    1.1830 h1        1 TUR      0.059700
     40 HAJA       -0.1830   -4.3190    0.0730 h1        1 TUR      0.059700
     41 HAK        -2.4870    0.2210   -2.8220 h1        1 TUR      0.072700
     42 HAKA       -2.3550   -1.4120   -2.9340 h1        1 TUR      0.072700
     43 HAR         0.5380   -2.3170   -0.7140 h1        1 TUR      0.081700
     44 HAT        -1.9230   -3.3860   -1.4820 h1        1 TUR      0.100700
     45 HAV        -0.4400   -0.2370   -2.1040 h1        1 TUR      0.075700
@<TRIPOS>BOND
     1    1    2 1   
     2    1    3 1   
     3    1   10 1   
     4    1   24 1   
     5    2   22 1   
     6    3    4 1   
     7    3    5 1   
     8    3   25 1   
     9    4   26 1   
    10    5    6 1   
    11    5    7 1   
    12    5   27 1   
    13    6   28 1   
    14    7    8 1   
    15    7    9 1   
    16    7   29 1   
    17    8   30 1   
    18    9   10 1   
    19    9   11 1   
    20    9   31 1   
    21   11   12 1   
    22   11   32 1   
    23   11   33 1   
    24   12   34 1   
    25   13   17 1   
    26   13   35 1   
    27   14   18 1   
    28   14   36 1   
    29   15   20 1   
    30   15   37 1   
    31   16   23 1   
    32   16   38 1   
    33   17   21 1   
    34   17   39 1   
    35   17   40 1   
    36   18   23 1   
    37   18   41 1   
    38   18   42 1   
    39   19   21 1   
    40   19   23 1   
    41   20   21 1   
    42   20   22 1   
    43   20   43 1   
    44   21   44 1   
    45   22   23 1   
    46   22   45 1   
@<TRIPOS>SUBSTRUCTURE
     1 TUR         1 TEMP              0 ****  ****    0 ROOT
