@<TRIPOS>MOLECULE
TUR
   45    46     1     0     0
SMALL
bcc


@<TRIPOS>ATOM
      1 C1         -1.0290    0.7870   -1.0520 c3        1 TUR      0.301900
      2 O1         -0.0560    0.3930   -0.0900 os        1 TUR     -0.456600
      3 C2         -1.8650    1.9100   -0.4110 c3        1 TUR      0.091100
      4 O2         -1.0370    2.9500    0.0640 oh        1 TUR     -0.591800
      5 C3         -2.7450    1.3640    0.7210 c3        1 TUR      0.074100
      6 O3         -3.7020    2.3250    1.1310 oh        1 TUR     -0.603800
      7 C4         -3.5350    0.1380    0.2320 c3        1 TUR      0.128100
      8 O4         -4.2480   -0.4550    1.3010 oh        1 TUR     -0.592800
      9 C5         -2.5470   -0.9120   -0.2930 c3        1 TUR      0.101100
     10 O5         -1.7670   -0.3680   -1.3660 os        1 TUR     -0.433600
     11 C6         -3.2800   -2.1190   -0.8850 c3        1 TUR      0.140400
     12 O6         -2.3820   -3.1630   -1.1850 oh        1 TUR     -0.594800
     13 OAG         2.1830    0.9040   -2.4800 oh        1 TUR     -0.587800
     14 OAH         2.1190   -2.2940   -0.1970 oh        1 TUR     -0.612800
     15 CAK         1.1450   -1.2420    1.7670 c3        1 TUR      0.117400
     16 OAN         3.1210   -0.4650    0.6280 os        1 TUR     -0.446600
     17 CAR         2.1140    0.8970   -1.0680 c3        1 TUR      0.089100
     18 CAT         3.4370    0.4840   -0.4010 c3        1 TUR      0.066100
     19 CAV         1.1000   -0.2020   -0.6650 c3        1 TUR      0.136100
     20 CAW         1.8360   -1.0500    0.4040 c3        1 TUR      0.307600
     21 H1         -0.5570    1.1140   -2.0220 h2        1 TUR      0.110700
     22 H2         -2.5060    2.3900   -1.2040 h1        1 TUR      0.105700
     23 HO2        -0.3900    2.5540    0.6650 ho        1 TUR      0.417000
     24 H3         -2.1000    1.0770    1.5990 h1        1 TUR      0.061700
     25 HO3        -3.2200    3.1500    1.2830 ho        1 TUR      0.424000
     26 H4         -4.2510    0.4490   -0.5790 h1        1 TUR      0.060700
     27 HO4        -4.7860    0.2470    1.6940 ho        1 TUR      0.427000
     28 H5         -1.8570   -1.2400    0.5330 h1        1 TUR      0.075700
     29 H6         -3.9790   -2.5350   -0.1100 h1        1 TUR      0.065700
     30 H6A        -3.8490   -1.8110   -1.8020 h1        1 TUR      0.065700
     31 HO6        -1.7600   -2.8230   -1.8410 ho        1 TUR      0.410000
     32 HOAB        5.3060    0.5430    1.3380 ho        1 TUR      0.417000
     33 HOAC        0.6310   -3.0880    1.4980 ho        1 TUR      0.416000
     34 HOAG        2.9390    1.4520   -2.7240 ho        1 TUR      0.413000
     35 HAK         0.0910   -0.8620    1.7270 h1        1 TUR      0.074700
     36 HAKA        1.7210   -0.7100    2.5700 h1        1 TUR      0.074700
     37 HAR         1.7680    1.9030   -0.7010 h1        1 TUR      0.061700
     38 HAT         4.1160   -0.0270   -1.1370 h1        1 TUR      0.083700
     39 HAV         0.8250   -0.8430   -1.5470 h1        1 TUR      0.115700
     40 HOAH        2.7220   -2.7680    0.3950 ho        1 TUR      0.438000
     41 OAC         1.1750   -2.6040    2.1340 oh        1 TUR     -0.594800
     42 CAJ         4.1520    1.6570    0.2670 c3        1 TUR      0.131400
     43 HAJ         3.5330    2.0550    1.1140 h1        1 TUR      0.051700
     44 OAB         5.4310    1.2820    0.7270 oh        1 TUR     -0.591800
     45 HAJA        4.3390    2.4680   -0.4870 h1        1 TUR      0.051700
@<TRIPOS>BOND
     1    1    2 1   
     2    1    3 1   
     3    1   10 1   
     4    1   21 1   
     5    2   19 1   
     6    3    4 1   
     7    3    5 1   
     8    3   22 1   
     9    4   23 1   
    10    5    6 1   
    11    5    7 1   
    12    5   24 1   
    13    6   25 1   
    14    7    8 1   
    15    7    9 1   
    16    7   26 1   
    17    8   27 1   
    18    9   10 1   
    19    9   11 1   
    20    9   28 1   
    21   11   12 1   
    22   11   29 1   
    23   11   30 1   
    24   12   31 1   
    25   13   17 1   
    26   13   34 1   
    27   14   20 1   
    28   14   40 1   
    29   15   20 1   
    30   15   35 1   
    31   15   36 1   
    32   15   41 1   
    33   16   18 1   
    34   16   20 1   
    35   17   18 1   
    36   17   19 1   
    37   17   37 1   
    38   18   38 1   
    39   18   42 1   
    40   19   20 1   
    41   19   39 1   
    42   32   44 1   
    43   33   41 1   
    44   42   43 1   
    45   42   44 1   
    46   42   45 1   
@<TRIPOS>SUBSTRUCTURE
     1 TUR         1 TEMP              0 ****  ****    0 ROOT
