@<TRIPOS>MOLECULE
TUX
   72    72     1     0     0
SMALL
bcc


@<TRIPOS>ATOM
      1 C3G         0.1790   -0.1320   -0.0080 c3        1 TUX      0.157100
      2 C4G         1.7040   -0.3920   -0.0570 c3        1 TUX      0.121100
      3 C5G         2.4180   -0.1030    1.2670 c3        1 TUX      0.054100
      4 C2G        -0.2470    1.0490    0.8690 c3        1 TUX     -0.120700
      5 C1G         0.6350    1.1800    2.1170 c3        1 TUX      0.133400
      6 O5G         2.0080    1.1620    1.7870 os        1 TUX     -0.391600
      7 O3G        -0.1190    0.1450   -1.3970 os        1 TUX     -0.421900
      8 O1A        -2.2440   -0.4540   -1.1300 o         1 TUX     -0.683000
      9 C1A        -1.3130   -0.2250   -1.9230 c         1 TUX      0.695100
     10 C2A        -1.3390   -0.2340   -3.4190 c3        1 TUX     -0.131400
     11 C3A        -1.8360   -1.5700   -3.9370 c3        1 TUX     -0.077400
     12 C4A        -1.9710   -1.5340   -5.4450 c3        1 TUX     -0.080400
     13 C5A        -2.4530   -2.8680   -5.9770 c3        1 TUX     -0.078400
     14 C6A        -2.5950   -2.8350   -7.4840 c3        1 TUX     -0.079400
     15 C7A        -3.0770   -4.1670   -8.0170 c3        1 TUX     -0.078400
     16 C8A        -3.2200   -4.1350   -9.5230 c3        1 TUX     -0.079400
     17 C9A        -3.7030   -5.4670  -10.0570 c3        1 TUX     -0.078400
     18 CAA        -3.8460   -5.4350  -11.5630 c3        1 TUX     -0.079400
     19 CBA        -4.3290   -6.7660  -12.0970 c3        1 TUX     -0.079400
     20 CCA        -4.4730   -6.7340  -13.6040 c3        1 TUX     -0.079400
     21 CDA        -4.9550   -8.0660  -14.1390 c3        1 TUX     -0.079400
     22 CEA        -5.1000   -8.0380  -15.6390 c3        1 TUX     -0.093100
     23 CZH        -1.6840    0.8910    1.3670 c3        1 TUX     -0.128400
     24 CYH        -2.6770    1.5150    0.4470 c         1 TUX      0.622100
     25 OYH        -2.6220    2.4630   -0.3090 o         1 TUX     -0.406100
     26 NXH        -4.0950    0.8480    0.4580 n4        1 TUX     -0.480300
     27 OXH        -4.4580    0.6630    1.7440 oh        1 TUX     -0.364300
     28 O4G         1.8080   -1.7720   -0.3750 oh        1 TUX     -0.594800
     29 C6G         3.9360    0.0130    1.0650 c3        1 TUX      0.139400
     30 O6G         4.6010    0.0320    2.3050 oh        1 TUX     -0.578800
     31 H3G        -0.3480   -1.0770    0.3010 h1        1 TUX      0.091700
     32 H4G         2.1540    0.2370   -0.8770 h1        1 TUX      0.078700
     33 H5G         2.1940   -0.9150    2.0150 h1        1 TUX      0.079700
     34 H2G        -0.1440    1.9920    0.2610 hc        1 TUX      0.106700
     35 H1G1        0.3990    0.3610    2.8490 h1        1 TUX      0.067200
     36 H1G2        0.4810    2.1840    2.6000 h1        1 TUX      0.067200
     37 H2A2       -0.3110   -0.0190   -3.8170 hc        1 TUX      0.092700
     38 H2A3       -2.0220    0.5940   -3.7540 hc        1 TUX      0.092700
     39 H3A3       -2.8280   -1.8110   -3.4710 hc        1 TUX      0.056700
     40 H3A2       -1.1200   -2.3810   -3.6410 hc        1 TUX      0.056700
     41 H4A2       -2.6910   -0.7280   -5.7430 hc        1 TUX      0.047700
     42 H4A3       -0.9800   -1.2820   -5.9070 hc        1 TUX      0.047700
     43 H5A3       -1.7290   -3.6740   -5.6850 hc        1 TUX      0.043200
     44 H5A2       -3.4410   -3.1240   -5.5110 hc        1 TUX      0.043200
     45 H6A2       -1.6070   -2.5790   -7.9490 hc        1 TUX      0.042700
     46 H6A3       -3.3180   -2.0290   -7.7770 hc        1 TUX      0.042700
     47 H7A3       -4.0650   -4.4250   -7.5500 hc        1 TUX      0.041200
     48 H7A2       -2.3530   -4.9740   -7.7250 hc        1 TUX      0.041200
     49 H8A2       -2.2330   -3.8780   -9.9900 hc        1 TUX      0.041700
     50 H8A3       -3.9440   -3.3290   -9.8150 hc        1 TUX      0.041700
     51 H9A3       -2.9790   -6.2730   -9.7650 hc        1 TUX      0.040200
     52 H9A2       -4.6900   -5.7240   -9.5900 hc        1 TUX      0.040200
     53 HAA2       -4.5700   -4.6280  -11.8550 hc        1 TUX      0.040200
     54 HAA3       -2.8590   -5.1780  -12.0300 hc        1 TUX      0.040200
     55 HBA3       -3.6050   -7.5730  -11.8060 hc        1 TUX      0.040200
     56 HBA2       -5.3160   -7.0240  -11.6300 hc        1 TUX      0.040200
     57 HCA2       -5.1960   -5.9280  -13.8960 hc        1 TUX      0.040200
     58 HCA3       -3.4860   -6.4770  -14.0710 hc        1 TUX      0.040200
     59 HDA3       -4.2310   -8.8710  -13.8450 hc        1 TUX      0.038700
     60 HDA2       -5.9410   -8.3220  -13.6700 hc        1 TUX      0.038700
     61 HEA1       -5.4560   -9.0290  -16.0120 hc        1 TUX      0.034033
     62 HEA2       -5.8370   -7.2580  -15.9500 hc        1 TUX      0.034033
     63 HEA3       -4.1210   -7.8090  -16.1260 hc        1 TUX      0.034033
     64 HZH2       -1.8170    1.4120    2.3610 hc        1 TUX      0.116200
     65 HZH3       -1.9180   -0.1990    1.5220 hc        1 TUX      0.116200
     66 HNH1       -4.7660    1.4630   -0.0350 hn        1 TUX      0.476300
     67 HOH1       -5.3110    0.1720    1.7700 ho        1 TUX      0.471000
     68 HOG4        2.7350   -1.9480   -0.5840 ho        1 TUX      0.425000
     69 H6G2        4.3170   -0.9040    0.5420 h1        1 TUX      0.061700
     70 H6G3        4.1730    0.9310    0.4650 h1        1 TUX      0.061700
     71 HOG6        4.3590    0.8560    2.7490 ho        1 TUX      0.417000
     72 HXH2       -4.0110   -0.0590   -0.0490 hn        1 TUX      0.476300
@<TRIPOS>BOND
     1    1    2 1   
     2    1    4 1   
     3    1    7 1   
     4    1   31 1   
     5    2    3 1   
     6    2   28 1   
     7    2   32 1   
     8    3    6 1   
     9    3   29 1   
    10    3   33 1   
    11    4    5 1   
    12    4   23 1   
    13    4   34 1   
    14    5    6 1   
    15    5   35 1   
    16    5   36 1   
    17    7    9 1   
    18    8    9 2   
    19    9   10 1   
    20   10   11 1   
    21   10   37 1   
    22   10   38 1   
    23   11   12 1   
    24   11   39 1   
    25   11   40 1   
    26   12   13 1   
    27   12   41 1   
    28   12   42 1   
    29   13   14 1   
    30   13   43 1   
    31   13   44 1   
    32   14   15 1   
    33   14   45 1   
    34   14   46 1   
    35   15   16 1   
    36   15   47 1   
    37   15   48 1   
    38   16   17 1   
    39   16   49 1   
    40   16   50 1   
    41   17   18 1   
    42   17   51 1   
    43   17   52 1   
    44   18   19 1   
    45   18   53 1   
    46   18   54 1   
    47   19   20 1   
    48   19   55 1   
    49   19   56 1   
    50   20   21 1   
    51   20   57 1   
    52   20   58 1   
    53   21   22 1   
    54   21   59 1   
    55   21   60 1   
    56   22   61 1   
    57   22   62 1   
    58   22   63 1   
    59   23   24 1   
    60   23   64 1   
    61   23   65 1   
    62   24   25 2   
    63   24   26 1   
    64   26   27 1   
    65   26   66 1   
    66   26   72 1   
    67   27   67 1   
    68   28   68 1   
    69   29   30 1   
    70   29   69 1   
    71   29   70 1   
    72   30   71 1   
@<TRIPOS>SUBSTRUCTURE
     1 TUX         1 TEMP              0 ****  ****    0 ROOT
