@<TRIPOS>MOLECULE
TUX
   72    72     1     0     0
SMALL
bcc


@<TRIPOS>ATOM
      1 C3G         0.1680   -0.1690   -0.0140 c3        1 TUX      0.157100
      2 C4G         1.6970   -0.3980   -0.0910 c3        1 TUX      0.121100
      3 C5G         2.4290   -0.1180    1.2260 c3        1 TUX      0.053100
      4 C2G        -0.2690    0.9810    0.8980 c3        1 TUX     -0.119700
      5 C1G         0.6310    1.1030    2.1340 c3        1 TUX      0.133400
      6 O5G         1.9980    1.1260    1.7790 os        1 TUX     -0.391600
      7 O3G        -0.1550    0.1330   -1.3910 os        1 TUX     -0.422900
      8 O1A        -2.2700   -0.4910   -1.1050 o         1 TUX     -0.682000
      9 C1A        -1.3530   -0.2430   -1.9070 c         1 TUX      0.695100
     10 C2A        -1.3990   -0.2350   -3.4020 c3        1 TUX     -0.131400
     11 C3A        -1.8680   -1.5780   -3.9290 c3        1 TUX     -0.078400
     12 C4A        -2.0180   -1.5310   -5.4350 c3        1 TUX     -0.080400
     13 C5A        -2.4730   -2.8710   -5.9750 c3        1 TUX     -0.079400
     14 C6A        -2.6260   -2.8280   -7.4800 c3        1 TUX     -0.079400
     15 C7A        -3.0810   -4.1670   -8.0220 c3        1 TUX     -0.079400
     16 C8A        -3.2330   -4.1260   -9.5270 c3        1 TUX     -0.079400
     17 C9A        -3.6890   -5.4640  -10.0690 c3        1 TUX     -0.079400
     18 CAA        -3.8390   -5.4230  -11.5750 c3        1 TUX     -0.079400
     19 CBA        -4.2960   -6.7610  -12.1170 c3        1 TUX     -0.079400
     20 CCA        -4.4450   -6.7210  -13.6230 c3        1 TUX     -0.079400
     21 CDA        -4.9020   -8.0570  -14.1660 c3        1 TUX     -0.079400
     22 CEA        -5.0520   -8.0220  -15.6650 c3        1 TUX     -0.093100
     23 CZH        -1.6950    0.7800    1.4150 c3        1 TUX     -0.132400
     24 CYH        -2.7160    1.4220    0.5340 c         1 TUX      0.583100
     25 OYH        -2.6760    2.4130   -0.1670 o         1 TUX     -0.404100
     26 NXH        -4.1040    0.7220    0.5180 n4        1 TUX     -0.473300
     27 OXH        -4.6750    0.6660    1.7390 oh        1 TUX     -0.355300
     28 O4G         1.8230   -1.7700   -0.4340 oh        1 TUX     -0.594800
     29 C6G         3.9390    0.0390    0.9990 c3        1 TUX      0.139400
     30 O6G         4.6270    0.0450    2.2260 oh        1 TUX     -0.577800
     31 H3G        -0.3360   -1.1330    0.2800 h1        1 TUX      0.092700
     32 H4G         2.1210    0.2540   -0.9070 h1        1 TUX      0.078700
     33 H5G         2.2380   -0.9500    1.9610 h1        1 TUX      0.080700
     34 H2G        -0.1970    1.9400    0.3110 hc        1 TUX      0.106700
     35 H1G1        0.4270    0.2610    2.8490 h1        1 TUX      0.066200
     36 H1G2        0.4630    2.0910    2.6430 h1        1 TUX      0.066200
     37 H2A2       -2.1070    0.5780   -3.7190 hc        1 TUX      0.092200
     38 H2A3       -0.3810    0.0100   -3.8110 hc        1 TUX      0.092200
     39 H3A3       -1.1290   -2.3740   -3.6470 hc        1 TUX      0.057700
     40 H3A2       -2.8490   -1.8470   -3.4560 hc        1 TUX      0.057700
     41 H4A2       -2.7600   -0.7390   -5.7180 hc        1 TUX      0.047200
     42 H4A3       -1.0370   -1.2510   -5.9040 hc        1 TUX      0.047200
     43 H5A3       -1.7290   -3.6630   -5.6950 hc        1 TUX      0.043700
     44 H5A2       -3.4520   -3.1540   -5.5050 hc        1 TUX      0.043700
     45 H6A2       -1.6470   -2.5460   -7.9500 hc        1 TUX      0.042700
     46 H6A3       -3.3690   -2.0360   -7.7620 hc        1 TUX      0.042700
     47 H7A3       -2.3390   -4.9590   -7.7400 hc        1 TUX      0.041200
     48 H7A2       -4.0610   -4.4490   -7.5530 hc        1 TUX      0.041200
     49 H8A2       -2.2530   -3.8450   -9.9960 hc        1 TUX      0.041200
     50 H8A3       -3.9740   -3.3330   -9.8100 hc        1 TUX      0.041200
     51 H9A3       -2.9480   -6.2570   -9.7860 hc        1 TUX      0.040200
     52 H9A2       -4.6690   -5.7450   -9.6010 hc        1 TUX      0.040200
     53 HAA2       -2.8590   -5.1430  -12.0430 hc        1 TUX      0.040200
     54 HAA3       -4.5800   -4.6300  -11.8580 hc        1 TUX      0.040200
     55 HBA3       -5.2760   -7.0410  -11.6490 hc        1 TUX      0.040200
     56 HBA2       -3.5550   -7.5540  -11.8330 hc        1 TUX      0.040200
     57 HCA2       -3.4650   -6.4410  -14.0910 hc        1 TUX      0.040200
     58 HCA3       -5.1850   -5.9270  -13.9070 hc        1 TUX      0.040200
     59 HDA3       -4.1610   -8.8500  -13.8800 hc        1 TUX      0.038700
     60 HDA2       -5.8820   -8.3370  -13.6960 hc        1 TUX      0.038700
     61 HEA1       -4.0790   -7.7700  -16.1530 hc        1 TUX      0.034033
     62 HEA2       -5.8040   -7.2550  -15.9690 hc        1 TUX      0.034033
     63 HEA3       -5.3890   -9.0170  -16.0450 hc        1 TUX      0.034033
     64 HZH2       -1.8120    1.2620    2.4300 hc        1 TUX      0.113700
     65 HZH3       -1.9040   -0.3200    1.5340 hc        1 TUX      0.113700
     66 HNH1       -4.7250    1.1750   -0.1760 hn        1 TUX      0.490800
     67 HOH1       -4.9570    1.5730    1.9980 ho        1 TUX      0.468000
     68 HOG4        2.7480   -1.9240   -0.6650 ho        1 TUX      0.425000
     69 H6G2        4.3310   -0.8570    0.4480 h1        1 TUX      0.062200
     70 H6G3        4.1430    0.9760    0.4150 h1        1 TUX      0.062200
     71 HOG6        4.3770    0.8550    2.6920 ho        1 TUX      0.416000
     72 HXH2       -3.9540   -0.2740    0.2280 hn        1 TUX      0.490800
@<TRIPOS>BOND
     1    1    2 1   
     2    1    4 1   
     3    1    7 1   
     4    1   31 1   
     5    2    3 1   
     6    2   28 1   
     7    2   32 1   
     8    3    6 1   
     9    3   29 1   
    10    3   33 1   
    11    4    5 1   
    12    4   23 1   
    13    4   34 1   
    14    5    6 1   
    15    5   35 1   
    16    5   36 1   
    17    7    9 1   
    18    8    9 2   
    19    9   10 1   
    20   10   11 1   
    21   10   37 1   
    22   10   38 1   
    23   11   12 1   
    24   11   39 1   
    25   11   40 1   
    26   12   13 1   
    27   12   41 1   
    28   12   42 1   
    29   13   14 1   
    30   13   43 1   
    31   13   44 1   
    32   14   15 1   
    33   14   45 1   
    34   14   46 1   
    35   15   16 1   
    36   15   47 1   
    37   15   48 1   
    38   16   17 1   
    39   16   49 1   
    40   16   50 1   
    41   17   18 1   
    42   17   51 1   
    43   17   52 1   
    44   18   19 1   
    45   18   53 1   
    46   18   54 1   
    47   19   20 1   
    48   19   55 1   
    49   19   56 1   
    50   20   21 1   
    51   20   57 1   
    52   20   58 1   
    53   21   22 1   
    54   21   59 1   
    55   21   60 1   
    56   22   61 1   
    57   22   62 1   
    58   22   63 1   
    59   23   24 1   
    60   23   64 1   
    61   23   65 1   
    62   24   25 2   
    63   24   26 1   
    64   26   27 1   
    65   26   66 1   
    66   26   72 1   
    67   27   67 1   
    68   28   68 1   
    69   29   30 1   
    70   29   69 1   
    71   29   70 1   
    72   30   71 1   
@<TRIPOS>SUBSTRUCTURE
     1 TUX         1 TEMP              0 ****  ****    0 ROOT
