@<TRIPOS>MOLECULE
TUX
   72    72     1     0     0
SMALL
bcc


@<TRIPOS>ATOM
      1 C3G         0.1740   -0.1480   -0.0090 c3        1 TUX      0.157100
      2 C4G         1.6970   -0.4150   -0.0690 c3        1 TUX      0.121100
      3 C5G         2.4210   -0.1390    1.2520 c3        1 TUX      0.054100
      4 C2G        -0.2410    1.0290    0.8790 c3        1 TUX     -0.120700
      5 C1G         0.6500    1.1470    2.1230 c3        1 TUX      0.133400
      6 O5G         2.0210    1.1250    1.7830 os        1 TUX     -0.391600
      7 O3G        -0.1320    0.1390   -1.3940 os        1 TUX     -0.421900
      8 O1A        -2.2590   -0.4520   -1.1170 o         1 TUX     -0.683000
      9 C1A        -1.3310   -0.2220   -1.9150 c         1 TUX      0.695100
     10 C2A        -1.3670   -0.2220   -3.4100 c3        1 TUX     -0.131400
     11 C3A        -1.8510   -1.5610   -3.9330 c3        1 TUX     -0.077400
     12 C4A        -1.9940   -1.5200   -5.4400 c3        1 TUX     -0.080400
     13 C5A        -2.4630   -2.8560   -5.9760 c3        1 TUX     -0.078400
     14 C6A        -2.6120   -2.8180   -7.4820 c3        1 TUX     -0.079400
     15 C7A        -3.0800   -4.1540   -8.0190 c3        1 TUX     -0.078400
     16 C8A        -3.2290   -4.1160   -9.5250 c3        1 TUX     -0.079400
     17 C9A        -3.6970   -5.4510  -10.0630 c3        1 TUX     -0.079400
     18 CAA        -3.8470   -5.4140  -11.5690 c3        1 TUX     -0.079400
     19 CBA        -4.3140   -6.7490  -12.1070 c3        1 TUX     -0.079400
     20 CCA        -4.4640   -6.7120  -13.6130 c3        1 TUX     -0.079400
     21 CDA        -4.9310   -8.0470  -14.1530 c3        1 TUX     -0.079400
     22 CEA        -5.0820   -8.0150  -15.6520 c3        1 TUX     -0.093100
     23 CZH        -1.6760    0.8750    1.3840 c3        1 TUX     -0.128400
     24 CYH        -2.6710    1.5090    0.4750 c         1 TUX      0.622100
     25 OYH        -2.6160    2.4620   -0.2750 o         1 TUX     -0.406100
     26 NXH        -4.0930    0.8490    0.4910 ny        1 TUX     -0.480300
     27 OXH        -4.4490    0.6590    1.7780 oh        1 TUX     -0.364300
     28 O4G         1.7930   -1.7930   -0.3980 oh        1 TUX     -0.594800
     29 C6G         3.9380   -0.0280    1.0420 c3        1 TUX      0.139400
     30 O6G         4.6110   -0.0210    2.2770 oh        1 TUX     -0.578800
     31 H3G        -0.3560   -1.0930    0.2980 h1        1 TUX      0.091700
     32 H4G         2.1450    0.2180   -0.8880 h1        1 TUX      0.078700
     33 H5G         2.1970   -0.9540    1.9960 h1        1 TUX      0.079700
     34 H2G        -0.1370    1.9760    0.2770 hc        1 TUX      0.106700
     35 H1G1        0.4140    0.3240    2.8500 h1        1 TUX      0.067200
     36 H1G2        0.5040    2.1480    2.6130 h1        1 TUX      0.067200
     37 H2A2       -0.3440    0.0060   -3.8130 hc        1 TUX      0.092700
     38 H2A3       -2.0610    0.5990   -3.7360 hc        1 TUX      0.092700
     39 H3A3       -1.1240   -2.3650   -3.6440 hc        1 TUX      0.056700
     40 H3A2       -2.8370   -1.8160   -3.4630 hc        1 TUX      0.056700
     41 H4A2       -2.7250   -0.7200   -5.7300 hc        1 TUX      0.047700
     42 H4A3       -1.0080   -1.2530   -5.9050 hc        1 TUX      0.047700
     43 H5A3       -1.7280   -3.6550   -5.6910 hc        1 TUX      0.043200
     44 H5A2       -3.4460   -3.1270   -5.5070 hc        1 TUX      0.043200
     45 H6A2       -3.3460   -2.0190   -7.7680 hc        1 TUX      0.042700
     46 H6A3       -1.6290   -2.5480   -7.9500 hc        1 TUX      0.042700
     47 H7A3       -4.0620   -4.4250   -7.5500 hc        1 TUX      0.041200
     48 H7A2       -2.3450   -4.9520   -7.7340 hc        1 TUX      0.041200
     49 H8A2       -2.2470   -3.8450   -9.9940 hc        1 TUX      0.041700
     50 H8A3       -3.9640   -3.3170   -9.8100 hc        1 TUX      0.041700
     51 H9A3       -2.9620   -6.2500   -9.7780 hc        1 TUX      0.040200
     52 H9A2       -4.6790   -5.7230   -9.5940 hc        1 TUX      0.040200
     53 HAA2       -4.5820   -4.6160  -11.8540 hc        1 TUX      0.040200
     54 HAA3       -2.8650   -5.1420  -12.0380 hc        1 TUX      0.040200
     55 HBA3       -3.5790   -7.5480  -11.8220 hc        1 TUX      0.040200
     56 HBA2       -5.2960   -7.0220  -11.6380 hc        1 TUX      0.040200
     57 HCA2       -5.1990   -5.9140  -13.8980 hc        1 TUX      0.040200
     58 HCA3       -3.4820   -6.4400  -14.0820 hc        1 TUX      0.040200
     59 HDA3       -4.1950   -8.8440  -13.8650 hc        1 TUX      0.038700
     60 HDA2       -5.9120   -8.3190  -13.6810 hc        1 TUX      0.038700
     61 HEA1       -5.8290   -7.2430  -15.9570 hc        1 TUX      0.034033
     62 HEA2       -5.4260   -9.0080  -16.0280 hc        1 TUX      0.034033
     63 HEA3       -4.1080   -7.7710  -16.1410 hc        1 TUX      0.034033
     64 HZH2       -1.9130   -0.2150    1.5350 hc        1 TUX      0.116200
     65 HZH3       -1.8000    1.3900    2.3830 hc        1 TUX      0.116200
     66 HNH1       -4.0160   -0.0540   -0.0220 hn        1 TUX      0.476300
     67 HOH1       -5.3040    0.1720    1.8060 ho        1 TUX      0.471000
     68 HOG4        2.7170   -1.9720   -0.6140 ho        1 TUX      0.425000
     69 H6G2        4.3120   -0.9440    0.5100 h1        1 TUX      0.061700
     70 H6G3        4.1760    0.8930    0.4460 h1        1 TUX      0.061700
     71 HOG6        4.3760    0.8000    2.7280 ho        1 TUX      0.417000
     72 HXH2       -4.7630    1.4710    0.0050 hn        1 TUX      0.476300
@<TRIPOS>BOND
     1    1    2 1   
     2    1    4 1   
     3    1    7 1   
     4    1   31 1   
     5    2    3 1   
     6    2   28 1   
     7    2   32 1   
     8    3    6 1   
     9    3   29 1   
    10    3   33 1   
    11    4    5 1   
    12    4   23 1   
    13    4   34 1   
    14    5    6 1   
    15    5   35 1   
    16    5   36 1   
    17    7    9 1   
    18    8    9 2   
    19    9   10 1   
    20   10   11 1   
    21   10   37 1   
    22   10   38 1   
    23   11   12 1   
    24   11   39 1   
    25   11   40 1   
    26   12   13 1   
    27   12   41 1   
    28   12   42 1   
    29   13   14 1   
    30   13   43 1   
    31   13   44 1   
    32   14   15 1   
    33   14   45 1   
    34   14   46 1   
    35   15   16 1   
    36   15   47 1   
    37   15   48 1   
    38   16   17 1   
    39   16   49 1   
    40   16   50 1   
    41   17   18 1   
    42   17   51 1   
    43   17   52 1   
    44   18   19 1   
    45   18   53 1   
    46   18   54 1   
    47   19   20 1   
    48   19   55 1   
    49   19   56 1   
    50   20   21 1   
    51   20   57 1   
    52   20   58 1   
    53   21   22 1   
    54   21   59 1   
    55   21   60 1   
    56   22   61 1   
    57   22   62 1   
    58   22   63 1   
    59   23   24 1   
    60   23   64 1   
    61   23   65 1   
    62   24   25 2   
    63   24   26 1   
    64   26   27 1   
    65   26   66 1   
    66   26   72 1   
    67   27   67 1   
    68   28   68 1   
    69   29   30 1   
    70   29   69 1   
    71   29   70 1   
    72   30   71 1   
@<TRIPOS>SUBSTRUCTURE
     1 TUX         1 TEMP              0 ****  ****    0 ROOT
