@<TRIPOS>MOLECULE
TUX
   71    71     1     0     0
SMALL
bcc


@<TRIPOS>ATOM
      1 C3G         0.6770    0.2740   -4.0290 c3        1 TUX      0.152100
      2 C4G         2.0970   -0.2470   -4.3270 c3        1 TUX      0.112100
      3 C5G         2.5260    0.1020   -5.7590 c3        1 TUX      0.061100
      4 C2G        -0.3010   -0.1040   -5.1450 c3        1 TUX     -0.105700
      5 C1G         0.2840    0.2450   -6.5100 c3        1 TUX      0.129400
      6 O5G         1.5570   -0.3530   -6.7040 os        1 TUX     -0.413600
      7 O3G         0.2830   -0.4060   -2.8230 os        1 TUX     -0.439900
      8 O1A        -0.6140    1.4880   -2.0270 o         1 TUX     -0.549000
      9 C1A        -0.2890    0.3180   -1.8120 c         1 TUX      0.642100
     10 C2A        -0.4750   -0.4950   -0.5680 c3        1 TUX     -0.126400
     11 C3A        -0.1170    0.3140    0.6610 c3        1 TUX     -0.079400
     12 C4A        -0.4280   -0.4620    1.9220 c3        1 TUX     -0.078400
     13 C5A        -0.0560    0.3330    3.1550 c3        1 TUX     -0.079400
     14 C6A        -0.3690   -0.4380    4.4200 c3        1 TUX     -0.079400
     15 C7A         0.0030    0.3560    5.6530 c3        1 TUX     -0.079400
     16 C8A        -0.3100   -0.4140    6.9180 c3        1 TUX     -0.079400
     17 C9A         0.0630    0.3800    8.1510 c3        1 TUX     -0.079400
     18 CAA        -0.2500   -0.3900    9.4160 c3        1 TUX     -0.078400
     19 CBA         0.1230    0.4040   10.6500 c3        1 TUX     -0.079400
     20 CCA        -0.1900   -0.3660   11.9140 c3        1 TUX     -0.079400
     21 CDA         0.1830    0.4270   13.1490 c3        1 TUX     -0.080400
     22 CEA        -0.1270   -0.3370   14.4110 c3        1 TUX     -0.092100
     23 CZH        -1.6250    0.6160   -4.9460 c3        1 TUX     -0.156400
     24 CYH        -2.7450   -0.0140   -5.7400 c         1 TUX      0.590100
     25 OYH        -2.5990   -1.0040   -6.4750 o         1 TUX     -0.563100
     26 NXH        -3.9990    0.6790   -5.7220 n         1 TUX     -0.354400
     27 OXH        -5.0520   -0.0650   -6.0700 oh        1 TUX     -0.436100
     28 O4G         2.9480    0.4030   -3.3940 oh        1 TUX     -0.589800
     29 C6G         3.8280   -0.6120   -6.1390 c3        1 TUX      0.137400
     30 O6G         4.2670   -0.2250   -7.4220 oh        1 TUX     -0.592800
     31 H3G         0.7010    1.3870   -3.8650 h1        1 TUX      0.097700
     32 H4G         2.1230   -1.3620   -4.1760 h1        1 TUX      0.064700
     33 H5G         2.6540    1.2160   -5.8580 h1        1 TUX      0.069700
     34 H2G        -0.4740   -1.2170   -5.1050 hc        1 TUX      0.097700
     35 H1G1       -0.3530   -0.1950   -7.3250 h1        1 TUX      0.065200
     36 H1G2        0.3640    1.3580   -6.6350 h1        1 TUX      0.065200
     37 H2A2        0.1520   -1.4230   -0.6250 hc        1 TUX      0.078700
     38 H2A3       -1.5530   -0.8080   -0.5290 hc        1 TUX      0.078700
     39 H3A3       -0.6890    1.2800    0.6530 hc        1 TUX      0.059200
     40 H3A2        0.9740    0.5740    0.6350 hc        1 TUX      0.059200
     41 H4A2        0.1340   -1.4330    1.9170 hc        1 TUX      0.041700
     42 H4A3       -1.5210   -0.7120    1.9520 hc        1 TUX      0.041700
     43 H5A3       -0.6150    1.3060    3.1590 hc        1 TUX      0.043200
     44 H5A2        1.0380    0.5810    3.1270 hc        1 TUX      0.043200
     45 H6A2        0.1900   -1.4110    4.4160 hc        1 TUX      0.039700
     46 H6A3       -1.4630   -0.6850    4.4480 hc        1 TUX      0.039700
     47 H7A3       -0.5550    1.3290    5.6570 hc        1 TUX      0.040700
     48 H7A2        1.0970    0.6040    5.6250 hc        1 TUX      0.040700
     49 H8A2        0.2490   -1.3870    6.9140 hc        1 TUX      0.039700
     50 H8A3       -1.4040   -0.6620    6.9460 hc        1 TUX      0.039700
     51 H9A3       -0.4960    1.3530    8.1550 hc        1 TUX      0.039700
     52 H9A2        1.1570    0.6280    8.1230 hc        1 TUX      0.039700
     53 HAA2        0.3090   -1.3630    9.4120 hc        1 TUX      0.039700
     54 HAA3       -1.3440   -0.6380    9.4450 hc        1 TUX      0.039700
     55 HBA3       -0.4360    1.3770   10.6540 hc        1 TUX      0.039700
     56 HBA2        1.2170    0.6520   10.6210 hc        1 TUX      0.039700
     57 HCA2        0.3690   -1.3390   11.9110 hc        1 TUX      0.039700
     58 HCA3       -1.2840   -0.6150   11.9440 hc        1 TUX      0.039700
     59 HDA3       -0.3760    1.4000   13.1500 hc        1 TUX      0.038700
     60 HDA2        1.2760    0.6750   13.1170 hc        1 TUX      0.038700
     61 HEA1        0.1550    0.2660   15.3080 hc        1 TUX      0.032700
     62 HEA2       -1.2170   -0.5720   14.4720 hc        1 TUX      0.032700
     63 HEA3        0.4400   -1.2980   14.4390 hc        1 TUX      0.032700
     64 HZH2       -1.5210    1.6960   -5.2380 hc        1 TUX      0.083200
     65 HZH3       -1.8970    0.5900   -3.8550 hc        1 TUX      0.083200
     66 HNH1       -4.2030    1.0960   -4.8210 hn        1 TUX      0.299500
     67 HOH1       -4.9720   -0.2050   -7.0350 ho        1 TUX      0.436000
     68 HOG4        3.7960   -0.0550   -3.4240 ho        1 TUX      0.406000
     69 H6G2        3.6810   -1.7240   -6.0950 h1        1 TUX      0.051700
     70 H6G3        4.6500   -0.3000   -5.4420 h1        1 TUX      0.051700
     71 HOG6        3.5510   -0.4260   -8.0400 ho        1 TUX      0.418000
@<TRIPOS>BOND
     1    1    2 1   
     2    1    4 1   
     3    1    7 1   
     4    1   31 1   
     5    2    3 1   
     6    2   28 1   
     7    2   32 1   
     8    3    6 1   
     9    3   29 1   
    10    3   33 1   
    11    4    5 1   
    12    4   23 1   
    13    4   34 1   
    14    5    6 1   
    15    5   35 1   
    16    5   36 1   
    17    7    9 1   
    18    8    9 2   
    19    9   10 1   
    20   10   11 1   
    21   10   37 1   
    22   10   38 1   
    23   11   12 1   
    24   11   39 1   
    25   11   40 1   
    26   12   13 1   
    27   12   41 1   
    28   12   42 1   
    29   13   14 1   
    30   13   43 1   
    31   13   44 1   
    32   14   15 1   
    33   14   45 1   
    34   14   46 1   
    35   15   16 1   
    36   15   47 1   
    37   15   48 1   
    38   16   17 1   
    39   16   49 1   
    40   16   50 1   
    41   17   18 1   
    42   17   51 1   
    43   17   52 1   
    44   18   19 1   
    45   18   53 1   
    46   18   54 1   
    47   19   20 1   
    48   19   55 1   
    49   19   56 1   
    50   20   21 1   
    51   20   57 1   
    52   20   58 1   
    53   21   22 1   
    54   21   59 1   
    55   21   60 1   
    56   22   61 1   
    57   22   62 1   
    58   22   63 1   
    59   23   24 1   
    60   23   64 1   
    61   23   65 1   
    62   24   25 2   
    63   24   26 1   
    64   26   27 1   
    65   26   66 1   
    66   27   67 1   
    67   28   68 1   
    68   29   30 1   
    69   29   69 1   
    70   29   70 1   
    71   30   71 1   
@<TRIPOS>SUBSTRUCTURE
     1 TUX         1 TEMP              0 ****  ****    0 ROOT
