@<TRIPOS>MOLECULE
TUX
   71    71     1     0     0
SMALL
bcc


@<TRIPOS>ATOM
      1 C3G         1.7340    2.9250    4.9560 c3        1 TUX      0.152100
      2 C4G         3.2180    2.9350    4.9210 c3        1 TUX      0.112100
      3 C5G         3.8290    2.9560    6.3080 c3        1 TUX      0.061100
      4 C2G         1.1890    4.0060    5.8040 c3        1 TUX     -0.105700
      5 C1G         1.8200    4.0240    7.2020 c3        1 TUX      0.129400
      6 O5G         3.2760    4.0310    7.1550 os        1 TUX     -0.413600
      7 O3G         1.2250    3.0930    3.5790 os        1 TUX     -0.439900
      8 O1A         1.0150    0.7720    3.4750 o         1 TUX     -0.549000
      9 C1A         1.0140    1.8270    2.8610 c         1 TUX      0.642100
     10 C2A         0.6430    1.8440    1.3340 c3        1 TUX     -0.126400
     11 C3A         0.3020    0.4460    0.8850 c3        1 TUX     -0.079400
     12 C4A        -0.1440    0.4790   -0.6440 c3        1 TUX     -0.078400
     13 C5A        -0.3190   -0.9690   -1.1710 c3        1 TUX     -0.079400
     14 C6A        -0.7820   -0.9270   -2.6130 c3        1 TUX     -0.079400
     15 C7A        -0.8910   -2.3450   -3.1470 c3        1 TUX     -0.079400
     16 C8A        -1.4690   -2.3190   -4.5620 c3        1 TUX     -0.079400
     17 C9A        -1.5260   -3.8010   -5.1410 c3        1 TUX     -0.079400
     18 CAA        -2.0440   -3.7580   -6.6350 c3        1 TUX     -0.078400
     19 CBA        -2.0790   -5.1630   -7.2070 c3        1 TUX     -0.079400
     20 CCA        -2.6280   -5.1180   -8.5820 c3        1 TUX     -0.079400
     21 CDA        -2.7620   -6.5840   -9.1400 c3        1 TUX     -0.080400
     22 CEA        -3.2520   -6.5410  -10.5850 c3        1 TUX     -0.092100
     23 CZH        -0.3370    3.7990    5.9590 c3        1 TUX     -0.156400
     24 CYH        -0.9740    5.0930    6.2850 c         1 TUX      0.590100
     25 OYH        -0.4170    6.1320    5.9980 o         1 TUX     -0.563100
     26 NXH        -2.2120    5.1200    6.9930 n         1 TUX     -0.354400
     27 OXH        -2.8820    6.3000    7.1480 oh        1 TUX     -0.436100
     28 O4G         3.6750    1.7660    4.2350 oh        1 TUX     -0.589800
     29 C6G         5.3090    3.1540    6.1790 c3        1 TUX      0.137400
     30 O6G         5.8770    3.4130    7.4740 oh        1 TUX     -0.592800
     31 H3G         1.4350    2.0810    5.2940 h1        1 TUX      0.097700
     32 H4G         3.5260    3.7520    4.4180 h1        1 TUX      0.064700
     33 H5G         3.6580    2.0840    6.7440 h1        1 TUX      0.069700
     34 H2G         1.3560    4.8720    5.3640 hc        1 TUX      0.097700
     35 H1G1        1.5170    4.8250    7.6740 h1        1 TUX      0.065200
     36 H1G2        1.5210    3.2370    7.6930 h1        1 TUX      0.065200
     37 H2A2       -0.1150    2.4200    1.1940 hc        1 TUX      0.078700
     38 H2A3        1.3920    2.1700    0.8250 hc        1 TUX      0.078700
     39 H3A3        1.0820   -0.1260    0.9850 hc        1 TUX      0.059200
     40 H3A2       -0.4440    0.0900    1.4410 hc        1 TUX      0.059200
     41 H4A2        0.5610    0.9490   -1.1880 hc        1 TUX      0.041700
     42 H4A3       -1.0550    0.9950   -0.7300 hc        1 TUX      0.041700
     43 H5A3        0.5390   -1.4420   -1.1180 hc        1 TUX      0.043200
     44 H5A2       -0.9790   -1.4350   -0.6300 hc        1 TUX      0.043200
     45 H6A2       -1.6440   -0.4960   -2.6620 hc        1 TUX      0.039700
     46 H6A3       -0.1330   -0.4220   -3.1490 hc        1 TUX      0.039700
     47 H7A3       -1.4760   -2.8620   -2.5680 hc        1 TUX      0.040700
     48 H7A2       -0.0230   -2.7470   -3.1640 hc        1 TUX      0.040700
     49 H8A2       -2.3730   -1.9440   -4.5400 hc        1 TUX      0.039700
     50 H8A3       -0.9060   -1.7710   -5.1310 hc        1 TUX      0.039700
     51 H9A3       -0.6010   -4.2090   -5.1140 hc        1 TUX      0.039700
     52 H9A2       -2.1290   -4.3330   -4.6060 hc        1 TUX      0.039700
     53 HAA2       -2.9540   -3.3710   -6.6570 hc        1 TUX      0.039700
     54 HAA3       -1.4360   -3.2000   -7.1760 hc        1 TUX      0.039700
     55 HBA3       -2.6580   -5.7430   -6.6360 hc        1 TUX      0.039700
     56 HBA2       -1.2050   -5.5150   -7.2290 hc        1 TUX      0.039700
     57 HCA2       -3.5060   -4.6900   -8.5680 hc        1 TUX      0.039700
     58 HCA3       -2.0670   -4.6400   -9.1170 hc        1 TUX      0.039700
     59 HDA3       -1.9060   -7.0190   -9.1050 hc        1 TUX      0.038700
     60 HDA2       -3.3740   -7.0600   -8.6190 hc        1 TUX      0.038700
     61 HEA1       -2.6210   -6.0210  -11.1320 hc        1 TUX      0.032700
     62 HEA2       -3.3110   -7.4280  -10.9260 hc        1 TUX      0.032700
     63 HEA3       -4.0980   -6.1370  -10.6170 hc        1 TUX      0.032700
     64 HZH2       -0.7000    3.4600    5.1420 hc        1 TUX      0.083200
     65 HZH3       -0.5060    3.1660    6.6750 hc        1 TUX      0.083200
     66 HNH1       -2.5730    4.3290    7.3370 hn        1 TUX      0.299500
     67 HOH1       -3.5780    6.1770    7.6760 ho        1 TUX      0.436000
     68 HOG4        4.3740    1.9590    3.7730 ho        1 TUX      0.406000
     69 H6G2        5.4870    3.9230    5.5820 h1        1 TUX      0.051700
     70 H6G3        5.7330    2.3090    5.7840 h1        1 TUX      0.051700
     71 HOG6        6.7790    3.2230    7.4560 ho        1 TUX      0.418000
@<TRIPOS>BOND
     1    1    2 1   
     2    1    4 1   
     3    1    7 1   
     4    1   31 1   
     5    2    3 1   
     6    2   28 1   
     7    2   32 1   
     8    3    6 1   
     9    3   29 1   
    10    3   33 1   
    11    4    5 1   
    12    4   23 1   
    13    4   34 1   
    14    5    6 1   
    15    5   35 1   
    16    5   36 1   
    17    7    9 1   
    18    8    9 2   
    19    9   10 1   
    20   10   11 1   
    21   10   37 1   
    22   10   38 1   
    23   11   12 1   
    24   11   39 1   
    25   11   40 1   
    26   12   13 1   
    27   12   41 1   
    28   12   42 1   
    29   13   14 1   
    30   13   43 1   
    31   13   44 1   
    32   14   15 1   
    33   14   45 1   
    34   14   46 1   
    35   15   16 1   
    36   15   47 1   
    37   15   48 1   
    38   16   17 1   
    39   16   49 1   
    40   16   50 1   
    41   17   18 1   
    42   17   51 1   
    43   17   52 1   
    44   18   19 1   
    45   18   53 1   
    46   18   54 1   
    47   19   20 1   
    48   19   55 1   
    49   19   56 1   
    50   20   21 1   
    51   20   57 1   
    52   20   58 1   
    53   21   22 1   
    54   21   59 1   
    55   21   60 1   
    56   22   61 1   
    57   22   62 1   
    58   22   63 1   
    59   23   24 1   
    60   23   64 1   
    61   23   65 1   
    62   24   25 2   
    63   24   26 1   
    64   26   27 1   
    65   26   66 1   
    66   27   67 1   
    67   28   68 1   
    68   29   30 1   
    69   29   69 1   
    70   29   70 1   
    71   30   71 1   
@<TRIPOS>SUBSTRUCTURE
     1 TUX         1 TEMP              0 ****  ****    0 ROOT
