@<TRIPOS>MOLECULE
TV2
   37    41     1     0     0
SMALL
bcc


@<TRIPOS>ATOM
      1 N5          0.0460   -0.1700    0.1250 nv        1 TV2     -0.846800
      2 C17         1.4330   -0.0430    0.0330 cc        1 TV2      0.690200
      3 N3          2.2940   -0.0120    1.1290 nd        1 TV2     -0.611100
      4 N1          3.5210   -0.0060    0.5770 na        1 TV2     -0.022800
      5 C7          3.4310   -0.0240   -0.8560 cd        1 TV2      0.029700
      6 N4          2.1300   -0.0390   -1.2230 nc        1 TV2     -0.404300
      7 C8          4.7920    0.0050    1.2100 cc        1 TV2      0.583800
      8 N2          5.9100    0.0110    0.5140 nd        1 TV2     -0.683000
      9 C4          5.8760   -0.0010   -0.8840 ca        1 TV2      0.410600
     10 C3          7.0970    0.0030   -1.6090 ca        1 TV2     -0.170300
     11 C2          7.0820   -0.0110   -2.9920 ca        1 TV2     -0.109000
     12 C1          5.8720   -0.0310   -3.7040 ca        1 TV2     -0.137000
     13 C6          4.6650   -0.0360   -3.0260 ca        1 TV2     -0.078000
     14 C5          4.6570   -0.0200   -1.6230 ca        1 TV2     -0.131300
     15 C9          4.7860    0.0120    2.7280 c3        1 TV2     -0.076400
     16 C10         6.1470    0.0060    3.3310 ca        1 TV2     -0.076300
     17 C11         6.7980    1.2130    3.5920 ca        1 TV2     -0.111000
     18 C12         8.0720    1.2640    4.1870 ca        1 TV2     -0.113000
     19 C13         8.6480    0.0500    4.5000 ca        1 TV2      0.061100
     20 C14         7.9910   -1.1800    4.2360 ca        1 TV2      0.054100
     21 C15         6.7430   -1.2340    3.6530 ca        1 TV2     -0.095000
     22 O2          9.8810   -0.2050    5.0900 os        1 TV2     -0.333900
     23 C16        10.0050   -1.6420    5.1960 c3        1 TV2      0.321200
     24 O1          8.8000   -2.2330    4.6560 os        1 TV2     -0.333900
     25 H5A        -0.3410    0.1930    0.9700 hn        1 TV2      0.411300
     26 H5B        -0.4410    0.1140   -0.6980 hn        1 TV2      0.411300
     27 H91C        4.2100   -0.8900    3.0760 hc        1 TV2      0.086200
     28 H92C        4.2230    0.9260    3.0670 hc        1 TV2      0.086200
     29 HA          8.0520    0.0170   -1.0610 ha        1 TV2      0.156000
     30 H2          8.0330   -0.0080   -3.5470 ha        1 TV2      0.139000
     31 H1          5.8880   -0.0440   -4.8040 ha        1 TV2      0.140000
     32 H6          3.7090   -0.0530   -3.5730 ha        1 TV2      0.158000
     33 H11         6.3090    2.1620    3.3230 ha        1 TV2      0.139000
     34 H15         6.2390   -2.1870    3.4450 ha        1 TV2      0.157000
     35 H12         8.5750    2.2170    4.3860 ha        1 TV2      0.156000
     36 H161       10.8730   -1.9720    4.5740 h2        1 TV2      0.072200
     37 H162       10.0830   -1.9150    6.2770 h2        1 TV2      0.072200
@<TRIPOS>BOND
     1    1    2 1   
     2    1   25 1   
     3    1   26 1   
     4    2    3 2   
     5    2    6 1   
     6    3    4 1   
     7    4    5 1   
     8    4    7 1   
     9    5    6 2   
    10    5   14 1   
    11    7    8 2   
    12    7   15 1   
    13    8    9 1   
    14    9   10 ar  
    15    9   14 ar  
    16   10   11 ar  
    17   10   29 1   
    18   11   12 ar  
    19   11   30 1   
    20   12   13 ar  
    21   12   31 1   
    22   13   14 ar  
    23   13   32 1   
    24   15   16 1   
    25   15   27 1   
    26   15   28 1   
    27   16   17 ar  
    28   16   21 ar  
    29   17   18 ar  
    30   17   33 1   
    31   18   19 ar  
    32   18   35 1   
    33   19   20 ar  
    34   19   22 1   
    35   20   21 ar  
    36   20   24 1   
    37   21   34 1   
    38   22   23 1   
    39   23   24 1   
    40   23   36 1   
    41   23   37 1   
@<TRIPOS>SUBSTRUCTURE
     1 TV2         1 TEMP              0 ****  ****    0 ROOT
