@<TRIPOS>MOLECULE
TV2
   38    42     1     0     0
SMALL
bcc


@<TRIPOS>ATOM
      1 N5          0.0080   -0.0200    0.0890 n4        1 TV2     -0.731600
      2 C17         1.4620   -0.0040    0.0010 cc        1 TV2      0.466200
      3 N3          2.3060    0.0250    1.1070 nd        1 TV2     -0.478100
      4 N1          3.5170    0.0300    0.5700 na        1 TV2      0.005200
      5 C7          3.4420    0.0050   -0.8680 cd        1 TV2      0.050700
      6 N4          2.1340   -0.0160   -1.2460 nc        1 TV2     -0.339300
      7 C8          4.8150    0.0550    1.2200 cc        1 TV2      0.571800
      8 N2          5.9070    0.0580    0.5080 nd        1 TV2     -0.614000
      9 C4          5.8860    0.0340   -0.8900 ca        1 TV2      0.404600
     10 C3          7.1090    0.0360   -1.6050 ca        1 TV2     -0.147300
     11 C2          7.0990    0.0120   -2.9920 ca        1 TV2     -0.086000
     12 C1          5.8930   -0.0140   -3.7080 ca        1 TV2     -0.108000
     13 C6          4.6790   -0.0170   -3.0360 ca        1 TV2     -0.076000
     14 C5          4.6660    0.0070   -1.6340 ca        1 TV2     -0.140300
     15 C9          4.7930    0.0820    2.7370 c3        1 TV2     -0.066400
     16 C10         6.1530    0.0410    3.3390 ca        1 TV2     -0.109300
     17 C11         6.8170    1.2320    3.6380 ca        1 TV2     -0.104000
     18 C12         8.0900    1.2480    4.2360 ca        1 TV2     -0.113000
     19 C13         8.6510    0.0180    4.5130 ca        1 TV2      0.081100
     20 C14         7.9770   -1.1980    4.2100 ca        1 TV2      0.061100
     21 C15         6.7300   -1.2170    3.6250 ca        1 TV2     -0.099000
     22 O2          9.8760   -0.2700    5.0940 os        1 TV2     -0.323900
     23 C16         9.9800   -1.7140    5.1660 c3        1 TV2      0.320200
     24 O1          8.7700   -2.2710    4.5970 os        1 TV2     -0.328900
     25 H5A        -0.3420   -0.8740   -0.3660 hn        1 TV2      0.481133
     26 H5B        -0.2870   -0.0040    1.0730 hn        1 TV2      0.481133
     27 H91C        4.1930   -0.8010    3.0950 hc        1 TV2      0.085700
     28 H92C        4.2580    1.0190    3.0580 hc        1 TV2      0.085700
     29 HA          8.0640    0.0560   -1.0530 ha        1 TV2      0.176000
     30 H2          8.0550    0.0140   -3.5410 ha        1 TV2      0.163000
     31 H1          5.9130   -0.0320   -4.8090 ha        1 TV2      0.162000
     32 H6          3.7300   -0.0370   -3.5950 ha        1 TV2      0.162000
     33 H11         6.3400    2.1970    3.4040 ha        1 TV2      0.138000
     34 H15         6.2130   -2.1570    3.3960 ha        1 TV2      0.154000
     35 H12         8.6040    2.1890    4.4700 ha        1 TV2      0.167000
     36 H161       10.0400   -2.0130    6.2420 h2        1 TV2      0.083700
     37 H162       10.8500   -2.0390    4.5430 h2        1 TV2      0.083700
     38 H53        -0.3640    0.8050   -0.4000 hn        1 TV2      0.481133
@<TRIPOS>BOND
     1    1    2 1   
     2    1   25 1   
     3    1   26 1   
     4    1   38 1   
     5    2    3 2   
     6    2    6 1   
     7    3    4 1   
     8    4    5 1   
     9    4    7 1   
    10    5    6 2   
    11    5   14 1   
    12    7    8 2   
    13    7   15 1   
    14    8    9 1   
    15    9   10 ar  
    16    9   14 ar  
    17   10   11 ar  
    18   10   29 1   
    19   11   12 ar  
    20   11   30 1   
    21   12   13 ar  
    22   12   31 1   
    23   13   14 ar  
    24   13   32 1   
    25   15   16 1   
    26   15   27 1   
    27   15   28 1   
    28   16   17 ar  
    29   16   21 ar  
    30   17   18 ar  
    31   17   33 1   
    32   18   19 ar  
    33   18   35 1   
    34   19   20 ar  
    35   19   22 1   
    36   20   21 ar  
    37   20   24 1   
    38   21   34 1   
    39   22   23 1   
    40   23   24 1   
    41   23   36 1   
    42   23   37 1   
@<TRIPOS>SUBSTRUCTURE
     1 TV2         1 TEMP              0 ****  ****    0 ROOT
