@<TRIPOS>MOLECULE
TV2
   37    41     1     0     0
SMALL
bcc


@<TRIPOS>ATOM
      1 N5          0.0450    0.1540    0.1250 nh        1 TV2     -0.845800
      2 C17         1.4330    0.0350    0.0330 cc        1 TV2      0.690200
      3 N3          2.2940    0.0120    1.1290 nd        1 TV2     -0.611100
      4 N1          3.5210    0.0110    0.5780 na        1 TV2     -0.022800
      5 C7          3.4320    0.0240   -0.8550 cd        1 TV2      0.029700
      6 N4          2.1300    0.0310   -1.2230 nc        1 TV2     -0.404300
      7 C8          4.7930    0.0090    1.2110 cc        1 TV2      0.583800
      8 N2          5.9100    0.0100    0.5140 nd        1 TV2     -0.683000
      9 C4          5.8770    0.0170   -0.8830 ca        1 TV2      0.410600
     10 C3          7.0980    0.0170   -1.6080 ca        1 TV2     -0.170300
     11 C2          7.0820    0.0260   -2.9910 ca        1 TV2     -0.109000
     12 C1          5.8730    0.0360   -3.7030 ca        1 TV2     -0.137000
     13 C6          4.6650    0.0360   -3.0260 ca        1 TV2     -0.078000
     14 C5          4.6570    0.0250   -1.6220 ca        1 TV2     -0.131300
     15 C9          4.7870    0.0060    2.7290 c3        1 TV2     -0.076400
     16 C10         6.1480   -0.0080    3.3320 ca        1 TV2     -0.076300
     17 C11         6.8020    1.1960    3.5990 ca        1 TV2     -0.110000
     18 C12         8.0760    1.2400    4.1940 ca        1 TV2     -0.113000
     19 C13         8.6490    0.0230    4.5010 ca        1 TV2      0.061100
     20 C14         7.9880   -1.2040    4.2300 ca        1 TV2      0.054100
     21 C15         6.7400   -1.2510    3.6470 ca        1 TV2     -0.096000
     22 O2          9.8810   -0.2390    5.0900 os        1 TV2     -0.333900
     23 C16        10.0000   -1.6770    5.1870 c3        1 TV2      0.321200
     24 O1          8.7940   -2.2610    4.6440 os        1 TV2     -0.334900
     25 H5A        -0.4390   -0.1350   -0.6980 hn        1 TV2      0.410800
     26 H5B        -0.3390   -0.2090    0.9710 hn        1 TV2      0.410800
     27 H91C        4.2080   -0.8960    3.0720 hc        1 TV2      0.086200
     28 H92C        4.2260    0.9200    3.0730 hc        1 TV2      0.086200
     29 HA          8.0530    0.0090   -1.0600 ha        1 TV2      0.156000
     30 H2          8.0340    0.0260   -3.5460 ha        1 TV2      0.139000
     31 H1          5.8880    0.0450   -4.8030 ha        1 TV2      0.140000
     32 H6          3.7090    0.0450   -3.5730 ha        1 TV2      0.158000
     33 H11         6.3150    2.1480    3.3360 ha        1 TV2      0.140000
     34 H15         6.2340   -2.2010    3.4330 ha        1 TV2      0.156000
     35 H12         8.5820    2.1910    4.3990 ha        1 TV2      0.156000
     36 H161       10.0770   -1.9560    6.2660 h2        1 TV2      0.072200
     37 H162       10.8680   -2.0060    4.5640 h2        1 TV2      0.072200
@<TRIPOS>BOND
     1    1    2 1   
     2    1   25 1   
     3    1   26 1   
     4    2    3 2   
     5    2    6 1   
     6    3    4 1   
     7    4    5 1   
     8    4    7 1   
     9    5    6 2   
    10    5   14 1   
    11    7    8 2   
    12    7   15 1   
    13    8    9 1   
    14    9   10 ar  
    15    9   14 ar  
    16   10   11 ar  
    17   10   29 1   
    18   11   12 ar  
    19   11   30 1   
    20   12   13 ar  
    21   12   31 1   
    22   13   14 ar  
    23   13   32 1   
    24   15   16 1   
    25   15   27 1   
    26   15   28 1   
    27   16   17 ar  
    28   16   21 ar  
    29   17   18 ar  
    30   17   33 1   
    31   18   19 ar  
    32   18   35 1   
    33   19   20 ar  
    34   19   22 1   
    35   20   21 ar  
    36   20   24 1   
    37   21   34 1   
    38   22   23 1   
    39   23   24 1   
    40   23   36 1   
    41   23   37 1   
@<TRIPOS>SUBSTRUCTURE
     1 TV2         1 TEMP              0 ****  ****    0 ROOT
