@<TRIPOS>MOLECULE
TV4
   41    42     1     0     0
SMALL
bcc


@<TRIPOS>ATOM
      1 N1          0.6620   -1.4330    0.2650 nb        1 TV4     -0.706000
      2 C2          1.5620   -0.4670   -0.1290 ca        1 TV4      0.653200
      3 C3          1.7780    0.6960    0.6760 ca        1 TV4     -0.192200
      4 C4          1.0960    0.8360    1.8850 ca        1 TV4     -0.048000
      5 C5          0.1960   -0.1650    2.2980 ca        1 TV4     -0.111700
      6 C6          0.0290   -1.2820    1.4250 ca        1 TV4      0.416200
      7 N7          2.3030   -0.6830   -1.2870 nv        1 TV4     -0.932500
      8 Br8         2.9610    2.0460    0.1510 br        1 TV4     -0.074100
      9 N9         -0.5600   -0.0990    3.4800 ns        1 TV4     -0.445100
     10 C10        -0.2620    0.6810    4.5860 c         1 TV4      0.683700
     11 O11         0.6620    1.5120    4.6140 o         1 TV4     -0.564100
     12 C12        -1.1690    0.5040    5.7660 ca        1 TV4     -0.196600
     13 C13        -1.4200   -0.7620    6.3290 ca        1 TV4      0.150900
     14 C14        -2.2260   -0.8790    7.4740 ca        1 TV4     -0.155000
     15 C15        -2.7920    0.2460    8.0550 ca        1 TV4     -0.111000
     16 C16        -2.5610    1.5330    7.5270 ca        1 TV4      0.111600
     17 C17        -1.7410    1.6450    6.3610 ca        1 TV4      0.160900
     18 F18        -1.5300    2.8620    5.8090 f         1 TV4     -0.113900
     19 F19        -0.8870   -1.8780    5.7780 f         1 TV4     -0.128900
     20 N20        -3.1210    2.6800    8.1030 nu        1 TV4     -0.773500
     21 S21        -3.4500    2.9660    9.6810 s6        1 TV4      1.458900
     22 O22        -4.2470    4.1250    9.7370 o         1 TV4     -0.642800
     23 O23        -3.9490    1.8080   10.3060 o         1 TV4     -0.642800
     24 C24        -1.9050    3.3160   10.3290 c3        1 TV4     -0.330600
     25 C25        -2.0040    3.6380   11.8060 c3        1 TV4     -0.056400
     26 C26        -0.6550    3.9500   12.3980 c3        1 TV4     -0.088100
     27 H4          1.2690    1.7260    2.5160 ha        1 TV4      0.188000
     28 H6         -0.6690   -2.1040    1.6770 h4        1 TV4      0.023100
     29 HN7         2.6510    0.1330   -1.7370 hn        1 TV4      0.421300
     30 HN7A        1.9940   -1.4090   -1.8930 hn        1 TV4      0.421300
     31 HN9        -1.2380   -0.8200    3.5970 hn        1 TV4      0.323500
     32 H14        -2.4110   -1.8760    7.9040 ha        1 TV4      0.167000
     33 H15        -3.4340    0.1160    8.9480 ha        1 TV4      0.191000
     34 HN20       -3.2810    3.4060    7.4350 hn        1 TV4      0.465800
     35 H24        -1.4190    4.1880    9.8150 h1        1 TV4      0.117200
     36 H24A       -1.1870    2.4620   10.2050 h1        1 TV4      0.117200
     37 H25        -2.4590    2.7630   12.3450 hc        1 TV4      0.061200
     38 H25A       -2.6890    4.5190   11.9460 hc        1 TV4      0.061200
     39 H26        -0.7600    4.1840   13.4860 hc        1 TV4      0.039367
     40 H26A        0.0360    3.0790   12.2880 hc        1 TV4      0.039367
     41 H26B       -0.1940    4.8310   11.8890 hc        1 TV4      0.039367
@<TRIPOS>BOND
     1    1    2 ar  
     2    1    6 ar  
     3    2    3 ar  
     4    2    7 1   
     5    3    4 ar  
     6    3    8 1   
     7    4    5 ar  
     8    4   27 1   
     9    5    6 ar  
    10    5    9 1   
    11    6   28 1   
    12    7   29 1   
    13    7   30 1   
    14    9   10 1   
    15    9   31 1   
    16   10   11 2   
    17   10   12 1   
    18   12   13 ar  
    19   12   17 ar  
    20   13   14 ar  
    21   13   19 1   
    22   14   15 ar  
    23   14   32 1   
    24   15   16 ar  
    25   15   33 1   
    26   16   17 ar  
    27   16   20 1   
    28   17   18 1   
    29   20   21 1   
    30   20   34 1   
    31   21   22 2   
    32   21   23 2   
    33   21   24 1   
    34   24   25 1   
    35   24   35 1   
    36   24   36 1   
    37   25   26 1   
    38   25   37 1   
    39   25   38 1   
    40   26   39 1   
    41   26   40 1   
    42   26   41 1   
@<TRIPOS>SUBSTRUCTURE
     1 TV4         1 TEMP              0 ****  ****    0 ROOT
