@<TRIPOS>MOLECULE
TV4
   41    42     1     0     0
SMALL
bcc


@<TRIPOS>ATOM
      1 N1          0.6580   -1.4270    0.2610 nb        1 TV4     -0.706000
      2 C2          1.5680   -0.4680   -0.1260 ca        1 TV4      0.653200
      3 C3          1.7910    0.6910    0.6840 ca        1 TV4     -0.192200
      4 C4          1.1060    0.8320    1.8900 ca        1 TV4     -0.048000
      5 C5          0.1960   -0.1610    2.2970 ca        1 TV4     -0.111700
      6 C6          0.0230   -1.2740    1.4210 ca        1 TV4      0.416200
      7 N7          2.3120   -0.6870   -1.2820 nh        1 TV4     -0.932500
      8 BR8         2.9880    2.0310    0.1670 br        1 TV4     -0.074100
      9 N9         -0.5630   -0.0930    3.4770 n         1 TV4     -0.445100
     10 C10        -0.2620    0.6810    4.5870 c         1 TV4      0.683700
     11 O11         0.6690    1.5030    4.6200 o         1 TV4     -0.564100
     12 C12        -1.1750    0.5080    5.7620 ca        1 TV4     -0.196600
     13 C13        -1.4400   -0.7570    6.3200 ca        1 TV4      0.150900
     14 C14        -2.2520   -0.8710    7.4620 ca        1 TV4     -0.155000
     15 C15        -2.8090    0.2580    8.0440 ca        1 TV4     -0.111000
     16 C16        -2.5630    1.5440    7.5220 ca        1 TV4      0.111600
     17 C17        -1.7380    1.6530    6.3590 ca        1 TV4      0.160900
     18 F18        -1.5140    2.8690    5.8130 f         1 TV4     -0.113900
     19 F19        -0.9160   -1.8770    5.7670 f         1 TV4     -0.128900
     20 N20        -3.1150    2.6950    8.1000 nh        1 TV4     -0.773500
     21 S21        -3.4470    2.9780    9.6780 s6        1 TV4      1.458900
     22 O22        -4.2320    4.1450    9.7350 o         1 TV4     -0.642800
     23 O23        -3.9590    1.8230   10.2960 o         1 TV4     -0.642800
     24 C24        -1.9000    3.3110   10.3320 c3        1 TV4     -0.330600
     25 C25        -2.0020    3.6290   11.8100 c3        1 TV4     -0.056400
     26 C26        -0.6510    3.9240   12.4080 c3        1 TV4     -0.088100
     27 H4          1.2850    1.7200    2.5240 ha        1 TV4      0.188000
     28 H6         -0.6830   -2.0910    1.6670 h4        1 TV4      0.023100
     29 HN7         2.6680    0.1270   -1.7280 hn        1 TV4      0.421300
     30 HN7A        1.9990   -1.4080   -1.8910 hn        1 TV4      0.421300
     31 HN9        -1.2480   -0.8080    3.5880 hn        1 TV4      0.323500
     32 H14        -2.4470   -1.8680    7.8880 ha        1 TV4      0.167000
     33 H15        -3.4550    0.1310    8.9350 ha        1 TV4      0.191000
     34 HN20       -3.2660    3.4250    7.4340 hn        1 TV4      0.465800
     35 H24        -1.4030    4.1790    9.8230 h1        1 TV4      0.117200
     36 H24A       -1.1910    2.4500   10.2080 h1        1 TV4      0.117200
     37 H25        -2.6780    4.5160   11.9510 hc        1 TV4      0.061200
     38 H25A       -2.4670    2.7560   12.3450 hc        1 TV4      0.061200
     39 H26         0.0310    3.0470   12.2970 hc        1 TV4      0.039367
     40 H26A       -0.1800    4.8020   11.9050 hc        1 TV4      0.039367
     41 H26B       -0.7580    4.1550   13.4960 hc        1 TV4      0.039367
@<TRIPOS>BOND
     1    1    2 ar  
     2    1    6 ar  
     3    2    3 ar  
     4    2    7 1   
     5    3    4 ar  
     6    3    8 1   
     7    4    5 ar  
     8    4   27 1   
     9    5    6 ar  
    10    5    9 1   
    11    6   28 1   
    12    7   29 1   
    13    7   30 1   
    14    9   10 1   
    15    9   31 1   
    16   10   11 2   
    17   10   12 1   
    18   12   13 ar  
    19   12   17 ar  
    20   13   14 ar  
    21   13   19 1   
    22   14   15 ar  
    23   14   32 1   
    24   15   16 ar  
    25   15   33 1   
    26   16   17 ar  
    27   16   20 1   
    28   17   18 1   
    29   20   21 1   
    30   20   34 1   
    31   21   22 2   
    32   21   23 2   
    33   21   24 1   
    34   24   25 1   
    35   24   35 1   
    36   24   36 1   
    37   25   26 1   
    38   25   37 1   
    39   25   38 1   
    40   26   39 1   
    41   26   40 1   
    42   26   41 1   
@<TRIPOS>SUBSTRUCTURE
     1 TV4         1 TEMP              0 ****  ****    0 ROOT
