@<TRIPOS>MOLECULE
TV4
   44    44     1     0     0
SMALL
bcc


@<TRIPOS>ATOM
      1 N1          0.3730    0.5930   -0.3210 nb        1 TV4     -0.600000
      2 C2          1.5260   -0.1180   -0.4820 ca        1 TV4      0.523200
      3 C3          2.0340   -1.0150    0.4900 ca        1 TV4     -0.118200
      4 C4          1.2900   -1.1680    1.6770 ca        1 TV4     -0.011000
      5 C5          0.1000   -0.4480    1.8480 ca        1 TV4     -0.113700
      6 C6         -0.3200    0.4360    0.8080 ca        1 TV4      0.487200
      7 N7          2.2520    0.0870   -1.7530 n4        1 TV4     -0.827300
      8 BR8         3.6090   -1.9720    0.2520 br        1 TV4      0.094900
      9 N9         -0.7080   -0.6030    3.0540 n4        1 TV4     -0.561200
     10 C10        -0.4490    0.4550    4.1470 c         1 TV4      0.583700
     11 O11         0.2950    1.3660    3.8410 o         1 TV4     -0.359100
     12 C12        -1.1650    0.2360    5.4080 ca        1 TV4     -0.275600
     13 C13        -1.2690   -1.0280    6.0410 ca        1 TV4      0.201900
     14 C14        -1.8840   -1.1480    7.2950 ca        1 TV4     -0.132000
     15 C15        -2.4090   -0.0290    7.9330 ca        1 TV4     -0.008000
     16 C16        -2.3360    1.2500    7.3440 ca        1 TV4      0.014600
     17 C17        -1.7040    1.3700    6.0730 ca        1 TV4      0.205900
     18 F18        -1.6180    2.5790    5.4820 f         1 TV4     -0.093900
     19 F19        -0.7590   -2.1260    5.4390 f         1 TV4     -0.119900
     20 N20        -2.8770    2.3840    8.0240 nh        1 TV4     -0.864200
     21 S21        -3.1100    2.6080   10.6920 s4        1 TV4      1.640500
     22 O22        -4.3180    3.0770   10.3310 o         1 TV4     -0.391900
     23 O23        -2.8090    1.2950   10.7100 o         1 TV4     -0.391900
     24 C24        -2.0070    3.6430   11.2020 c3        1 TV4     -0.547100
     25 C25        -2.3770    4.2690   12.5680 c3        1 TV4     -0.043400
     26 C26        -1.3420    5.2770   12.9920 c3        1 TV4     -0.106100
     27 H4          1.6670   -1.8660    2.4540 ha        1 TV4      0.209000
     28 H6         -1.2480    1.0480    0.8710 h4        1 TV4      0.090100
     29 HN7         2.3240   -0.8130   -2.2540 hn        1 TV4      0.499133
     30 HN7A        3.1990    0.4440   -1.5520 hn        1 TV4      0.499133
     31 HN9        -0.5320   -1.5390    3.4600 hn        1 TV4      0.484800
     32 H14        -1.9460   -2.1440    7.7760 ha        1 TV4      0.215000
     33 H15        -2.8860   -0.1640    8.9250 ha        1 TV4      0.205000
     34 HN20       -3.8820    2.3940    7.9000 hn        1 TV4      0.410300
     35 H24        -0.9620    3.2150   11.3470 h1        1 TV4      0.208700
     36 H24A       -1.8160    4.5380   10.5260 h1        1 TV4      0.208700
     37 H25        -3.3770    4.7740   12.4790 hc        1 TV4      0.081700
     38 H25A       -2.4400    3.4560   13.3400 hc        1 TV4      0.081700
     39 H26        -1.6300    5.7030   13.9880 hc        1 TV4      0.075367
     40 H26A       -0.3350    4.8030   13.0950 hc        1 TV4      0.075367
     41 H26B       -1.2720    6.1170   12.2600 hc        1 TV4      0.075367
     42 H73         1.7590    0.7670   -2.3590 hn        1 TV4      0.499133
     43 H92        -1.7050   -0.5500    2.7960 hn        1 TV4      0.484800
     44 H202       -2.5020    3.2330    7.6270 hn        1 TV4      0.410300
@<TRIPOS>BOND
     1    1    2 ar  
     2    1    6 ar  
     3    2    3 ar  
     4    2    7 1   
     5    3    4 ar  
     6    3    8 1   
     7    4    5 ar  
     8    4   27 1   
     9    5    6 ar  
    10    5    9 1   
    11    6   28 1   
    12    7   29 1   
    13    7   30 1   
    14    7   42 1   
    15    9   10 1   
    16    9   31 1   
    17    9   43 1   
    18   10   11 2   
    19   10   12 1   
    20   12   13 ar  
    21   12   17 ar  
    22   13   14 ar  
    23   13   19 1   
    24   14   15 ar  
    25   14   32 1   
    26   15   16 ar  
    27   15   33 1   
    28   16   17 ar  
    29   16   20 1   
    30   17   18 1   
    31   20   34 1   
    32   20   44 1   
    33   21   22 1   
    34   21   23 1   
    35   21   24 1   
    36   24   25 1   
    37   24   35 1   
    38   24   36 1   
    39   25   26 1   
    40   25   37 1   
    41   25   38 1   
    42   26   39 1   
    43   26   40 1   
    44   26   41 1   
@<TRIPOS>SUBSTRUCTURE
     1 TV4         1 TEMP              0 ****  ****    0 ROOT
