@<TRIPOS>MOLECULE
TV4
   41    42     1     0     0
SMALL
bcc


@<TRIPOS>ATOM
      1 N1          5.1280    1.8920   -0.9060 nb        1 TV4     -0.706000
      2 C2          5.6810    1.1630    0.1240 ca        1 TV4      0.653200
      3 C3          4.8480    0.4120    1.0120 ca        1 TV4     -0.192200
      4 C4          3.4680    0.3930    0.8130 ca        1 TV4     -0.048000
      5 C5          2.9060    1.1170   -0.2550 ca        1 TV4     -0.111700
      6 C6          3.8090    1.8520   -1.0810 ca        1 TV4      0.416200
      7 N7          7.0680    1.1180    0.2350 nh        1 TV4     -0.932500
      8 BR8         5.5630   -0.5550    2.4440 br        1 TV4     -0.074100
      9 N9          1.5280    1.1850   -0.5170 n         1 TV4     -0.445100
     10 C10         0.5770    0.2750   -0.0810 c         1 TV4      0.683700
     11 O11         0.8270   -0.6590    0.7000 o         1 TV4     -0.564100
     12 C12        -0.8180    0.5110   -0.5740 ca        1 TV4     -0.196600
     13 C13        -1.1110    0.6440   -1.9440 ca        1 TV4      0.150900
     14 C14        -2.4410    0.8010   -2.3710 ca        1 TV4     -0.155000
     15 C15        -3.4760    0.8370   -1.4490 ca        1 TV4     -0.111000
     16 C16        -3.2270    0.7000   -0.0680 ca        1 TV4      0.111600
     17 C17        -1.8720    0.5420    0.3590 ca        1 TV4      0.160900
     18 F18        -1.5970    0.4450    1.6800 f         1 TV4     -0.113900
     19 F19        -0.1200    0.6210   -2.8660 f         1 TV4     -0.128900
     20 N20        -4.2610    0.7300    0.8770 nh        1 TV4     -0.773500
     21 S21        -5.8030    0.2050    0.7110 s6        1 TV4      1.458900
     22 O22        -6.5290    0.6890    1.8150 o         1 TV4     -0.642800
     23 O23        -6.2980    0.5060   -0.5700 o         1 TV4     -0.642800
     24 C24        -5.6360   -1.4930    0.8500 c3        1 TV4     -0.330600
     25 C25        -6.9870   -2.1730    0.7450 c3        1 TV4     -0.056400
     26 C26        -6.8650   -3.6700    0.8640 c3        1 TV4     -0.088100
     27 H4          2.8210   -0.1960    1.4890 ha        1 TV4      0.188000
     28 H6          3.4420    2.4550   -1.9330 h4        1 TV4      0.023100
     29 HN7         7.5850    1.7870   -0.2890 hn        1 TV4      0.421300
     30 HN7A        7.4230    0.9140    1.1410 hn        1 TV4      0.421300
     31 HN9         1.2580    1.8210   -1.2350 hn        1 TV4      0.323500
     32 H14        -2.6550    0.9020   -3.4470 ha        1 TV4      0.167000
     33 H15        -4.5110    0.9760   -1.8180 ha        1 TV4      0.191000
     34 HN20       -3.9610    1.0830    1.7630 hn        1 TV4      0.465800
     35 H24        -4.9670   -1.9230    0.0580 h1        1 TV4      0.117200
     36 H24A       -5.1710   -1.7940    1.8260 h1        1 TV4      0.117200
     37 H25        -7.6600   -1.7850    1.5570 hc        1 TV4      0.061200
     38 H25A       -7.4560   -1.9110   -0.2420 hc        1 TV4      0.061200
     39 H26        -6.2160   -4.0790    0.0520 hc        1 TV4      0.039367
     40 H26A       -6.4190   -3.9530    1.8470 hc        1 TV4      0.039367
     41 H26B       -7.8740   -4.1420    0.7830 hc        1 TV4      0.039367
@<TRIPOS>BOND
     1    1    2 ar  
     2    1    6 ar  
     3    2    3 ar  
     4    2    7 1   
     5    3    4 ar  
     6    3    8 1   
     7    4    5 ar  
     8    4   27 1   
     9    5    6 ar  
    10    5    9 1   
    11    6   28 1   
    12    7   29 1   
    13    7   30 1   
    14    9   10 1   
    15    9   31 1   
    16   10   11 2   
    17   10   12 1   
    18   12   13 ar  
    19   12   17 ar  
    20   13   14 ar  
    21   13   19 1   
    22   14   15 ar  
    23   14   32 1   
    24   15   16 ar  
    25   15   33 1   
    26   16   17 ar  
    27   16   20 1   
    28   17   18 1   
    29   20   21 1   
    30   20   34 1   
    31   21   22 2   
    32   21   23 2   
    33   21   24 1   
    34   24   25 1   
    35   24   35 1   
    36   24   36 1   
    37   25   26 1   
    38   25   37 1   
    39   25   38 1   
    40   26   39 1   
    41   26   40 1   
    42   26   41 1   
@<TRIPOS>SUBSTRUCTURE
     1 TV4         1 TEMP              0 ****  ****    0 ROOT
