@<TRIPOS>MOLECULE
TVN
   71    71     1     0     0
SMALL
bcc


@<TRIPOS>ATOM
      1 OBH         0.0000    0.0000    0.0000 o         1 TVN     -0.217833
      2 PBF         1.6100    0.0000    0.0000 p5        1 TVN      0.916900
      3 OBI         2.1480    0.0000    1.5180 o         1 TVN     -0.217833
      4 OBG         2.1040    1.2080   -0.6980 o         1 TVN     -0.217833
      5 OBE         2.1460   -1.3150   -0.7590 os        1 TVN     -0.369500
      6 CBD         1.8360   -1.3560   -2.0810 ca        1 TVN      0.220100
      7 CBC         2.7030   -0.8080   -3.0160 ca        1 TVN     -0.118500
      8 CBB         2.3850   -0.8510   -4.3590 ca        1 TVN     -0.076000
      9 CBJ         0.6530   -1.9490   -2.4990 ca        1 TVN     -0.118500
     10 CBK         0.3400   -1.9890   -3.8440 ca        1 TVN     -0.076000
     11 CBA         1.2030   -1.4370   -4.7730 ca        1 TVN     -0.179300
     12 CAZ         0.8590   -1.4820   -6.2390 c3        1 TVN      0.037900
     13 CAF         2.8110   -2.9470   -6.7720 c3        1 TVN     -0.103400
     14 CAC         3.4290   -1.8050   -7.5360 c         1 TVN      0.317100
     15 OAD         2.7210   -1.0200   -8.1300 o         1 TVN     -0.395100
     16 NAB         4.7690   -1.6570   -7.5600 ny        1 TVN      0.168200
     17 CAA         5.3700   -0.5480   -8.3040 c3        1 TVN      0.016100
     18 CAG         1.2870   -2.8300   -6.8230 c3        1 TVN     -0.106700
     19 CAH         0.8240   -2.9280   -8.2540 c         1 TVN      0.319100
     20 OAI         0.2130   -2.0090   -8.7570 o         1 TVN     -0.390100
     21 NAJ         1.0910   -4.0340   -8.9750 ny        1 TVN      0.099200
     22 CAK         0.6400   -4.1290  -10.3660 c3        1 TVN     -0.092500
     23 CAW         1.6710   -3.4640  -11.2810 c3        1 TVN     -0.051700
     24 CAX         3.0470   -4.0860  -11.0380 c3        1 TVN     -0.017600
     25 CAY         1.7280   -1.9650  -10.9790 c3        1 TVN     -0.017600
     26 CAL         0.4910   -5.5790  -10.7480 c         1 TVN      0.111100
     27 OAM         1.0650   -6.4360  -10.1100 o         1 TVN     -0.690100
     28 NAN        -0.2790   -5.9230  -11.7990 ny        1 TVN     -0.073800
     29 CAO        -0.5080   -7.3360  -12.1090 c3        1 TVN     -0.072500
     30 CAT        -1.8250   -7.4850  -12.8730 c         1 TVN      0.229100
     31 OAV        -1.8430   -8.0370  -13.9260 o         1 TVN     -0.527100
     32 NAU        -3.0720   -6.9430  -12.3050 nz        1 TVN      0.180600
     33 CAP         0.6260   -7.8560  -12.9550 c3        1 TVN     -0.064400
     34 CAQ         0.5020   -9.3840  -13.0970 c         1 TVN      0.377100
     35 OAS        -0.4030   -9.9580  -12.5820 o         1 TVN     -0.392100
     36 NAR         1.5090  -10.1340  -13.8550 nz        1 TVN      0.136600
     37 HBC         3.6290   -0.3490   -2.6920 ha        1 TVN      0.137500
     38 HBB         3.0610   -0.4220   -5.0890 ha        1 TVN      0.086500
     39 HBJ        -0.0230   -2.3820   -1.7720 ha        1 TVN      0.137500
     40 HBK        -0.5840   -2.4500   -4.1710 ha        1 TVN      0.086500
     41 HAZ         1.3770   -0.6840   -6.7560 hc        1 TVN      0.054700
     42 HAZA       -0.2100   -1.3590   -6.3620 hc        1 TVN      0.054700
     43 HAF         3.1420   -2.9120   -5.7410 hc        1 TVN      0.074200
     44 HAFA        3.1160   -3.8870   -7.2170 hc        1 TVN      0.074200
     45 HAA         4.9450    0.3880   -7.9630 hx        1 TVN      0.089367
     46 HAAA        6.4410   -0.5390   -8.1370 hx        1 TVN      0.089367
     47 HAG         0.8440   -3.6310   -6.2450 hc        1 TVN      0.089700
     48 HNAJ        0.6850   -4.8060   -8.4840 hn        1 TVN      0.273800
     49 HAK        -0.3140   -3.6280  -10.4720 hx        1 TVN      0.076700
     50 HAW         1.3850   -3.6130  -12.3160 hc        1 TVN      0.059700
     51 HAX         3.7190   -3.8010  -11.8380 hc        1 TVN      0.020367
     52 HAXA        2.9550   -5.1650  -11.0100 hc        1 TVN      0.020367
     53 HAXB        3.4410   -3.7330  -10.0920 hc        1 TVN      0.020367
     54 HAY         2.3750   -1.7930  -10.1270 hc        1 TVN      0.020367
     55 HAYA        0.7320   -1.6030  -10.7560 hc        1 TVN      0.020367
     56 HAYB        2.1190   -1.4380  -11.8410 hc        1 TVN      0.020367
     57 HNAN       -1.1780   -5.5090  -11.6490 hn        1 TVN      0.185300
     58 HAO        -0.5600   -7.9040  -11.1870 hx        1 TVN      0.101700
     59 HNAU       -3.1650   -5.9800  -12.5610 hn        1 TVN      0.232133
     60 HNAA       -3.0470   -7.0230  -11.3080 hn        1 TVN      0.232133
     61 HAP         0.5840   -7.3980  -13.9350 hc        1 TVN      0.065700
     62 HAPA        1.5700   -7.6130  -12.4820 hc        1 TVN      0.065700
     63 HNAR        2.3620  -10.1690  -13.3320 hn        1 TVN      0.252467
     64 HNAB        1.6730   -9.6800  -14.7310 hn        1 TVN      0.252467
     65 H31         5.1480   -2.5020   -7.9400 hn        1 TVN      0.263300
     66 H32         5.1710   -0.6710   -9.3610 hx        1 TVN      0.089367
     67 HAB2        5.0680   -1.5680   -6.6090 hn        1 TVN      0.263300
     68 HAJ2        2.0860   -4.1440   -8.9830 hn        1 TVN      0.273800
     69 HAN2        0.1350   -5.5110  -12.6110 hn        1 TVN      0.185300
     70 HAU3       -3.8530   -7.4590  -12.6620 hn        1 TVN      0.232133
     71 HAR3        1.1780  -11.0640  -14.0190 hn        1 TVN      0.252467
@<TRIPOS>BOND
     1    1    2 1   
     2    2    3 1   
     3    2    4 1   
     4    2    5 1   
     5    5    6 1   
     6    6    7 ar  
     7    6    9 ar  
     8    7    8 ar  
     9    7   37 1   
    10    8   11 ar  
    11    8   38 1   
    12    9   10 ar  
    13    9   39 1   
    14   10   11 ar  
    15   10   40 1   
    16   11   12 1   
    17   12   18 1   
    18   12   41 1   
    19   12   42 1   
    20   13   14 1   
    21   13   18 1   
    22   13   43 1   
    23   13   44 1   
    24   14   15 2   
    25   14   16 1   
    26   16   17 1   
    27   16   65 1   
    28   16   67 1   
    29   17   45 1   
    30   17   46 1   
    31   17   66 1   
    32   18   19 1   
    33   18   47 1   
    34   19   20 2   
    35   19   21 1   
    36   21   22 1   
    37   21   48 1   
    38   21   68 1   
    39   22   23 1   
    40   22   26 1   
    41   22   49 1   
    42   23   24 1   
    43   23   25 1   
    44   23   50 1   
    45   24   51 1   
    46   24   52 1   
    47   24   53 1   
    48   25   54 1   
    49   25   55 1   
    50   25   56 1   
    51   26   27 2   
    52   26   28 1   
    53   28   29 1   
    54   28   57 1   
    55   28   69 1   
    56   29   30 1   
    57   29   33 1   
    58   29   58 1   
    59   30   31 2   
    60   30   32 1   
    61   32   59 1   
    62   32   60 1   
    63   32   70 1   
    64   33   34 1   
    65   33   61 1   
    66   33   62 1   
    67   34   35 2   
    68   34   36 1   
    69   36   63 1   
    70   36   64 1   
    71   36   71 1   
@<TRIPOS>SUBSTRUCTURE
     1 TVN         1 TEMP              0 ****  ****    0 ROOT
