@<TRIPOS>MOLECULE
TVN
   66    65     1     0     0
SMALL
bcc


@<TRIPOS>ATOM
      1 OBH         8.8760   -1.4520    0.7370 o         1 TVN     -1.167333
      2 PBF         8.1410   -0.3160    0.1380 p3        1 TVN      2.481000
      3 OBI         7.7150    0.8040    1.0070 o         1 TVN     -1.167333
      4 OBG         8.2590   -0.0810   -1.3190 o         1 TVN     -1.167333
      5 OBE         6.0070   -1.2810    0.0970 o         1 TVN     -0.511000
      6 CBD         4.7920   -1.0960    0.4070 ca        1 TVN      0.307000
      7 CBC         4.3710   -0.0050    1.2610 ca        1 TVN     -0.319000
      8 CBB         3.0480    0.2170    1.5310 ca        1 TVN     -0.069500
      9 CBJ         3.7360   -1.9570   -0.0750 ca        1 TVN     -0.319000
     10 CBK         2.4170   -1.7000    0.2120 ca        1 TVN     -0.069500
     11 CBA         2.0270   -0.5890    0.9770 ca        1 TVN     -0.355000
     12 CAZ         0.6130   -0.2650    1.2480 c3        1 TVN     -0.050000
     13 CAF         0.2720    0.3360   -1.2070 c3        1 TVN     -0.181000
     14 CAC         0.6770    1.7880   -0.9920 c2        1 TVN      0.302000
     15 OAD        -0.1630    2.7140   -1.1610 o         1 TVN     -0.474000
     16 NAB         1.9850    2.0570   -0.7080 n         1 TVN     -0.335000
     17 CAA         2.4620    3.3840   -0.4810 c3        1 TVN     -0.078000
     18 CAG        -0.2870   -0.3740    0.0100 c3        1 TVN     -0.104000
     19 CAH        -1.7060   -0.0060    0.4260 c2        1 TVN      0.310000
     20 OAI        -2.3070   -0.7050    1.2830 o         1 TVN     -0.453000
     21 NAJ        -2.3580    1.0570   -0.1640 n         1 TVN     -0.367000
     22 CAK        -3.5550    1.6310    0.3890 c3        1 TVN      0.027000
     23 CAW        -3.6960    3.1460    0.1200 c3        1 TVN     -0.095000
     24 CAX        -2.7020    3.9100    0.9710 c3        1 TVN     -0.223500
     25 CAY        -3.5230    3.5180   -1.3370 c3        1 TVN     -0.223500
     26 CAL        -4.8290    0.8960   -0.1140 c2        1 TVN      0.299000
     27 OAM        -5.6450    1.4140   -0.9050 o         1 TVN     -0.408000
     28 NAN        -5.0450   -0.3600    0.4080 n         1 TVN     -0.381000
     29 CAO        -6.1130   -1.2200   -0.0250 c3        1 TVN      0.025000
     30 CAT        -7.4410   -0.9170    0.7180 c2        1 TVN      0.284000
     31 OAV        -7.9970   -1.7630    1.4500 o         1 TVN     -0.400000
     32 NAU        -8.0040    0.3120    0.5170 n         1 TVN     -0.428000
     33 CAP        -5.7970   -2.7090    0.1720 c3        1 TVN     -0.186000
     34 CAQ        -4.7040   -3.1660   -0.7770 c2        1 TVN      0.297000
     35 OAS        -4.9960   -3.7090   -1.8660 o         1 TVN     -0.401000
     36 NAR        -3.3980   -3.0090   -0.4060 n         1 TVN     -0.421000
     37 HBC         5.1700    0.6320    1.6740 ha        1 TVN      0.138000
     38 HBB         2.7580    1.0530    2.1890 ha        1 TVN      0.071500
     39 HBJ         4.0260   -2.8230   -0.6810 ha        1 TVN      0.138000
     40 HBK         1.6380   -2.3780   -0.1750 ha        1 TVN      0.071500
     41 HAZ         0.1870   -0.9590    2.0260 hc        1 TVN      0.066000
     42 HAZA        0.5310    0.7790    1.6570 hc        1 TVN      0.066000
     43 HAF        -0.4720    0.3200   -2.0460 hc        1 TVN      0.117500
     44 HAFA        1.1720   -0.2600   -1.5370 hc        1 TVN      0.117500
     45 HAA         2.3020    3.6920    0.5890 h1        1 TVN      0.080667
     46 HAAA        3.5620    3.4160   -0.7050 h1        1 TVN      0.080667
     47 HAG        -0.3470   -1.4710   -0.2640 hc        1 TVN      0.115000
     48 HNAJ       -1.8540    1.6380   -0.8070 hn        1 TVN      0.273000
     49 HAK        -3.5350    1.4920    1.5180 h1        1 TVN      0.111000
     50 HAW        -4.7430    3.4180    0.4350 hc        1 TVN      0.089000
     51 HAX        -1.6550    3.6890    0.6430 hc        1 TVN      0.086333
     52 HAXA       -2.8790    5.0070    0.8610 hc        1 TVN      0.086333
     53 HAXB       -2.8080    3.6390    2.0490 hc        1 TVN      0.086333
     54 HAY        -2.4460    3.4740   -1.6430 hc        1 TVN      0.086333
     55 HAYA       -4.1180    2.8320   -1.9870 hc        1 TVN      0.086333
     56 HAYB       -3.8830    4.5630   -1.4990 hc        1 TVN      0.086333
     57 HNAN       -4.3810   -0.7340    1.0550 hn        1 TVN      0.265000
     58 HAO        -6.3030   -1.0330   -1.1290 h1        1 TVN      0.133000
     59 HNAU       -7.5610    0.9880   -0.0580 hn        1 TVN      0.234000
     60 HNAA       -8.8430    0.5490    0.9830 hn        1 TVN      0.234000
     61 HAP        -5.5310   -2.9190    1.2400 hc        1 TVN      0.128000
     62 HAPA       -6.7260   -3.2940   -0.0650 hc        1 TVN      0.128000
     63 HNAR       -3.1410   -2.5170    0.4160 hn        1 TVN      0.239000
     64 HNAB       -2.6820   -3.2770   -1.0350 hn        1 TVN      0.239000
     65 H31         2.5900    1.2970   -0.4450 hn        1 TVN      0.287000
     66 H32         1.9180    4.1090   -1.1430 h1        1 TVN      0.080667
@<TRIPOS>BOND
     1    1    2 1   
     2    2    3 1   
     3    2    4 1   
     4    5    6 1   
     5    6    7 1   
     6    6    9 1   
     7    7    8 1   
     8    7   37 1   
     9    8   11 1   
    10    8   38 1   
    11    9   10 1   
    12    9   39 1   
    13   10   11 1   
    14   10   40 1   
    15   11   12 1   
    16   12   18 1   
    17   12   41 1   
    18   12   42 1   
    19   13   14 1   
    20   13   18 1   
    21   13   43 1   
    22   13   44 1   
    23   14   15 1   
    24   14   16 1   
    25   16   17 1   
    26   16   65 1   
    27   17   45 1   
    28   17   46 1   
    29   17   66 1   
    30   18   19 1   
    31   18   47 1   
    32   19   20 1   
    33   19   21 1   
    34   21   22 1   
    35   21   48 1   
    36   22   23 1   
    37   22   26 1   
    38   22   49 1   
    39   23   24 1   
    40   23   25 1   
    41   23   50 1   
    42   24   51 1   
    43   24   52 1   
    44   24   53 1   
    45   25   54 1   
    46   25   55 1   
    47   25   56 1   
    48   26   27 1   
    49   26   28 1   
    50   28   29 1   
    51   28   57 1   
    52   29   30 1   
    53   29   33 1   
    54   29   58 1   
    55   30   31 1   
    56   30   32 1   
    57   32   59 1   
    58   32   60 1   
    59   33   34 1   
    60   33   61 1   
    61   33   62 1   
    62   34   35 1   
    63   34   36 1   
    64   36   63 1   
    65   36   64 1   
@<TRIPOS>SUBSTRUCTURE
     1 TVN         1 TEMP              0 ****  ****    0 ROOT
