@<TRIPOS>MOLECULE
TVP
   29    30     1     0     0
SMALL
bcc


@<TRIPOS>ATOM
      1 O          -1.0340    2.3840    0.9600 o         1 TVP     -0.594100
      2 C11        -1.5880    1.2780    0.8090 c         1 TVP      0.667100
      3 C12        -3.0180    1.0930    1.2600 c3        1 TVP     -0.171100
      4 N          -0.9020    0.1990    0.2440 n         1 TVP     -0.386000
      5 C2         -1.5830   -1.0680    0.0020 c3        1 TVP      0.113700
      6 C1         -2.3840   -1.0690   -1.3060 c3        1 TVP     -0.113100
      7 C10         0.4890    0.2730   -0.0220 ca        1 TVP      0.062600
      8 C5          1.2980   -0.8630    0.2390 ca        1 TVP     -0.109300
      9 C4          0.6330   -2.0930    0.7410 c3        1 TVP     -0.030100
     10 C3         -0.6630   -2.3040   -0.0130 c3        1 TVP     -0.084400
     11 C9          1.0970    1.4370   -0.5320 ca        1 TVP     -0.124000
     12 C8          2.4720    1.4650   -0.7560 ca        1 TVP     -0.119000
     13 C7          3.2610    0.3480   -0.4910 ca        1 TVP     -0.143000
     14 C6          2.6700   -0.8150    0.0010 ca        1 TVP     -0.114000
     15 H121       -3.4130    2.0890    1.5810 hc        1 TVP      0.067033
     16 H122       -3.6610    0.6970    0.4390 hc        1 TVP      0.067033
     17 H123       -3.0570    0.3950    2.1320 hc        1 TVP      0.067033
     18 H2         -2.3150   -1.2190    0.8550 h1        1 TVP      0.045700
     19 H11C       -1.7090   -0.9380   -2.1860 hc        1 TVP      0.044367
     20 H12C       -2.9120   -2.0470   -1.4010 hc        1 TVP      0.044367
     21 H13C       -3.1410   -0.2500   -1.3210 hc        1 TVP      0.044367
     22 H31C       -1.2290   -3.1630    0.4310 hc        1 TVP      0.051700
     23 H32C       -0.4200   -2.5730   -1.0760 hc        1 TVP      0.051700
     24 H9          0.4950    2.3380   -0.7320 ha        1 TVP      0.160000
     25 H41C        1.2960   -2.9880    0.6120 hc        1 TVP      0.053700
     26 H42C        0.4260   -1.9840    1.8400 hc        1 TVP      0.053700
     27 H6          3.2870   -1.7020    0.2070 ha        1 TVP      0.130000
     28 H8          2.9340    2.3840   -1.1460 ha        1 TVP      0.133000
     29 H7          4.3450    0.3810   -0.6680 ha        1 TVP      0.131000
@<TRIPOS>BOND
     1    1    2 2   
     2    2    3 1   
     3    2    4 1   
     4    3   15 1   
     5    3   16 1   
     6    3   17 1   
     7    4    5 1   
     8    4    7 1   
     9    5    6 1   
    10    5   10 1   
    11    5   18 1   
    12    6   19 1   
    13    6   20 1   
    14    6   21 1   
    15    7    8 ar  
    16    7   11 ar  
    17    8    9 1   
    18    8   14 ar  
    19    9   10 1   
    20    9   25 1   
    21    9   26 1   
    22   10   22 1   
    23   10   23 1   
    24   11   12 ar  
    25   11   24 1   
    26   12   13 ar  
    27   12   28 1   
    28   13   14 ar  
    29   13   29 1   
    30   14   27 1   
@<TRIPOS>SUBSTRUCTURE
     1 TVP         1 TEMP              0 ****  ****    0 ROOT
