@<TRIPOS>MOLECULE
TVP
   29    30     1     0     0
SMALL
bcc


@<TRIPOS>ATOM
      1 O           0.4510    1.4750    0.0690 o         1 TVP     -0.594100
      2 C11         1.5540    0.8960    0.0500 c         1 TVP      0.667100
      3 C12         2.4950    1.0470    1.2220 c3        1 TVP     -0.171100
      4 N           1.9420    0.1190   -1.0460 n         1 TVP     -0.386000
      5 C2          3.2020   -0.6160   -1.0240 c3        1 TVP      0.113700
      6 C1          3.0910   -1.9570   -0.2880 c3        1 TVP     -0.113100
      7 C10         1.1740    0.0980   -2.2370 ca        1 TVP      0.062600
      8 C5          1.8470    0.0940   -3.4860 ca        1 TVP     -0.109300
      9 C4          3.3330    0.0700   -3.4780 c3        1 TVP     -0.030100
     10 C3          3.8110   -0.8940   -2.4120 c3        1 TVP     -0.084400
     11 C9         -0.2350    0.0860   -2.2260 ca        1 TVP     -0.124000
     12 C8         -0.9420    0.0880   -3.4260 ca        1 TVP     -0.119000
     13 C7         -0.2740    0.0910   -4.6480 ca        1 TVP     -0.143000
     14 C6          1.1200    0.0880   -4.6740 ca        1 TVP     -0.114000
     15 H121        2.8140    0.0580    1.6250 hc        1 TVP      0.067033
     16 H122        3.3970    1.6310    0.9150 hc        1 TVP      0.067033
     17 H123        1.9610    1.6110    2.0270 hc        1 TVP      0.067033
     18 H2          3.9500    0.0260   -0.4640 h1        1 TVP      0.045700
     19 H11C        2.7440   -1.8180    0.7620 hc        1 TVP      0.044367
     20 H12C        4.0980   -2.4390   -0.2720 hc        1 TVP      0.044367
     21 H13C        2.3750   -2.6380   -0.8070 hc        1 TVP      0.044367
     22 H31C        4.9260   -0.8390   -2.3180 hc        1 TVP      0.051700
     23 H32C        3.5510   -1.9390   -2.7300 hc        1 TVP      0.051700
     24 H9         -0.7840    0.1020   -1.2710 ha        1 TVP      0.160000
     25 H41C        3.7230    1.1020   -3.2680 hc        1 TVP      0.053700
     26 H42C        3.7340   -0.2430   -4.4780 hc        1 TVP      0.053700
     27 H6          1.6530    0.0850   -5.6360 ha        1 TVP      0.130000
     28 H8         -2.0420    0.0880   -3.4010 ha        1 TVP      0.133000
     29 H7         -0.8410    0.0940   -5.5900 ha        1 TVP      0.131000
@<TRIPOS>BOND
     1    1    2 2   
     2    2    3 1   
     3    2    4 1   
     4    3   15 1   
     5    3   16 1   
     6    3   17 1   
     7    4    5 1   
     8    4    7 1   
     9    5    6 1   
    10    5   10 1   
    11    5   18 1   
    12    6   19 1   
    13    6   20 1   
    14    6   21 1   
    15    7    8 ar  
    16    7   11 ar  
    17    8    9 1   
    18    8   14 ar  
    19    9   10 1   
    20    9   25 1   
    21    9   26 1   
    22   10   22 1   
    23   10   23 1   
    24   11   12 ar  
    25   11   24 1   
    26   12   13 ar  
    27   12   28 1   
    28   13   14 ar  
    29   13   29 1   
    30   14   27 1   
@<TRIPOS>SUBSTRUCTURE
     1 TVP         1 TEMP              0 ****  ****    0 ROOT
