@<TRIPOS>MOLECULE
TVP
   29    30     1     0     0
SMALL
bcc


@<TRIPOS>ATOM
      1 O           0.3800    1.3940    0.0780 o         1 TVP     -0.594100
      2 C11         1.4980    0.8440    0.0640 c         1 TVP      0.667100
      3 C12         2.4170    0.9960    1.2530 c3        1 TVP     -0.171100
      4 N           1.9230    0.1020   -1.0420 n         1 TVP     -0.386000
      5 C2          3.2020   -0.6010   -1.0150 c3        1 TVP      0.113700
      6 C1          3.1160   -1.9600   -0.3090 c3        1 TVP     -0.113100
      7 C10         1.1740    0.0850   -2.2450 ca        1 TVP      0.062600
      8 C5          1.8670    0.1250   -3.4830 ca        1 TVP     -0.109300
      9 C4          3.3520    0.1390   -3.4520 c3        1 TVP     -0.030100
     10 C3          3.8390   -0.8340   -2.3990 c3        1 TVP     -0.084400
     11 C9         -0.2340    0.0360   -2.2560 ca        1 TVP     -0.124000
     12 C8         -0.9220    0.0450   -3.4670 ca        1 TVP     -0.119000
     13 C7         -0.2360    0.0910   -4.6780 ca        1 TVP     -0.143000
     14 C6          1.1570    0.1260   -4.6820 ca        1 TVP     -0.114000
     15 H121        3.3080    1.6090    0.9720 hc        1 TVP      0.067033
     16 H122        1.8560    1.5280    2.0610 hc        1 TVP      0.067033
     17 H123        2.7570    0.0070    1.6410 hc        1 TVP      0.067033
     18 H2          3.9240    0.0480   -0.4300 h1        1 TVP      0.045700
     19 H11C        4.1350   -2.4160   -0.2860 hc        1 TVP      0.044367
     20 H12C        2.4260   -2.6480   -0.8520 hc        1 TVP      0.044367
     21 H13C        2.7490   -1.8520    0.7390 hc        1 TVP      0.044367
     22 H31C        3.6110   -1.8780   -2.7420 hc        1 TVP      0.051700
     23 H32C        4.9500   -0.7520   -2.2860 hc        1 TVP      0.051700
     24 H9         -0.7970    0.0170   -1.3090 ha        1 TVP      0.160000
     25 H41C        3.7760   -0.1420   -4.4510 hc        1 TVP      0.053700
     26 H42C        3.7110    1.1770   -3.2140 hc        1 TVP      0.053700
     27 H6          1.7050    0.1560   -5.6350 ha        1 TVP      0.130000
     28 H8         -2.0220    0.0150   -3.4590 ha        1 TVP      0.133000
     29 H7         -0.7890    0.0990   -5.6280 ha        1 TVP      0.131000
@<TRIPOS>BOND
     1    1    2 2   
     2    2    3 1   
     3    2    4 1   
     4    3   15 1   
     5    3   16 1   
     6    3   17 1   
     7    4    5 1   
     8    4    7 1   
     9    5    6 1   
    10    5   10 1   
    11    5   18 1   
    12    6   19 1   
    13    6   20 1   
    14    6   21 1   
    15    7    8 ar  
    16    7   11 ar  
    17    8    9 1   
    18    8   14 ar  
    19    9   10 1   
    20    9   25 1   
    21    9   26 1   
    22   10   22 1   
    23   10   23 1   
    24   11   12 ar  
    25   11   24 1   
    26   12   13 ar  
    27   12   28 1   
    28   13   14 ar  
    29   13   29 1   
    30   14   27 1   
@<TRIPOS>SUBSTRUCTURE
     1 TVP         1 TEMP              0 ****  ****    0 ROOT
