@<TRIPOS>MOLECULE
TVP
   29    30     1     0     0
SMALL
bcc


@<TRIPOS>ATOM
      1 O           0.4500    1.4770    0.0670 o         1 TVP     -0.594100
      2 C11         1.5550    0.9020    0.0470 c         1 TVP      0.667100
      3 C12         2.4990    1.0640    1.2140 c3        1 TVP     -0.171100
      4 N           1.9430    0.1230   -1.0470 n         1 TVP     -0.386000
      5 C2          3.2060   -0.6080   -1.0260 c3        1 TVP      0.113700
      6 C1          3.1030   -1.9460   -0.2830 c3        1 TVP     -0.113100
      7 C10         1.1720    0.0930   -2.2360 ca        1 TVP      0.062600
      8 C5          1.8410    0.0860   -3.4870 ca        1 TVP     -0.109300
      9 C4          3.3270    0.0670   -3.4830 c3        1 TVP     -0.030100
     10 C3          3.8120   -0.8900   -2.4140 c3        1 TVP     -0.084400
     11 C9         -0.2370    0.0750   -2.2210 ca        1 TVP     -0.124000
     12 C8         -0.9480    0.0690   -3.4190 ca        1 TVP     -0.119000
     13 C7         -0.2830    0.0690   -4.6430 ca        1 TVP     -0.143000
     14 C6          1.1100    0.0720   -4.6720 ca        1 TVP     -0.114000
     15 H121        3.3980    1.6500    0.9020 hc        1 TVP      0.067033
     16 H122        1.9650    1.6280    2.0180 hc        1 TVP      0.067033
     17 H123        2.8240    0.0770    1.6210 hc        1 TVP      0.067033
     18 H2          3.9530    0.0400   -0.4710 h1        1 TVP      0.045700
     19 H11C        2.3880   -2.6320   -0.7960 hc        1 TVP      0.044367
     20 H12C        2.7580   -1.8030    0.7680 hc        1 TVP      0.044367
     21 H13C        4.1120   -2.4240   -0.2670 hc        1 TVP      0.044367
     22 H31C        4.9270   -0.8300   -2.3240 hc        1 TVP      0.051700
     23 H32C        3.5540   -1.9370   -2.7260 hc        1 TVP      0.051700
     24 H9         -0.7830    0.0930   -1.2640 ha        1 TVP      0.160000
     25 H41C        3.7140    1.1020   -3.2790 hc        1 TVP      0.053700
     26 H42C        3.7270   -0.2490   -4.4820 hc        1 TVP      0.053700
     27 H6          1.6410    0.0660   -5.6360 ha        1 TVP      0.130000
     28 H8         -2.0480    0.0640   -3.3910 ha        1 TVP      0.133000
     29 H7         -0.8530    0.0660   -5.5820 ha        1 TVP      0.131000
@<TRIPOS>BOND
     1    1    2 2   
     2    2    3 1   
     3    2    4 1   
     4    3   15 1   
     5    3   16 1   
     6    3   17 1   
     7    4    5 1   
     8    4    7 1   
     9    5    6 1   
    10    5   10 1   
    11    5   18 1   
    12    6   19 1   
    13    6   20 1   
    14    6   21 1   
    15    7    8 ar  
    16    7   11 ar  
    17    8    9 1   
    18    8   14 ar  
    19    9   10 1   
    20    9   25 1   
    21    9   26 1   
    22   10   22 1   
    23   10   23 1   
    24   11   12 ar  
    25   11   24 1   
    26   12   13 ar  
    27   12   28 1   
    28   13   14 ar  
    29   13   29 1   
    30   14   27 1   
@<TRIPOS>SUBSTRUCTURE
     1 TVP         1 TEMP              0 ****  ****    0 ROOT
