@<TRIPOS>MOLECULE
TVU
   57    60     1     0     0
SMALL
bcc


@<TRIPOS>ATOM
      1 O5          1.5240    0.3640   -1.1850 o         1 TVU     -0.622300
      2 S1          2.6430    0.2090   -0.3780 s6        1 TVU      1.336000
      3 O4          3.6570    1.1680   -0.3910 o         1 TVU     -0.622300
      4 C19         2.1500   -0.0580    1.2460 c3        1 TVU     -0.321100
      5 C18         3.2790   -0.4260    2.1740 c3        1 TVU     -0.064900
      6 C20         3.3380   -1.3390   -0.6440 c3        1 TVU     -0.321100
      7 C21         4.4460   -1.6800    0.3170 c3        1 TVU     -0.064900
      8 C17         3.9000   -1.7660    1.7500 c3        1 TVU      0.109500
      9 N1          4.9780   -2.1780    2.7160 ny        1 TVU     -0.676800
     10 C16         5.3640   -3.6540    2.5600 c         1 TVU      0.618700
     11 O3          4.4140   -4.4290    2.5720 o         1 TVU     -0.456100
     12 C14         6.7570   -3.9180    2.4470 cc        1 TVU     -0.331700
     13 C13         7.2340   -5.2350    2.3100 cd        1 TVU      0.090000
     14 S           8.0400   -2.8000    2.4610 ss        1 TVU      0.054200
     15 C15         9.2170   -3.9680    2.2910 cc        1 TVU      0.114100
     16 C12         8.6360   -5.2630    2.2190 cd        1 TVU     -0.267600
     17 C11         9.4540   -6.4610    2.0680 c         1 TVU      0.727100
     18 O2          9.0040   -7.6140    2.0010 o         1 TVU     -0.577500
     19 N          10.8620   -6.2350    1.9940 n         1 TVU     -0.326000
     20 C10        11.7520   -7.3690    1.8590 c3        1 TVU      0.047300
     21 C9         11.3830   -4.9760    2.0710 cd        1 TVU      0.106600
     22 C8         10.6170   -3.8220    2.2170 cc        1 TVU     -0.124400
     23 C4         11.2560   -2.5100    2.2870 ca        1 TVU     -0.094800
     24 C3         11.5530   -1.8060    1.1210 ca        1 TVU     -0.103000
     25 C2         12.1590   -0.5480    1.1860 ca        1 TVU     -0.190000
     26 C5         11.5750   -1.9600    3.5410 ca        1 TVU     -0.168000
     27 C6         12.1790   -0.7090    3.6180 ca        1 TVU      0.103100
     28 O1         12.5050   -0.0630    4.7900 os        1 TVU     -0.295900
     29 C7         12.4750   -0.8570    5.9720 c3        1 TVU      0.108700
     30 C1         12.4760    0.0120    2.4230 ca        1 TVU      0.133100
     31 O          13.0610    1.2400    2.6100 os        1 TVU     -0.293900
     32 C          13.4420    1.9440    1.4300 c3        1 TVU      0.105700
     33 H191        1.6670    0.8770    1.6510 h1        1 TVU      0.136450
     34 H192        1.3410   -0.8360    1.3020 h1        1 TVU      0.136450
     35 H201        2.5560   -2.1460   -0.6270 h1        1 TVU      0.136450
     36 H202        3.7640   -1.3860   -1.6870 h1        1 TVU      0.136450
     37 H181        2.8870   -0.4980    3.2240 hc        1 TVU      0.079450
     38 H182        4.0570    0.3870    2.1500 hc        1 TVU      0.079450
     39 H17         3.1060   -2.5760    1.7960 hx        1 TVU      0.128700
     40 H211        4.9050   -2.6630    0.0270 hc        1 TVU      0.079450
     41 H212        5.2470   -0.8910    0.2530 hc        1 TVU      0.079450
     42 H1          5.7970   -1.5790    2.5820 hn        1 TVU      0.451800
     43 H13         6.5990   -6.1320    2.2770 ha        1 TVU      0.203000
     44 H101       11.1680   -8.2660    1.5120 h1        1 TVU      0.078700
     45 H102       12.2220   -7.6010    2.8520 h1        1 TVU      0.078700
     46 H103       12.5550   -7.1380    1.1090 h1        1 TVU      0.078700
     47 H9         12.4900   -4.8960    2.0090 h4        1 TVU      0.186000
     48 H3         11.3160   -2.2380    0.1370 ha        1 TVU      0.139000
     49 H5         11.3540   -2.5290    4.4560 ha        1 TVU      0.144000
     50 H2         12.3890   -0.0110    0.2540 ha        1 TVU      0.153000
     51 H71C       12.8940   -0.1700    6.7520 h1        1 TVU      0.048700
     52 H72C       11.4250   -1.1420    6.2230 h1        1 TVU      0.048700
     53 H73C       13.1140   -1.7660    5.8610 h1        1 TVU      0.048700
     54 HC1        13.9210    2.8730    1.8330 h1        1 TVU      0.053033
     55 HC2        14.1740    1.3480    0.8330 h1        1 TVU      0.053033
     56 HC3        12.5430    2.1970    0.8170 h1        1 TVU      0.053033
     57 H12         4.6230   -2.0420    3.6690 hn        1 TVU      0.451800
@<TRIPOS>BOND
     1    1    2 2   
     2    2    3 2   
     3    2    4 1   
     4    2    6 1   
     5    4    5 1   
     6    4   33 1   
     7    4   34 1   
     8    5    8 1   
     9    5   37 1   
    10    5   38 1   
    11    6    7 1   
    12    6   35 1   
    13    6   36 1   
    14    7    8 1   
    15    7   40 1   
    16    7   41 1   
    17    8    9 1   
    18    8   39 1   
    19    9   10 1   
    20    9   42 1   
    21    9   57 1   
    22   10   11 2   
    23   10   12 1   
    24   12   13 2   
    25   12   14 1   
    26   13   16 1   
    27   13   43 1   
    28   14   15 1   
    29   15   16 2   
    30   15   22 1   
    31   16   17 1   
    32   17   18 2   
    33   17   19 1   
    34   19   20 1   
    35   19   21 1   
    36   20   44 1   
    37   20   45 1   
    38   20   46 1   
    39   21   22 2   
    40   21   47 1   
    41   22   23 1   
    42   23   24 ar  
    43   23   26 ar  
    44   24   25 ar  
    45   24   48 1   
    46   25   30 ar  
    47   25   50 1   
    48   26   27 ar  
    49   26   49 1   
    50   27   28 1   
    51   27   30 ar  
    52   28   29 1   
    53   29   51 1   
    54   29   52 1   
    55   29   53 1   
    56   30   31 1   
    57   31   32 1   
    58   32   54 1   
    59   32   55 1   
    60   32   56 1   
@<TRIPOS>SUBSTRUCTURE
     1 TVU         1 TEMP              0 ****  ****    0 ROOT
