@<TRIPOS>MOLECULE
TW5
   74    79     1     0     0
SMALL
bcc


@<TRIPOS>ATOM
      1 O1          0.1710    1.0760    0.3250 o         1 TW5     -0.594100
      2 C1          1.1780    0.4100    0.0140 c         1 TW5      0.657100
      3 N1          1.4650   -0.0790   -1.2320 n         1 TW5     -0.432100
      4 C2          0.6770    0.0700   -2.3940 ca        1 TW5      0.072600
      5 C3         -0.5090    0.8270   -2.4390 ca        1 TW5     -0.273800
      6 C4         -1.2030    0.9040   -3.6620 ca        1 TW5      0.424200
      7 N2         -0.8060    0.2990   -4.7950 nb        1 TW5     -0.654000
      8 C5          0.3300   -0.4230   -4.7390 ca        1 TW5      0.424200
      9 C6          1.1060   -0.5730   -3.5810 ca        1 TW5     -0.273800
     10 C7          2.2450    0.1220    1.1110 c3        1 TW5      0.037500
     11 C8          3.3780    1.1490    0.9310 c3        1 TW5     -0.007200
     12 C9          4.1930    1.3600    2.1310 cc        1 TW5     -0.250400
     13 C10         4.8040    0.3670    2.9920 ca        1 TW5     -0.111800
     14 C11         4.7930   -1.0300    3.0480 ca        1 TW5     -0.123000
     15 C12         5.5270   -1.6710    4.0330 ca        1 TW5     -0.124000
     16 C13         6.2810   -0.9460    4.9760 ca        1 TW5     -0.103000
     17 C14         6.3230    0.4390    4.9580 ca        1 TW5     -0.123000
     18 C15         5.5860    1.1000    3.9620 ca        1 TW5     -0.050200
     19 N3          5.4390    2.4680    3.6970 na        1 TW5     -0.169400
     20 C16         4.6220    2.6150    2.5870 cd        1 TW5     -0.053100
     21 N4          1.6130    0.1860    2.4660 n4        1 TW5     -0.668800
     22 C17         1.0380   -1.1380    2.9520 c         1 TW5      0.591700
     23 O2          1.5290   -2.1440    2.4510 o         1 TW5     -0.458100
     24 C18        -0.0140   -1.0470    3.9390 ca        1 TW5     -0.326600
     25 C19        -0.8330   -2.1930    4.1630 ca        1 TW5      0.281900
     26 F1         -0.6330   -3.3100    3.4350 f         1 TW5     -0.100900
     27 C20        -1.8570   -2.1780    5.1090 ca        1 TW5     -0.280000
     28 C21        -2.1030   -1.0260    5.9090 ca        1 TW5      0.290600
     29 C22        -1.2800    0.1250    5.6570 ca        1 TW5     -0.224000
     30 C23        -0.2810    0.0990    4.7160 ca        1 TW5     -0.014000
     31 N5         -3.0540   -1.0300    6.8990 nh        1 TW5     -0.623000
     32 C24        -3.9660   -2.1560    6.9960 c3        1 TW5      0.198300
     33 C25        -4.8670   -2.1760    8.2480 c3        1 TW5      0.172300
     34 N6         -5.4050   -0.8650    8.5530 nh        1 TW5     -0.629000
     35 C26        -4.3350    0.0920    8.7720 c3        1 TW5      0.172300
     36 C27        -3.4060    0.2200    7.5480 c3        1 TW5      0.198300
     37 C28        -6.4570   -0.8200    9.5140 ca        1 TW5      0.105600
     38 C29        -6.7790   -1.9120   10.3450 ca        1 TW5     -0.145500
     39 C30        -7.8650   -1.8480   11.2120 ca        1 TW5     -0.103000
     40 C31        -8.6420   -0.6890   11.2760 ca        1 TW5      0.006400
     41 CL1        -9.9620   -0.6100   12.3390 cl        1 TW5     -0.072400
     42 C32        -8.3330    0.4070   10.4640 ca        1 TW5     -0.103000
     43 C33        -7.2540    0.3450    9.5910 ca        1 TW5     -0.145500
     44 H1          2.2990   -0.6160   -1.3440 hn        1 TW5      0.334500
     45 H2         -0.9040    1.3530   -1.5580 ha        1 TW5      0.162500
     46 H3         -2.1380    1.4910   -3.7300 h4        1 TW5      0.038600
     47 H4          0.6370   -0.9110   -5.6840 h4        1 TW5      0.038600
     48 H5          2.0210   -1.1790   -3.6160 ha        1 TW5      0.162500
     49 H6          2.6690   -0.9230    0.9940 hx        1 TW5      0.136700
     50 H7          4.0250    0.7650    0.0920 hc        1 TW5      0.083200
     51 H8          2.9390    2.1300    0.5970 hc        1 TW5      0.083200
     52 H9          4.2210   -1.6160    2.3140 ha        1 TW5      0.130000
     53 H10         5.5330   -2.7720    4.0800 ha        1 TW5      0.149000
     54 H11         6.8540   -1.4960    5.7390 ha        1 TW5      0.151000
     55 H12         6.9180    1.0010    5.6910 ha        1 TW5      0.151000
     56 H13         5.9320    3.1920    4.1540 hn        1 TW5      0.318700
     57 H14         4.3930    3.6070    2.1830 h4        1 TW5      0.182000
     58 H15         2.3320    0.4890    3.1430 hn        1 TW5      0.475300
     59 H16        -2.4680   -3.0900    5.2080 ha        1 TW5      0.175000
     60 H17        -1.4430    1.0570    6.2200 ha        1 TW5      0.159000
     61 H18         0.3270    1.0110    4.5960 ha        1 TW5      0.125000
     62 H19        -3.3610   -3.1080    7.0270 h1        1 TW5      0.061950
     63 H20        -4.6220   -2.1740    6.0760 h1        1 TW5      0.061950
     64 H21        -5.7210   -2.8780    8.0320 h1        1 TW5      0.059950
     65 H22        -4.2700   -2.5990    9.1090 h1        1 TW5      0.059950
     66 H23        -4.7830    1.1080    8.9610 h1        1 TW5      0.059950
     67 H24        -3.7080   -0.1850    9.6710 h1        1 TW5      0.059950
     68 H25        -2.4610    0.7120    7.9200 h1        1 TW5      0.061950
     69 H26        -3.8940    0.9000    6.7900 h1        1 TW5      0.061950
     70 H27        -6.1810   -2.8360   10.3220 ha        1 TW5      0.139500
     71 H28        -8.1050   -2.7130   11.8500 ha        1 TW5      0.155000
     72 H29        -8.9460    1.3210   10.5100 ha        1 TW5      0.155000
     73 H30        -7.0370    1.2120    8.9480 ha        1 TW5      0.139500
     74 H42         0.8520    0.8840    2.4370 hn        1 TW5      0.475300
@<TRIPOS>BOND
     1    1    2 2   
     2    2    3 1   
     3    2   10 1   
     4    3    4 1   
     5    3   44 1   
     6    4    5 ar  
     7    4    9 ar  
     8    5    6 ar  
     9    5   45 1   
    10    6    7 ar  
    11    6   46 1   
    12    7    8 ar  
    13    8    9 ar  
    14    8   47 1   
    15    9   48 1   
    16   10   11 1   
    17   10   21 1   
    18   10   49 1   
    19   11   12 1   
    20   11   50 1   
    21   11   51 1   
    22   12   13 1   
    23   12   20 2   
    24   13   14 ar  
    25   13   18 ar  
    26   14   15 ar  
    27   14   52 1   
    28   15   16 ar  
    29   15   53 1   
    30   16   17 ar  
    31   16   54 1   
    32   17   18 ar  
    33   17   55 1   
    34   18   19 1   
    35   19   20 1   
    36   19   56 1   
    37   20   57 1   
    38   21   22 1   
    39   21   58 1   
    40   21   74 1   
    41   22   23 2   
    42   22   24 1   
    43   24   25 ar  
    44   24   30 ar  
    45   25   26 1   
    46   25   27 ar  
    47   27   28 ar  
    48   27   59 1   
    49   28   29 ar  
    50   28   31 1   
    51   29   30 ar  
    52   29   60 1   
    53   30   61 1   
    54   31   32 1   
    55   31   36 1   
    56   32   33 1   
    57   32   62 1   
    58   32   63 1   
    59   33   34 1   
    60   33   64 1   
    61   33   65 1   
    62   34   35 1   
    63   34   37 1   
    64   35   36 1   
    65   35   66 1   
    66   35   67 1   
    67   36   68 1   
    68   36   69 1   
    69   37   38 ar  
    70   37   43 ar  
    71   38   39 ar  
    72   38   70 1   
    73   39   40 ar  
    74   39   71 1   
    75   40   41 1   
    76   40   42 ar  
    77   42   43 ar  
    78   42   72 1   
    79   43   73 1   
@<TRIPOS>SUBSTRUCTURE
     1 TW5         1 TEMP              0 ****  ****    0 ROOT
