@<TRIPOS>MOLECULE
TW5
   73    78     1     0     0
SMALL
bcc


@<TRIPOS>ATOM
      1 O1          1.9270    1.7500   -1.1290 o         1 TW5     -0.593100
      2 C1          1.7650    0.6910   -0.4990 c         1 TW5      0.651100
      3 N1          1.1660   -0.4400   -1.0240 n         1 TW5     -0.462100
      4 C2          0.6240   -0.5890   -2.3060 ca        1 TW5      0.105600
      5 C3          0.6770    0.4080   -3.3050 ca        1 TW5     -0.288300
      6 C4          0.1030    0.1350   -4.5560 ca        1 TW5      0.411200
      7 N2         -0.5040   -1.0220   -4.8800 nb        1 TW5     -0.687000
      8 C5         -0.5520   -1.9680   -3.9210 ca        1 TW5      0.411200
      9 C6         -0.0150   -1.8130   -2.6370 ca        1 TW5     -0.288300
     10 C7          2.2680    0.5590    0.9700 c3        1 TW5      0.040700
     11 C8          3.1820    1.7660    1.2540 c3        1 TW5     -0.014200
     12 C9          3.6930    1.7900    2.6280 cc        1 TW5     -0.151400
     13 C10         4.5850    0.8320    3.2510 ca        1 TW5     -0.088800
     14 C11         5.1940   -0.3520    2.8290 ca        1 TW5     -0.083000
     15 C12         6.0190   -1.0350    3.7100 ca        1 TW5     -0.150000
     16 C13         6.2510   -0.5580    5.0130 ca        1 TW5     -0.109000
     17 C14         5.6680    0.6120    5.4730 ca        1 TW5     -0.144000
     18 C15         4.8310    1.3140    4.5920 ca        1 TW5     -0.050200
     19 N3          4.0970    2.4910    4.7730 na        1 TW5     -0.191400
     20 C16         3.4430    2.7860    3.5750 cd        1 TW5     -0.107100
     21 N4          1.1690    0.4470    1.8920 n         1 TW5     -0.554900
     22 C17         0.6330   -0.7790    2.2450 c         1 TW5      0.689700
     23 O2          0.9470   -1.8160    1.6230 o         1 TW5     -0.612100
     24 C18        -0.3470   -0.7840    3.3620 ca        1 TW5     -0.217600
     25 C19        -1.6080   -1.3940    3.2110 ca        1 TW5      0.213900
     26 F1         -1.9760   -1.9380    2.0300 f         1 TW5     -0.120900
     27 C20        -2.5190   -1.4270    4.2810 ca        1 TW5     -0.242000
     28 C21        -2.1780   -0.8730    5.5330 ca        1 TW5      0.200600
     29 C22        -0.9030   -0.2620    5.6670 ca        1 TW5     -0.191000
     30 C23        -0.0200   -0.2230    4.6000 ca        1 TW5     -0.053000
     31 N5         -3.0250   -0.9870    6.6530 nh        1 TW5     -0.643000
     32 C24        -4.2300   -1.7830    6.4940 c3        1 TW5      0.187300
     33 C25        -4.9480   -2.0510    7.8350 c3        1 TW5      0.180800
     34 N6         -5.1730   -0.8330    8.5930 nh        1 TW5     -0.636000
     35 C26        -3.9520   -0.0630    8.7770 c3        1 TW5      0.180800
     36 C27        -3.2290    0.2170    7.4420 c3        1 TW5      0.187300
     37 C28        -5.9990   -0.9460    9.7410 ca        1 TW5      0.133600
     38 C29        -6.4430   -2.1900   10.2390 ca        1 TW5     -0.159000
     39 C30        -7.3250   -2.2560   11.3130 ca        1 TW5     -0.100500
     40 C31        -7.7740   -1.0830   11.9230 ca        1 TW5     -0.008600
     41 CL1        -8.8450   -1.1650   13.2400 cl        1 TW5     -0.093400
     42 C32        -7.3430    0.1600   11.4500 ca        1 TW5     -0.100500
     43 C33        -6.4690    0.2310   10.3730 ca        1 TW5     -0.159000
     44 H1          1.0690   -1.2330   -0.4170 hn        1 TW5      0.351500
     45 H2          1.1540    1.3820   -3.1230 ha        1 TW5      0.163000
     46 H3          0.1330    0.9000   -5.3540 h4        1 TW5      0.020600
     47 H4         -1.0540   -2.9110   -4.2030 h4        1 TW5      0.020600
     48 H5         -0.0970   -2.6310   -1.9080 ha        1 TW5      0.163000
     49 H6          2.8930   -0.3860    1.0350 h1        1 TW5      0.088700
     50 H7          4.0390    1.7060    0.5270 hc        1 TW5      0.075700
     51 H8          2.6250    2.7160    1.0260 hc        1 TW5      0.075700
     52 H9          5.0190   -0.7320    1.8120 ha        1 TW5      0.136000
     53 H10         6.5050   -1.9680    3.3900 ha        1 TW5      0.134000
     54 H11         6.9140   -1.1310    5.6800 ha        1 TW5      0.132000
     55 H12         5.8540    0.9790    6.4910 ha        1 TW5      0.133000
     56 H13         4.2020    3.1100    5.5320 hn        1 TW5      0.297700
     57 H14         2.8360    3.6890    3.4800 h4        1 TW5      0.167000
     58 H15         0.9560    1.2470    2.4410 hn        1 TW5      0.322500
     59 H16        -3.4980   -1.8980    4.1040 ha        1 TW5      0.156000
     60 H17        -0.5870    0.1660    6.6300 ha        1 TW5      0.144000
     61 H18         0.9710    0.2410    4.7400 ha        1 TW5      0.147000
     62 H19        -3.9400   -2.7850    6.0680 h1        1 TW5      0.051200
     63 H20        -4.9560   -1.2880    5.7860 h1        1 TW5      0.051200
     64 H21        -4.3430   -2.8020    8.4220 h1        1 TW5      0.050200
     65 H22        -5.9480   -2.5090    7.5940 h1        1 TW5      0.050200
     66 H23        -3.2370   -0.5910    9.4730 h1        1 TW5      0.050200
     67 H24        -4.2120    0.9320    9.2330 h1        1 TW5      0.050200
     68 H25        -3.8230    0.9800    6.8600 h1        1 TW5      0.051200
     69 H26        -2.2300    0.6690    7.6950 h1        1 TW5      0.051200
     70 H27        -6.1020   -3.1340    9.7880 ha        1 TW5      0.139500
     71 H28        -7.6610   -3.2370   11.6820 ha        1 TW5      0.148000
     72 H29        -7.6990    1.0870   11.9250 ha        1 TW5      0.148000
     73 H30        -6.1600    1.2220   10.0070 ha        1 TW5      0.139500
@<TRIPOS>BOND
     1    1    2 2   
     2    2    3 1   
     3    2   10 1   
     4    3    4 1   
     5    3   44 1   
     6    4    5 ar  
     7    4    9 ar  
     8    5    6 ar  
     9    5   45 1   
    10    6    7 ar  
    11    6   46 1   
    12    7    8 ar  
    13    8    9 ar  
    14    8   47 1   
    15    9   48 1   
    16   10   11 1   
    17   10   21 1   
    18   10   49 1   
    19   11   12 1   
    20   11   50 1   
    21   11   51 1   
    22   12   13 1   
    23   12   20 2   
    24   13   14 ar  
    25   13   18 ar  
    26   14   15 ar  
    27   14   52 1   
    28   15   16 ar  
    29   15   53 1   
    30   16   17 ar  
    31   16   54 1   
    32   17   18 ar  
    33   17   55 1   
    34   18   19 1   
    35   19   20 1   
    36   19   56 1   
    37   20   57 1   
    38   21   22 1   
    39   21   58 1   
    40   22   23 2   
    41   22   24 1   
    42   24   25 ar  
    43   24   30 ar  
    44   25   26 1   
    45   25   27 ar  
    46   27   28 ar  
    47   27   59 1   
    48   28   29 ar  
    49   28   31 1   
    50   29   30 ar  
    51   29   60 1   
    52   30   61 1   
    53   31   32 1   
    54   31   36 1   
    55   32   33 1   
    56   32   62 1   
    57   32   63 1   
    58   33   34 1   
    59   33   64 1   
    60   33   65 1   
    61   34   35 1   
    62   34   37 1   
    63   35   36 1   
    64   35   66 1   
    65   35   67 1   
    66   36   68 1   
    67   36   69 1   
    68   37   38 ar  
    69   37   43 ar  
    70   38   39 ar  
    71   38   70 1   
    72   39   40 ar  
    73   39   71 1   
    74   40   41 1   
    75   40   42 ar  
    76   42   43 ar  
    77   42   72 1   
    78   43   73 1   
@<TRIPOS>SUBSTRUCTURE
     1 TW5         1 TEMP              0 ****  ****    0 ROOT
