@<TRIPOS>MOLECULE
TW5
   74    79     1     0     0
SMALL
bcc


@<TRIPOS>ATOM
      1 O1          0.1620    1.0650    0.3310 o         1 TW5     -0.594100
      2 C1          1.1710    0.4010    0.0190 c         1 TW5      0.657100
      3 N1          1.4550   -0.0900   -1.2260 ns        1 TW5     -0.432100
      4 C2          0.6640    0.0540   -2.3870 ca        1 TW5      0.072600
      5 C3         -0.5240    0.8090   -2.4310 ca        1 TW5     -0.273800
      6 C4         -1.2210    0.8810   -3.6510 ca        1 TW5      0.424200
      7 N2         -0.8270    0.2750   -4.7840 nb        1 TW5     -0.654000
      8 C5          0.3120   -0.4440   -4.7300 ca        1 TW5      0.424200
      9 C6          1.0910   -0.5900   -3.5740 ca        1 TW5     -0.273800
     10 C7          2.2410    0.1190    1.1130 c3        1 TW5      0.037500
     11 C8          3.3700    1.1490    0.9280 c3        1 TW5     -0.007200
     12 C9          4.1880    1.3660    2.1250 cc        1 TW5     -0.250400
     13 C10         4.8050    0.3770    2.9870 ca        1 TW5     -0.111800
     14 C11         4.7990   -1.0200    3.0460 ca        1 TW5     -0.123000
     15 C12         5.5390   -1.6560    4.0300 ca        1 TW5     -0.124000
     16 C13         6.2930   -0.9260    4.9690 ca        1 TW5     -0.103000
     17 C14         6.3300    0.4580    4.9480 ca        1 TW5     -0.123000
     18 C15         5.5870    1.1150    3.9530 ca        1 TW5     -0.050200
     19 N3          5.4350    2.4820    3.6850 na        1 TW5     -0.169400
     20 C16         4.6140    2.6240    2.5770 cd        1 TW5     -0.053100
     21 N4          1.6130    0.1840    2.4700 ny        1 TW5     -0.668800
     22 C17         1.0430   -1.1410    2.9600 c         1 TW5      0.591700
     23 O2          1.5380   -2.1470    2.4620 o         1 TW5     -0.458100
     24 C18        -0.0100   -1.0510    3.9470 ca        1 TW5     -0.326600
     25 C19        -0.8270   -2.1990    4.1710 ca        1 TW5      0.281900
     26 F1         -0.6230   -3.3160    3.4450 f         1 TW5     -0.100900
     27 C20        -1.8510   -2.1850    5.1160 ca        1 TW5     -0.280000
     28 C21        -2.1000   -1.0320    5.9150 ca        1 TW5      0.290600
     29 C22        -1.2800    0.1200    5.6620 ca        1 TW5     -0.224000
     30 C23        -0.2790    0.0950    4.7220 ca        1 TW5     -0.014000
     31 N5         -3.0520   -1.0360    6.9040 nh        1 TW5     -0.623000
     32 C24        -3.9630   -2.1630    7.0000 c3        1 TW5      0.198300
     33 C25        -4.8650   -2.1840    8.2510 c3        1 TW5      0.172300
     34 N6         -5.4060   -0.8730    8.5540 nh        1 TW5     -0.629000
     35 C26        -4.3370    0.0860    8.7740 c3        1 TW5      0.172300
     36 C27        -3.4070    0.2140    7.5510 c3        1 TW5      0.198300
     37 C28        -6.4580   -0.8280    9.5140 ca        1 TW5      0.105600
     38 C29        -6.7810   -1.9200   10.3440 ca        1 TW5     -0.145500
     39 C30        -7.8690   -1.8570   11.2100 ca        1 TW5     -0.103000
     40 C31        -8.6470   -0.6980   11.2730 ca        1 TW5      0.006400
     41 Cl1        -9.9680   -0.6200   12.3340 cl        1 TW5     -0.072400
     42 C32        -8.3370    0.3980   10.4610 ca        1 TW5     -0.103000
     43 C33        -7.2570    0.3360    9.5890 ca        1 TW5     -0.145500
     44 H1          2.2910   -0.6250   -1.3400 hn        1 TW5      0.334500
     45 H2         -0.9180    1.3350   -1.5500 ha        1 TW5      0.162500
     46 H3         -2.1590    1.4660   -3.7180 h4        1 TW5      0.038600
     47 H4          0.6170   -0.9350   -5.6740 h4        1 TW5      0.038600
     48 H5          2.0080   -1.1940   -3.6100 ha        1 TW5      0.162500
     49 H6          2.6690   -0.9250    0.9980 hx        1 TW5      0.136700
     50 H7          4.0160    0.7650    0.0880 hc        1 TW5      0.083200
     51 H8          2.9280    2.1280    0.5920 hc        1 TW5      0.083200
     52 H9          4.2270   -1.6100    2.3140 ha        1 TW5      0.130000
     53 H10         5.5490   -2.7560    4.0800 ha        1 TW5      0.149000
     54 H11         6.8700   -1.4730    5.7310 ha        1 TW5      0.151000
     55 H12         6.9250    1.0250    5.6780 ha        1 TW5      0.151000
     56 H13         5.9270    3.2080    4.1390 hn        1 TW5      0.318700
     57 H14         4.3800    3.6140    2.1720 h4        1 TW5      0.182000
     58 H15         0.8510    0.8790    2.4420 hn        1 TW5      0.475300
     59 H16        -2.4600   -3.0970    5.2160 ha        1 TW5      0.175000
     60 H17        -1.4440    1.0530    6.2240 ha        1 TW5      0.159000
     61 H18         0.3270    1.0080    4.6010 ha        1 TW5      0.125000
     62 H19        -3.3560   -3.1140    7.0340 h1        1 TW5      0.061950
     63 H20        -4.6170   -2.1830    6.0800 h1        1 TW5      0.061950
     64 H21        -5.7180   -2.8870    8.0340 h1        1 TW5      0.059950
     65 H22        -4.2690   -2.6050    9.1140 h1        1 TW5      0.059950
     66 H23        -3.7110   -0.1900    9.6730 h1        1 TW5      0.059950
     67 H24        -4.7870    1.1010    8.9610 h1        1 TW5      0.059950
     68 H25        -3.8950    0.8920    6.7920 h1        1 TW5      0.061950
     69 H26        -2.4630    0.7080    7.9230 h1        1 TW5      0.061950
     70 H27        -6.1830   -2.8440   10.3230 ha        1 TW5      0.139500
     71 H28        -8.1090   -2.7220   11.8480 ha        1 TW5      0.155000
     72 H29        -8.9510    1.3110   10.5050 ha        1 TW5      0.155000
     73 H30        -7.0390    1.2040    8.9470 ha        1 TW5      0.139500
     74 H42         2.3330    0.4900    3.1440 hn        1 TW5      0.475300
@<TRIPOS>BOND
     1    1    2 2   
     2    2    3 1   
     3    2   10 1   
     4    3    4 1   
     5    3   44 1   
     6    4    5 ar  
     7    4    9 ar  
     8    5    6 ar  
     9    5   45 1   
    10    6    7 ar  
    11    6   46 1   
    12    7    8 ar  
    13    8    9 ar  
    14    8   47 1   
    15    9   48 1   
    16   10   11 1   
    17   10   21 1   
    18   10   49 1   
    19   11   12 1   
    20   11   50 1   
    21   11   51 1   
    22   12   13 1   
    23   12   20 2   
    24   13   14 ar  
    25   13   18 ar  
    26   14   15 ar  
    27   14   52 1   
    28   15   16 ar  
    29   15   53 1   
    30   16   17 ar  
    31   16   54 1   
    32   17   18 ar  
    33   17   55 1   
    34   18   19 1   
    35   19   20 1   
    36   19   56 1   
    37   20   57 1   
    38   21   22 1   
    39   21   58 1   
    40   21   74 1   
    41   22   23 2   
    42   22   24 1   
    43   24   25 ar  
    44   24   30 ar  
    45   25   26 1   
    46   25   27 ar  
    47   27   28 ar  
    48   27   59 1   
    49   28   29 ar  
    50   28   31 1   
    51   29   30 ar  
    52   29   60 1   
    53   30   61 1   
    54   31   32 1   
    55   31   36 1   
    56   32   33 1   
    57   32   62 1   
    58   32   63 1   
    59   33   34 1   
    60   33   64 1   
    61   33   65 1   
    62   34   35 1   
    63   34   37 1   
    64   35   36 1   
    65   35   66 1   
    66   35   67 1   
    67   36   68 1   
    68   36   69 1   
    69   37   38 ar  
    70   37   43 ar  
    71   38   39 ar  
    72   38   70 1   
    73   39   40 ar  
    74   39   71 1   
    75   40   41 1   
    76   40   42 ar  
    77   42   43 ar  
    78   42   72 1   
    79   43   73 1   
@<TRIPOS>SUBSTRUCTURE
     1 TW5         1 TEMP              0 ****  ****    0 ROOT
