@<TRIPOS>MOLECULE
TWL
   28    29     1     0     0
SMALL
bcc


@<TRIPOS>ATOM
      1 C01         0.3790    0.9620   -0.1380 c3        1 TWL     -0.100100
      2 C02         1.5380   -0.0000   -0.0590 c3        1 TWL      0.137400
      3 O03         2.0800    0.1290    1.2680 os        1 TWL     -0.442900
      4 C04         3.1490   -0.6650    1.5730 c         1 TWL      0.631100
      5 C05         3.6430   -0.4590    2.9810 c3        1 TWL     -0.106700
      6 C06         5.0190    0.2000    2.9330 c3        1 TWL     -0.068400
      7 C07         5.5420    0.5350    4.3230 c3        1 TWL     -0.007100
      8 C08         5.3060   -0.6090    5.2230 cc        1 TWL     -0.111600
      9 C09         4.4350   -1.6860    4.9500 cd        1 TWL     -0.252600
     10 C10         3.6740   -1.8100    3.7050 c3        1 TWL      0.007900
     11 C11         4.5220   -2.5330    6.1140 cd        1 TWL      0.310200
     12 N12         5.3880   -1.9910    7.0130 nc        1 TWL     -0.516800
     13 N13         5.8470   -0.8550    6.4860 na        1 TWL     -0.007600
     14 O14         3.5790   -1.4290    0.7070 o         1 TWL     -0.540000
     15 H011        0.7240    2.0080    0.0420 hc        1 TWL      0.048033
     16 H012       -0.0780    0.8970   -1.1550 hc        1 TWL      0.048033
     17 H013       -0.3930    0.7110    0.6270 hc        1 TWL      0.048033
     18 H021        1.2140   -1.0630   -0.2120 h1        1 TWL      0.051700
     19 H022        2.3420    0.2470   -0.8000 h1        1 TWL      0.051700
     20 H05         2.9300    0.2270    3.5200 hc        1 TWL      0.086700
     21 H061        5.7350   -0.4930    2.4170 hc        1 TWL      0.061200
     22 H062        4.9580    1.1440    2.3310 hc        1 TWL      0.061200
     23 H101        2.6240   -2.1460    3.9130 hc        1 TWL      0.065200
     24 H102        4.1510   -2.5800    3.0370 hc        1 TWL      0.065200
     25 H071        5.0110    1.4420    4.7230 hc        1 TWL      0.057700
     26 H072        6.6340    0.7830    4.2580 hc        1 TWL      0.057700
     27 H13         6.5040   -0.2970    6.9780 hn        1 TWL      0.320700
     28 H11         4.0030   -3.4720    6.3020 h4        1 TWL      0.044100
@<TRIPOS>BOND
     1    1    2 1   
     2    1   15 1   
     3    1   16 1   
     4    1   17 1   
     5    2    3 1   
     6    2   18 1   
     7    2   19 1   
     8    3    4 1   
     9    4    5 1   
    10    4   14 2   
    11    5    6 1   
    12    5   10 1   
    13    5   20 1   
    14    6    7 1   
    15    6   21 1   
    16    6   22 1   
    17    7    8 1   
    18    7   25 1   
    19    7   26 1   
    20    8    9 2   
    21    8   13 1   
    22    9   10 1   
    23    9   11 1   
    24   10   23 1   
    25   10   24 1   
    26   11   12 2   
    27   11   28 1   
    28   12   13 1   
    29   13   27 1   
@<TRIPOS>SUBSTRUCTURE
     1 TWL         1 TEMP              0 ****  ****    0 ROOT
