@<TRIPOS>MOLECULE
TWN
   67    67     1     0     0
SMALL
bcc


@<TRIPOS>ATOM
      1 OAG        -0.6550    1.6960   -1.4640 o         1 TWN     -0.547000
      2 CAE        -0.5730    0.6420   -0.8300 c         1 TWN      0.631100
      3 OAI        -1.6950    0.1690   -0.2080 os        1 TWN     -0.441900
      4 CAJ        -2.8940    0.9490   -0.3630 c3        1 TWN      0.140400
      5 CAM        -3.9740    0.2100    0.4030 c3        1 TWN     -0.082400
      6 CAH        -5.3320    0.8650    0.1960 c3        1 TWN     -0.060700
      7 CAO        -5.3660    2.2460    0.8210 c3        1 TWN     -0.098100
      8 CAB        -6.4270   -0.0040    0.8150 c3        1 TWN      0.144100
      9 OAA        -6.2280   -1.3670    0.3990 os        1 TWN     -0.425600
     10 CAD        -7.4930   -2.0170    0.2400 c3        1 TWN      0.127400
     11 CAF        -8.6000   -0.9980    0.5310 c3        1 TWN     -0.092700
     12 CAN        -9.7770   -1.1560   -0.3940 c3        1 TWN     -0.085100
     13 CAC        -7.8850    0.3650    0.4660 c3        1 TWN     -0.082700
     14 CAK        -8.0470    1.0460   -0.8690 c3        1 TWN     -0.090100
     15 CAL         0.6110   -0.2550   -0.6390 c3        1 TWN     -0.127400
     16 CAP         1.8850    0.5510   -0.4950 c3        1 TWN     -0.079400
     17 CAW         3.0930   -0.3600   -0.4430 c3        1 TWN     -0.078400
     18 CAS         4.3690    0.4380   -0.2800 c3        1 TWN     -0.079400
     19 CAX         5.5800   -0.4690   -0.2330 c3        1 TWN     -0.079400
     20 CAT         6.8560    0.3280   -0.0680 c3        1 TWN     -0.079400
     21 CAU         8.0680   -0.5790   -0.0220 c3        1 TWN     -0.078400
     22 CAV         9.3440    0.2180    0.1430 c3        1 TWN     -0.079400
     23 CAR        10.5560   -0.6880    0.1890 c3        1 TWN     -0.079400
     24 CAQ        11.8330    0.1080    0.3530 c3        1 TWN     -0.080400
     25 CAY        13.0420   -0.7900    0.4000 c3        1 TWN     -0.092100
     26 HAJ1       -2.7090    1.9750    0.0480 h1        1 TWN      0.049700
     27 HAJ2       -3.1340    1.0280   -1.4550 h1        1 TWN      0.049700
     28 HAM1       -4.0130   -0.8560    0.0520 hc        1 TWN      0.066200
     29 HAM2       -3.7180    0.1920    1.4940 hc        1 TWN      0.066200
     30 HAH        -5.5170    0.9480   -0.9110 hc        1 TWN      0.060700
     31 HAO1       -4.7130    2.9450    0.2450 hc        1 TWN      0.038367
     32 HAO2       -6.4060    2.6540    0.8230 hc        1 TWN      0.038367
     33 HAO3       -5.0020    2.2090    1.8760 hc        1 TWN      0.038367
     34 HAB        -6.3070    0.0100    1.9370 h1        1 TWN      0.041700
     35 HAD1       -7.5330   -2.3960   -0.8140 h1        1 TWN      0.045700
     36 HAD2       -7.5140   -2.8780    0.9540 h1        1 TWN      0.045700
     37 HAF        -8.9570   -1.1490    1.5870 hc        1 TWN      0.053700
     38 HAN1      -10.2500   -2.1560   -0.2380 hc        1 TWN      0.039033
     39 HAN2      -10.5410   -0.3670   -0.1890 hc        1 TWN      0.039033
     40 HAN3       -9.4660   -1.0800   -1.4640 hc        1 TWN      0.039033
     41 HAC        -8.2900    1.0420    1.2640 hc        1 TWN      0.057700
     42 HAK1       -9.1270    1.2540   -1.0690 hc        1 TWN      0.040367
     43 HAK2       -7.5020    2.0210   -0.8850 hc        1 TWN      0.040367
     44 HAK3       -7.6500    0.4030   -1.6920 hc        1 TWN      0.040367
     45 HAL1        0.6720   -0.9240   -1.5400 hc        1 TWN      0.077700
     46 HAL2        0.4510   -0.9050    0.2610 hc        1 TWN      0.077700
     47 HAP1        1.8360    1.1680    0.4410 hc        1 TWN      0.057200
     48 HAP2        1.9760    1.2630   -1.3570 hc        1 TWN      0.057200
     49 HAW1        3.1480   -0.9680   -1.3850 hc        1 TWN      0.041200
     50 HAW2        2.9870   -1.0800    0.4100 hc        1 TWN      0.041200
     51 HAS1        4.3160    1.0430    0.6630 hc        1 TWN      0.042700
     52 HAS2        4.4720    1.1610   -1.1310 hc        1 TWN      0.042700
     53 HAX1        5.6340   -1.0740   -1.1760 hc        1 TWN      0.039700
     54 HAX2        5.4760   -1.1930    0.6180 hc        1 TWN      0.039700
     55 HAT1        6.8030    0.9330    0.8750 hc        1 TWN      0.040200
     56 HAT2        6.9600    1.0510   -0.9190 hc        1 TWN      0.040200
     57 HAU1        8.1210   -1.1840   -0.9650 hc        1 TWN      0.039700
     58 HAU2        7.9640   -1.3020    0.8290 hc        1 TWN      0.039700
     59 HAV1        9.2910    0.8240    1.0860 hc        1 TWN      0.039700
     60 HAV2        9.4480    0.9420   -0.7090 hc        1 TWN      0.039700
     61 HAR1       10.6090   -1.2930   -0.7540 hc        1 TWN      0.039700
     62 HAR2       10.4520   -1.4110    1.0400 hc        1 TWN      0.039700
     63 HAQ1       11.7770    0.7140    1.2960 hc        1 TWN      0.038700
     64 HAQ2       11.9340    0.8320   -0.4980 hc        1 TWN      0.038700
     65 HAY1       13.9720   -0.1830    0.5220 hc        1 TWN      0.032700
     66 HAY2       12.9710   -1.5020    1.2580 hc        1 TWN      0.032700
     67 HAY3       13.1290   -1.3840   -0.5410 hc        1 TWN      0.032700
@<TRIPOS>BOND
     1    1    2 2   
     2    2    3 1   
     3    2   15 1   
     4    3    4 1   
     5    4    5 1   
     6    4   26 1   
     7    4   27 1   
     8    5    6 1   
     9    5   28 1   
    10    5   29 1   
    11    6    7 1   
    12    6    8 1   
    13    6   30 1   
    14    7   31 1   
    15    7   32 1   
    16    7   33 1   
    17    8    9 1   
    18    8   13 1   
    19    8   34 1   
    20    9   10 1   
    21   10   11 1   
    22   10   35 1   
    23   10   36 1   
    24   11   12 1   
    25   11   13 1   
    26   11   37 1   
    27   12   38 1   
    28   12   39 1   
    29   12   40 1   
    30   13   14 1   
    31   13   41 1   
    32   14   42 1   
    33   14   43 1   
    34   14   44 1   
    35   15   16 1   
    36   15   45 1   
    37   15   46 1   
    38   16   17 1   
    39   16   47 1   
    40   16   48 1   
    41   17   18 1   
    42   17   49 1   
    43   17   50 1   
    44   18   19 1   
    45   18   51 1   
    46   18   52 1   
    47   19   20 1   
    48   19   53 1   
    49   19   54 1   
    50   20   21 1   
    51   20   55 1   
    52   20   56 1   
    53   21   22 1   
    54   21   57 1   
    55   21   58 1   
    56   22   23 1   
    57   22   59 1   
    58   22   60 1   
    59   23   24 1   
    60   23   61 1   
    61   23   62 1   
    62   24   25 1   
    63   24   63 1   
    64   24   64 1   
    65   25   65 1   
    66   25   66 1   
    67   25   67 1   
@<TRIPOS>SUBSTRUCTURE
     1 TWN         1 TEMP              0 ****  ****    0 ROOT
