@<TRIPOS>MOLECULE
TWN
   67    67     1     0     0
SMALL
bcc


@<TRIPOS>ATOM
      1 OAG        -0.7790   -0.6760    0.2480 o         1 TWN     -0.547000
      2 CAE         0.4420   -0.6540    0.0810 c         1 TWN      0.631100
      3 OAI         1.2400   -0.4010    1.1610 os        1 TWN     -0.441900
      4 CAJ         0.5740   -0.1940    2.4200 c3        1 TWN      0.140400
      5 CAM         1.6720    0.0520    3.4370 c3        1 TWN     -0.082400
      6 CAH         1.0980    0.1450    4.8440 c3        1 TWN     -0.060700
      7 CAO         0.2260    1.3770    4.9900 c3        1 TWN     -0.098100
      8 CAB         2.2350    0.1980    5.8650 c3        1 TWN      0.144100
      9 OAA         3.1850   -0.8380    5.5560 os        1 TWN     -0.425600
     10 CAD         3.7520   -1.3540    6.7630 c3        1 TWN      0.127400
     11 CAF         3.0990   -0.6370    7.9500 c3        1 TWN     -0.092700
     12 CAN         2.8500   -1.5640    9.1090 c3        1 TWN     -0.085100
     13 CAC         1.8430    0.0210    7.3480 c3        1 TWN     -0.082700
     14 CAK         0.5940   -0.7970    7.5640 c3        1 TWN     -0.090100
     15 CAL         1.2270   -0.8900   -1.1710 c3        1 TWN     -0.127400
     16 CAP         0.5180   -0.3070   -2.3760 c3        1 TWN     -0.079400
     17 CAW         1.2430   -0.6700   -3.6540 c3        1 TWN     -0.078400
     18 CAS         0.5490   -0.0750   -4.8600 c3        1 TWN     -0.079400
     19 CAX         1.2690   -0.4390   -6.1410 c3        1 TWN     -0.079400
     20 CAT         0.5770    0.1560   -7.3480 c3        1 TWN     -0.079400
     21 CAU         1.2950   -0.2080   -8.6290 c3        1 TWN     -0.078400
     22 CAV         0.6030    0.3870   -9.8360 c3        1 TWN     -0.079400
     23 CAR         1.3210    0.0230  -11.1180 c3        1 TWN     -0.079400
     24 CAQ         0.6300    0.6180  -12.3260 c3        1 TWN     -0.080400
     25 CAY         1.3420    0.2570  -13.6040 c3        1 TWN     -0.092100
     26 HAJ1       -0.1150    0.6840    2.3200 h1        1 TWN      0.049700
     27 HAJ2       -0.0270   -1.1080    2.6640 h1        1 TWN      0.049700
     28 HAM1        2.4160   -0.7880    3.3890 hc        1 TWN      0.066200
     29 HAM2        2.2190    0.9960    3.1810 hc        1 TWN      0.066200
     30 HAH         0.4820   -0.7780    5.0340 hc        1 TWN      0.060700
     31 HAO1       -0.7110    1.2580    4.3960 hc        1 TWN      0.038367
     32 HAO2        0.7640    2.2850    4.6250 hc        1 TWN      0.038367
     33 HAO3       -0.0510    1.5410    6.0600 hc        1 TWN      0.038367
     34 HAB         2.7790    1.1790    5.7480 h1        1 TWN      0.041700
     35 HAD1        4.8550   -1.1700    6.7150 h1        1 TWN      0.045700
     36 HAD2        3.5500   -2.4560    6.7720 h1        1 TWN      0.045700
     37 HAF         3.7860    0.1850    8.2950 hc        1 TWN      0.053700
     38 HAN1        2.2240   -2.4370    8.8040 hc        1 TWN      0.039033
     39 HAN2        3.8230   -1.9520    9.4990 hc        1 TWN      0.039033
     40 HAN3        2.3280   -1.0230    9.9350 hc        1 TWN      0.039033
     41 HAC         1.6900    1.0340    7.8070 hc        1 TWN      0.057700
     42 HAK1       -0.2910   -0.2980    7.0990 hc        1 TWN      0.040367
     43 HAK2        0.7060   -1.8140    7.1150 hc        1 TWN      0.040367
     44 HAK3        0.3900   -0.9100    8.6570 hc        1 TWN      0.040367
     45 HAL1        2.2520   -0.4460   -1.0640 hc        1 TWN      0.077700
     46 HAL2        1.3450   -2.0010   -1.2880 hc        1 TWN      0.077700
     47 HAP1        0.4610    0.8080   -2.2750 hc        1 TWN      0.057200
     48 HAP2       -0.5370   -0.6910   -2.4090 hc        1 TWN      0.057200
     49 HAW1        2.3010   -0.2990   -3.6060 hc        1 TWN      0.041200
     50 HAW2        1.2880   -1.7860   -3.7590 hc        1 TWN      0.041200
     51 HAS1        0.5070    1.0420   -4.7570 hc        1 TWN      0.042700
     52 HAS2       -0.5090   -0.4430   -4.9050 hc        1 TWN      0.042700
     53 HAX1        1.3110   -1.5560   -6.2450 hc        1 TWN      0.039700
     54 HAX2        2.3280   -0.0720   -6.0960 hc        1 TWN      0.039700
     55 HAT1       -0.4830   -0.2110   -7.3930 hc        1 TWN      0.040200
     56 HAT2        0.5340    1.2730   -7.2450 hc        1 TWN      0.040200
     57 HAU1        2.3540    0.1590   -8.5840 hc        1 TWN      0.039700
     58 HAU2        1.3370   -1.3250   -8.7330 hc        1 TWN      0.039700
     59 HAV1        0.5610    1.5040   -9.7330 hc        1 TWN      0.039700
     60 HAV2       -0.4560    0.0200   -9.8820 hc        1 TWN      0.039700
     61 HAR1        1.3630   -1.0940  -11.2210 hc        1 TWN      0.039700
     62 HAR2        2.3810    0.3900  -11.0730 hc        1 TWN      0.039700
     63 HAQ1       -0.4300    0.2500  -12.3680 hc        1 TWN      0.038700
     64 HAQ2        0.5870    1.7340  -12.2200 hc        1 TWN      0.038700
     65 HAY1        0.8160    0.7060  -14.4810 hc        1 TWN      0.032700
     66 HAY2        2.3920    0.6370  -13.5910 hc        1 TWN      0.032700
     67 HAY3        1.3720   -0.8510  -13.7400 hc        1 TWN      0.032700
@<TRIPOS>BOND
     1    1    2 2   
     2    2    3 1   
     3    2   15 1   
     4    3    4 1   
     5    4    5 1   
     6    4   26 1   
     7    4   27 1   
     8    5    6 1   
     9    5   28 1   
    10    5   29 1   
    11    6    7 1   
    12    6    8 1   
    13    6   30 1   
    14    7   31 1   
    15    7   32 1   
    16    7   33 1   
    17    8    9 1   
    18    8   13 1   
    19    8   34 1   
    20    9   10 1   
    21   10   11 1   
    22   10   35 1   
    23   10   36 1   
    24   11   12 1   
    25   11   13 1   
    26   11   37 1   
    27   12   38 1   
    28   12   39 1   
    29   12   40 1   
    30   13   14 1   
    31   13   41 1   
    32   14   42 1   
    33   14   43 1   
    34   14   44 1   
    35   15   16 1   
    36   15   45 1   
    37   15   46 1   
    38   16   17 1   
    39   16   47 1   
    40   16   48 1   
    41   17   18 1   
    42   17   49 1   
    43   17   50 1   
    44   18   19 1   
    45   18   51 1   
    46   18   52 1   
    47   19   20 1   
    48   19   53 1   
    49   19   54 1   
    50   20   21 1   
    51   20   55 1   
    52   20   56 1   
    53   21   22 1   
    54   21   57 1   
    55   21   58 1   
    56   22   23 1   
    57   22   59 1   
    58   22   60 1   
    59   23   24 1   
    60   23   61 1   
    61   23   62 1   
    62   24   25 1   
    63   24   63 1   
    64   24   64 1   
    65   25   65 1   
    66   25   66 1   
    67   25   67 1   
@<TRIPOS>SUBSTRUCTURE
     1 TWN         1 TEMP              0 ****  ****    0 ROOT
