@<TRIPOS>MOLECULE
TWN
   67    67     1     0     0
SMALL
bcc


@<TRIPOS>ATOM
      1 OAG        -0.7660   -0.7110    0.2450 o         1 TWN     -0.547000
      2 CAE         0.4550   -0.6620    0.0800 c         1 TWN      0.631100
      3 OAI         1.2470   -0.3960    1.1620 os        1 TWN     -0.441900
      4 CAJ         0.5750   -0.2080    2.4200 c3        1 TWN      0.140400
      5 CAM         1.6660    0.0560    3.4400 c3        1 TWN     -0.082400
      6 CAH         1.0880    0.1310    4.8470 c3        1 TWN     -0.060700
      7 CAO         0.1920    1.3450    4.9970 c3        1 TWN     -0.098100
      8 CAB         2.2220    0.2030    5.8700 c3        1 TWN      0.144100
      9 OAA         3.1930   -0.8130    5.5570 os        1 TWN     -0.425600
     10 CAD         3.7690   -1.3230    6.7630 c3        1 TWN      0.127400
     11 CAF         3.0990   -0.6240    7.9520 c3        1 TWN     -0.092700
     12 CAN         2.8680   -1.5610    9.1070 c3        1 TWN     -0.085100
     13 CAC         1.8320    0.0110    7.3510 c3        1 TWN     -0.082700
     14 CAK         0.5990   -0.8330    7.5620 c3        1 TWN     -0.090100
     15 CAL         1.2470   -0.8770   -1.1730 c3        1 TWN     -0.127400
     16 CAP         0.5230   -0.3130   -2.3770 c3        1 TWN     -0.079400
     17 CAW         1.2590   -0.6550   -3.6550 c3        1 TWN     -0.078400
     18 CAS         0.5500   -0.0780   -4.8620 c3        1 TWN     -0.079400
     19 CAX         1.2800   -0.4240   -6.1420 c3        1 TWN     -0.079400
     20 CAT         0.5720    0.1530   -7.3490 c3        1 TWN     -0.079400
     21 CAU         1.3010   -0.1930   -8.6300 c3        1 TWN     -0.078400
     22 CAV         0.5930    0.3830   -9.8380 c3        1 TWN     -0.079400
     23 CAR         1.3210    0.0380  -11.1190 c3        1 TWN     -0.079400
     24 CAQ         0.6140    0.6130  -12.3280 c3        1 TWN     -0.080400
     25 CAY         1.3360    0.2720  -13.6050 c3        1 TWN     -0.092100
     26 HAJ1       -0.1330    0.6560    2.3230 h1        1 TWN      0.049700
     27 HAJ2       -0.0080   -1.1350    2.6600 h1        1 TWN      0.049700
     28 HAM1        2.1940    1.0120    3.1890 hc        1 TWN      0.066200
     29 HAM2        2.4260   -0.7690    3.3890 hc        1 TWN      0.066200
     30 HAH         0.4900   -0.8040    5.0310 hc        1 TWN      0.060700
     31 HAO1        0.7120    2.2650    4.6370 hc        1 TWN      0.038367
     32 HAO2       -0.7420    1.2100    4.4000 hc        1 TWN      0.038367
     33 HAO3       -0.0910    1.4980    6.0660 hc        1 TWN      0.038367
     34 HAB         2.7470    1.1950    5.7570 h1        1 TWN      0.041700
     35 HAD1        3.5890   -2.4290    6.7670 h1        1 TWN      0.045700
     36 HAD2        4.8680   -1.1170    6.7180 h1        1 TWN      0.045700
     37 HAF         3.7700    0.2100    8.3010 hc        1 TWN      0.053700
     38 HAN1        3.8480   -1.9300    9.4970 hc        1 TWN      0.039033
     39 HAN2        2.3340   -1.0340    9.9350 hc        1 TWN      0.039033
     40 HAN3        2.2600   -2.4450    8.7970 hc        1 TWN      0.039033
     41 HAC         1.6580    1.0190    7.8140 hc        1 TWN      0.057700
     42 HAK1        0.3960   -0.9540    8.6540 hc        1 TWN      0.040367
     43 HAK2       -0.2950   -0.3490    7.0980 hc        1 TWN      0.040367
     44 HAK3        0.7320   -1.8450    7.1090 hc        1 TWN      0.040367
     45 HAL1        2.2590   -0.4060   -1.0640 hc        1 TWN      0.077700
     46 HAL2        1.3940   -1.9840   -1.2890 hc        1 TWN      0.077700
     47 HAP1        0.4370    0.8010   -2.2760 hc        1 TWN      0.057200
     48 HAP2       -0.5210   -0.7240   -2.4120 hc        1 TWN      0.057200
     49 HAW1        1.3330   -1.7700   -3.7600 hc        1 TWN      0.041200
     50 HAW2        2.3060   -0.2560   -3.6060 hc        1 TWN      0.041200
     51 HAS1        0.4780    1.0370   -4.7580 hc        1 TWN      0.042700
     52 HAS2       -0.4990   -0.4740   -4.9070 hc        1 TWN      0.042700
     53 HAX1        1.3510   -1.5390   -6.2450 hc        1 TWN      0.039700
     54 HAX2        2.3290   -0.0280   -6.0960 hc        1 TWN      0.039700
     55 HAT1       -0.4770   -0.2430   -7.3950 hc        1 TWN      0.040200
     56 HAT2        0.5000    1.2680   -7.2470 hc        1 TWN      0.040200
     57 HAU1        1.3730   -1.3080   -8.7330 hc        1 TWN      0.039700
     58 HAU2        2.3490    0.2030   -8.5850 hc        1 TWN      0.039700
     59 HAV1        0.5200    1.4980   -9.7350 hc        1 TWN      0.039700
     60 HAV2       -0.4560   -0.0130   -9.8830 hc        1 TWN      0.039700
     61 HAR1        1.3940   -1.0770  -11.2220 hc        1 TWN      0.039700
     62 HAR2        2.3700    0.4350  -11.0740 hc        1 TWN      0.039700
     63 HAQ1       -0.4350    0.2170  -12.3700 hc        1 TWN      0.038700
     64 HAQ2        0.5410    1.7280  -12.2220 hc        1 TWN      0.038700
     65 HAY1        0.7980    0.7050  -14.4830 hc        1 TWN      0.032700
     66 HAY2        2.3750    0.6810  -13.5920 hc        1 TWN      0.032700
     67 HAY3        1.3970   -0.8350  -13.7400 hc        1 TWN      0.032700
@<TRIPOS>BOND
     1    1    2 2   
     2    2    3 1   
     3    2   15 1   
     4    3    4 1   
     5    4    5 1   
     6    4   26 1   
     7    4   27 1   
     8    5    6 1   
     9    5   28 1   
    10    5   29 1   
    11    6    7 1   
    12    6    8 1   
    13    6   30 1   
    14    7   31 1   
    15    7   32 1   
    16    7   33 1   
    17    8    9 1   
    18    8   13 1   
    19    8   34 1   
    20    9   10 1   
    21   10   11 1   
    22   10   35 1   
    23   10   36 1   
    24   11   12 1   
    25   11   13 1   
    26   11   37 1   
    27   12   38 1   
    28   12   39 1   
    29   12   40 1   
    30   13   14 1   
    31   13   41 1   
    32   14   42 1   
    33   14   43 1   
    34   14   44 1   
    35   15   16 1   
    36   15   45 1   
    37   15   46 1   
    38   16   17 1   
    39   16   47 1   
    40   16   48 1   
    41   17   18 1   
    42   17   49 1   
    43   17   50 1   
    44   18   19 1   
    45   18   51 1   
    46   18   52 1   
    47   19   20 1   
    48   19   53 1   
    49   19   54 1   
    50   20   21 1   
    51   20   55 1   
    52   20   56 1   
    53   21   22 1   
    54   21   57 1   
    55   21   58 1   
    56   22   23 1   
    57   22   59 1   
    58   22   60 1   
    59   23   24 1   
    60   23   61 1   
    61   23   62 1   
    62   24   25 1   
    63   24   63 1   
    64   24   64 1   
    65   25   65 1   
    66   25   66 1   
    67   25   67 1   
@<TRIPOS>SUBSTRUCTURE
     1 TWN         1 TEMP              0 ****  ****    0 ROOT
