@<TRIPOS>MOLECULE
TWO
   22    19     1     0     0
SMALL
bcc


@<TRIPOS>ATOM
      1 O1         -3.0200    0.5110    2.9960 o         1 TWO     -0.563500
      2 C7         -1.7610    0.5110    2.9960 c1        1 TWO      0.358000
      3 O2         -1.1310    0.5110    4.0870 o         1 TWO     -0.563500
      4 C5         -1.0040    0.5110    1.6860 c1        1 TWO     -0.097000
      5 C4         -0.5650   -0.6850    1.1400 c2        1 TWO     -0.127000
      6 C3          0.1280   -0.6850   -0.0610 c1        1 TWO     -0.004000
      7 O4          0.5710   -1.8970   -0.6160 os        1 TWO     -0.238000
      8 C9         -0.4540   -2.6620   -1.2100 c3        1 TWO     -0.067000
      9 C2          0.3820    0.5100   -0.7150 c1        1 TWO      0.006000
     10 O3          1.0430    0.5060   -1.9550 os        1 TWO     -0.231000
     11 C8          2.3580    1.0130   -1.9030 c3        1 TWO     -0.069000
     12 C1         -0.0580    1.7060   -0.1690 c1        1 TWO     -0.157000
     13 C6         -0.7510    1.7060    1.0320 c1        1 TWO     -0.109000
     14 H2         -0.7130   -1.5230    1.6180 ha        1 TWO      0.161000
     15 H3         -1.1110   -2.0650   -1.6170 h1        1 TWO      0.070667
     16 H4         -0.8900   -3.2080   -0.5280 h1        1 TWO      0.070667
     17 H5         -0.0720   -3.2420   -1.8950 h1        1 TWO      0.070667
     18 H6          2.7710    0.7610   -1.0550 h1        1 TWO      0.070333
     19 H7          2.8790    0.6430   -2.6410 h1        1 TWO      0.070333
     20 H8          2.3350    1.9860   -1.9770 h1        1 TWO      0.070333
     21 H9          0.1210    2.5480   -0.6300 ha        1 TWO      0.122000
     22 H10        -1.0600    2.5480    1.4160 ha        1 TWO      0.155000
@<TRIPOS>BOND
     1    1    2 1   
     2    2    3 1   
     3    4    5 1   
     4    4   13 1   
     5    5    6 1   
     6    5   14 1   
     7    6    7 1   
     8    7    8 1   
     9    8   15 1   
    10    8   16 1   
    11    8   17 1   
    12    9   10 1   
    13    9   12 1   
    14   10   11 1   
    15   11   18 1   
    16   11   19 1   
    17   11   20 1   
    18   12   21 1   
    19   13   22 1   
@<TRIPOS>SUBSTRUCTURE
     1 TWO         1 TEMP              0 ****  ****    0 ROOT
