@<TRIPOS>MOLECULE
TWO
   22    22     1     0     0
SMALL
bcc


@<TRIPOS>ATOM
      1 O1         -3.2690   -1.0150    0.4800 o         1 TWO     -0.829300
      2 C7         -2.9130    0.1520    0.1490 c         1 TWO      0.908200
      3 O2         -3.7060    1.1240    0.0030 o         1 TWO     -0.829300
      4 C5         -1.4280    0.4000   -0.0860 ca        1 TWO     -0.101600
      5 C4         -0.5170   -0.6450    0.0760 ca        1 TWO     -0.164000
      6 C3          0.8480   -0.4260   -0.1350 ca        1 TWO      0.066100
      7 O4          1.8260   -1.4000    0.0270 os        1 TWO     -0.344900
      8 C9          1.3390   -2.7170    0.2460 c3        1 TWO      0.118700
      9 C2          1.3040    0.8550   -0.5100 ca        1 TWO      0.035100
     10 O3          2.6360    1.1020   -0.8290 os        1 TWO     -0.341900
     11 C8          3.5090    1.0390    0.2940 c3        1 TWO      0.120700
     12 C1          0.3860    1.9010   -0.6650 ca        1 TWO     -0.142000
     13 C6         -0.9710    1.6680   -0.4600 ca        1 TWO     -0.127000
     14 H2         -0.9140   -1.6300    0.3700 ha        1 TWO      0.161000
     15 H3          0.6560   -3.0340   -0.5790 h1        1 TWO      0.035700
     16 H4          2.2660   -3.3450    0.2550 h1        1 TWO      0.035700
     17 H5          0.8120   -2.7820    1.2290 h1        1 TWO      0.035700
     18 H6          3.2380    1.8210    1.0440 h1        1 TWO      0.029033
     19 H7          3.4750    0.0260    0.7630 h1        1 TWO      0.029033
     20 H8          4.5210    1.2420   -0.1370 h1        1 TWO      0.029033
     21 H9          0.7530    2.8930   -0.9610 ha        1 TWO      0.122000
     22 H10        -1.7120    2.4740   -0.5830 ha        1 TWO      0.155000
@<TRIPOS>BOND
     1    1    2 1   
     2    2    3 1   
     3    2    4 1   
     4    4    5 ar  
     5    4   13 ar  
     6    5    6 ar  
     7    5   14 1   
     8    6    7 1   
     9    6    9 ar  
    10    7    8 1   
    11    8   15 1   
    12    8   16 1   
    13    8   17 1   
    14    9   10 1   
    15    9   12 ar  
    16   10   11 1   
    17   11   18 1   
    18   11   19 1   
    19   11   20 1   
    20   12   13 ar  
    21   12   21 1   
    22   13   22 1   
@<TRIPOS>SUBSTRUCTURE
     1 TWO         1 TEMP              0 ****  ****    0 ROOT
