@<TRIPOS>MOLECULE
TWO
   22    22     1     0     0
SMALL
bcc


@<TRIPOS>ATOM
      1 O1         -0.0860   -0.4920   -0.0410 o         1 TWO     -0.829300
      2 C7          1.1150   -0.1480    0.1470 c         1 TWO      0.908200
      3 O2          1.6400    0.0150    1.2840 o         1 TWO     -0.829300
      4 C5          1.9880    0.0840   -1.0800 ca        1 TWO     -0.101600
      5 C4          1.4500   -0.0970   -2.3560 ca        1 TWO     -0.164000
      6 C3          2.2440    0.1110   -3.4890 ca        1 TWO      0.066100
      7 O4          1.7980   -0.0690   -4.7930 os        1 TWO     -0.344900
      8 C9          0.4030   -0.3020   -4.9310 c3        1 TWO      0.118700
      9 C2          3.5910    0.4990   -3.3410 ca        1 TWO      0.035100
     10 O3          4.3940    0.8150   -4.4330 os        1 TWO     -0.341900
     11 C8          4.7300   -0.3130   -5.2340 c3        1 TWO      0.120700
     12 C1          4.1270    0.6710   -2.0580 ca        1 TWO     -0.142000
     13 C6          3.3250    0.4700   -0.9390 ca        1 TWO     -0.127000
     14 H2          0.3930   -0.4010   -2.4280 ha        1 TWO      0.161000
     15 H3         -0.1890    0.5230   -4.4650 h1        1 TWO      0.035700
     16 H4          0.1220   -1.2830   -4.4750 h1        1 TWO      0.035700
     17 H5          0.2450   -0.3240   -6.0390 h1        1 TWO      0.035700
     18 H6          3.8090   -0.7950   -5.6420 h1        1 TWO      0.029033
     19 H7          5.3530    0.1150   -6.0580 h1        1 TWO      0.029033
     20 H8          5.3210   -1.0530   -4.6390 h1        1 TWO      0.029033
     21 H9          5.1770    0.9780   -1.9560 ha        1 TWO      0.122000
     22 H10         3.7220    0.6080    0.0790 ha        1 TWO      0.155000
@<TRIPOS>BOND
     1    1    2 1   
     2    2    3 1   
     3    2    4 1   
     4    4    5 ar  
     5    4   13 ar  
     6    5    6 ar  
     7    5   14 1   
     8    6    7 1   
     9    6    9 ar  
    10    7    8 1   
    11    8   15 1   
    12    8   16 1   
    13    8   17 1   
    14    9   10 1   
    15    9   12 ar  
    16   10   11 1   
    17   11   18 1   
    18   11   19 1   
    19   11   20 1   
    20   12   13 ar  
    21   12   21 1   
    22   13   22 1   
@<TRIPOS>SUBSTRUCTURE
     1 TWO         1 TEMP              0 ****  ****    0 ROOT
