@<TRIPOS>MOLECULE
TWO
   22    22     1     0     0
SMALL
bcc


@<TRIPOS>ATOM
      1 O1         -0.0310   -0.2980    0.0300 o         1 TWO     -0.829300
      2 C7          1.1830    0.0190    0.1780 c         1 TWO      0.908200
      3 O2          1.7370    0.2120    1.2960 o         1 TWO     -0.829300
      4 C5          2.0340    0.1760   -1.0760 ca        1 TWO     -0.101600
      5 C4          1.4630   -0.0400   -2.3320 ca        1 TWO     -0.164000
      6 C3          2.2370    0.0990   -3.4890 ca        1 TWO      0.066100
      7 O4          1.7580   -0.1210   -4.7740 os        1 TWO     -0.344900
      8 C9          0.3540   -0.3200   -4.8730 c3        1 TWO      0.118700
      9 C2          3.5980    0.4560   -3.3850 ca        1 TWO      0.035100
     10 O3          4.3840    0.7050   -4.5060 os        1 TWO     -0.341900
     11 C8          4.6720   -0.4640   -5.2670 c3        1 TWO      0.120700
     12 C1          4.1660    0.6650   -2.1220 ca        1 TWO     -0.142000
     13 C6          3.3840    0.5310   -0.9790 ca        1 TWO     -0.127000
     14 H2          0.3980   -0.3180   -2.3690 ha        1 TWO      0.161000
     15 H3         -0.2040    0.5390   -4.4290 h1        1 TWO      0.035700
     16 H4          0.0570   -1.2740   -4.3720 h1        1 TWO      0.035700
     17 H5          0.1720   -0.3820   -5.9760 h1        1 TWO      0.035700
     18 H6          3.7300   -0.9360   -5.6360 h1        1 TWO      0.029033
     19 H7          5.2870   -0.0870   -6.1210 h1        1 TWO      0.029033
     20 H8          5.2560   -1.1940   -4.6550 h1        1 TWO      0.029033
     21 H9          5.2260    0.9460   -2.0550 ha        1 TWO      0.122000
     22 H10         3.8080    0.6980    0.0240 ha        1 TWO      0.155000
@<TRIPOS>BOND
     1    1    2 1   
     2    2    3 1   
     3    2    4 1   
     4    4    5 ar  
     5    4   13 ar  
     6    5    6 ar  
     7    5   14 1   
     8    6    7 1   
     9    6    9 ar  
    10    7    8 1   
    11    8   15 1   
    12    8   16 1   
    13    8   17 1   
    14    9   10 1   
    15    9   12 ar  
    16   10   11 1   
    17   11   18 1   
    18   11   19 1   
    19   11   20 1   
    20   12   13 ar  
    21   12   21 1   
    22   13   22 1   
@<TRIPOS>SUBSTRUCTURE
     1 TWO         1 TEMP              0 ****  ****    0 ROOT
