@<TRIPOS>MOLECULE
TWT
   68    67     1     0     0
SMALL
bcc


@<TRIPOS>ATOM
      1 C1         -0.3610   -0.0040   13.1210 c3        1 TWT     -0.092100
      2 C2          0.4800    0.0050   11.8700 c3        1 TWT     -0.080400
      3 C3         -0.3790   -0.0040   10.6230 c3        1 TWT     -0.079400
      4 C4          0.4690    0.0050    9.3700 c3        1 TWT     -0.079400
      5 C5         -0.3910   -0.0040    8.1240 c3        1 TWT     -0.079400
      6 C6          0.4580    0.0050    6.8710 c3        1 TWT     -0.079400
      7 C7         -0.4020   -0.0040    5.6250 c3        1 TWT     -0.079400
      8 C8          0.4470    0.0050    4.3720 c3        1 TWT     -0.079400
      9 C9         -0.4130   -0.0040    3.1260 c3        1 TWT     -0.079400
     10 C10         0.4350    0.0050    1.8730 c3        1 TWT     -0.079400
     11 C11        -0.4240   -0.0050    0.6270 c3        1 TWT     -0.079400
     12 C12         0.4240    0.0050   -0.6270 c3        1 TWT     -0.079400
     13 C13        -0.4350   -0.0050   -1.8730 c3        1 TWT     -0.079400
     14 C14         0.4130    0.0040   -3.1260 c3        1 TWT     -0.079400
     15 C15        -0.4470   -0.0050   -4.3720 c3        1 TWT     -0.079400
     16 C16         0.4020    0.0040   -5.6250 c3        1 TWT     -0.079400
     17 C17        -0.4580   -0.0050   -6.8710 c3        1 TWT     -0.079400
     18 C18         0.3910    0.0040   -8.1240 c3        1 TWT     -0.079400
     19 C19        -0.4690   -0.0050   -9.3700 c3        1 TWT     -0.079400
     20 C20         0.3790    0.0040  -10.6230 c3        1 TWT     -0.079400
     21 C21        -0.4800   -0.0050  -11.8700 c3        1 TWT     -0.080400
     22 C22         0.3610    0.0040  -13.1210 c3        1 TWT     -0.092100
     23 H1C1        0.2910    0.0030   14.0270 hc        1 TWT      0.032700
     24 H1C2       -1.0240    0.8940   13.1570 hc        1 TWT      0.032700
     25 H1C3       -1.0050   -0.9160   13.1570 hc        1 TWT      0.032700
     26 H2C1        1.1370    0.9150   11.8640 hc        1 TWT      0.038700
     27 H2C2        1.1560   -0.8900   11.8640 hc        1 TWT      0.038700
     28 H3C1       -1.0360   -0.9140   10.6270 hc        1 TWT      0.039700
     29 H3C2       -1.0550    0.8910   10.6270 hc        1 TWT      0.039700
     30 H4C1        1.1260    0.9150    9.3670 hc        1 TWT      0.039700
     31 H4C2        1.1450   -0.8900    9.3670 hc        1 TWT      0.039700
     32 H5C1       -1.0470   -0.9140    8.1270 hc        1 TWT      0.039700
     33 H5C2       -1.0670    0.8910    8.1270 hc        1 TWT      0.039700
     34 H6C1        1.1150    0.9150    6.8680 hc        1 TWT      0.039700
     35 H6C2        1.1340   -0.8900    6.8680 hc        1 TWT      0.039700
     36 H7C1       -1.0580   -0.9140    5.6280 hc        1 TWT      0.039700
     37 H7C2       -1.0780    0.8910    5.6280 hc        1 TWT      0.039700
     38 H8C1        1.1030    0.9150    4.3690 hc        1 TWT      0.039700
     39 H8C2        1.1230   -0.8900    4.3690 hc        1 TWT      0.039700
     40 H9C1       -1.0700   -0.9140    3.1290 hc        1 TWT      0.039700
     41 H9C2       -1.0890    0.8910    3.1290 hc        1 TWT      0.039700
     42 H101        1.0920    0.9140    1.8690 hc        1 TWT      0.039700
     43 H102        1.1120   -0.8910    1.8690 hc        1 TWT      0.039700
     44 H111       -1.0810   -0.9140    0.6300 hc        1 TWT      0.039700
     45 H112       -1.1000    0.8910    0.6300 hc        1 TWT      0.039700
     46 H121        1.0810    0.9140   -0.6300 hc        1 TWT      0.039700
     47 H122        1.1000   -0.8910   -0.6300 hc        1 TWT      0.039700
     48 H131       -1.0920   -0.9140   -1.8690 hc        1 TWT      0.039700
     49 H132       -1.1120    0.8910   -1.8690 hc        1 TWT      0.039700
     50 H141        1.0700    0.9140   -3.1290 hc        1 TWT      0.039700
     51 H142        1.0890   -0.8910   -3.1290 hc        1 TWT      0.039700
     52 H151       -1.1030   -0.9150   -4.3690 hc        1 TWT      0.039700
     53 H152       -1.1230    0.8900   -4.3690 hc        1 TWT      0.039700
     54 H161        1.0580    0.9140   -5.6280 hc        1 TWT      0.039700
     55 H162        1.0780   -0.8910   -5.6280 hc        1 TWT      0.039700
     56 H171       -1.1150   -0.9150   -6.8680 hc        1 TWT      0.039700
     57 H172       -1.1340    0.8900   -6.8680 hc        1 TWT      0.039700
     58 H181        1.0470    0.9140   -8.1270 hc        1 TWT      0.039700
     59 H182        1.0670   -0.8910   -8.1270 hc        1 TWT      0.039700
     60 H191       -1.1260   -0.9150   -9.3670 hc        1 TWT      0.039700
     61 H192       -1.1450    0.8900   -9.3670 hc        1 TWT      0.039700
     62 H201        1.0360    0.9140  -10.6270 hc        1 TWT      0.039700
     63 H202        1.0550   -0.8910  -10.6270 hc        1 TWT      0.039700
     64 H211       -1.1370   -0.9150  -11.8640 hc        1 TWT      0.038700
     65 H212       -1.1560    0.8900  -11.8640 hc        1 TWT      0.038700
     66 H221       -0.2910   -0.0030  -14.0270 hc        1 TWT      0.032700
     67 H222        1.0050    0.9160  -13.1570 hc        1 TWT      0.032700
     68 H223        1.0240   -0.8940  -13.1570 hc        1 TWT      0.032700
@<TRIPOS>BOND
     1    1    2 1   
     2    1   23 1   
     3    1   24 1   
     4    1   25 1   
     5    2    3 1   
     6    2   26 1   
     7    2   27 1   
     8    3    4 1   
     9    3   28 1   
    10    3   29 1   
    11    4    5 1   
    12    4   30 1   
    13    4   31 1   
    14    5    6 1   
    15    5   32 1   
    16    5   33 1   
    17    6    7 1   
    18    6   34 1   
    19    6   35 1   
    20    7    8 1   
    21    7   36 1   
    22    7   37 1   
    23    8    9 1   
    24    8   38 1   
    25    8   39 1   
    26    9   10 1   
    27    9   40 1   
    28    9   41 1   
    29   10   11 1   
    30   10   42 1   
    31   10   43 1   
    32   11   12 1   
    33   11   44 1   
    34   11   45 1   
    35   12   13 1   
    36   12   46 1   
    37   12   47 1   
    38   13   14 1   
    39   13   48 1   
    40   13   49 1   
    41   14   15 1   
    42   14   50 1   
    43   14   51 1   
    44   15   16 1   
    45   15   52 1   
    46   15   53 1   
    47   16   17 1   
    48   16   54 1   
    49   16   55 1   
    50   17   18 1   
    51   17   56 1   
    52   17   57 1   
    53   18   19 1   
    54   18   58 1   
    55   18   59 1   
    56   19   20 1   
    57   19   60 1   
    58   19   61 1   
    59   20   21 1   
    60   20   62 1   
    61   20   63 1   
    62   21   22 1   
    63   21   64 1   
    64   21   65 1   
    65   22   66 1   
    66   22   67 1   
    67   22   68 1   
@<TRIPOS>SUBSTRUCTURE
     1 TWT         1 TEMP              0 ****  ****    0 ROOT
