@<TRIPOS>MOLECULE
TWT
   68    67     1     0     0
SMALL
bcc


@<TRIPOS>ATOM
      1 C1        -10.8420   -0.0280   -7.1310 c3        1 TWT     -0.092100
      2 C2         -9.3300   -0.0280   -7.1310 c3        1 TWT     -0.080400
      3 C3         -8.8250   -0.0280   -5.7050 c3        1 TWT     -0.079400
      4 C4         -7.3120   -0.0360   -5.7050 c3        1 TWT     -0.079400
      5 C5         -6.8080   -0.0280   -4.2780 c3        1 TWT     -0.079400
      6 C6         -5.2950   -0.0430   -4.2780 c3        1 TWT     -0.079400
      7 C7         -4.7910   -0.0280   -2.8520 c3        1 TWT     -0.079400
      8 C8         -3.2780   -0.0480   -2.8520 c3        1 TWT     -0.079400
      9 C9         -2.7740   -0.0290   -1.4260 c3        1 TWT     -0.079400
     10 C10        -1.2610   -0.0470   -1.4260 c3        1 TWT     -0.079400
     11 C11        -0.7560   -0.0270    0.0000 c3        1 TWT     -0.079400
     12 C12         0.7560   -0.0400    0.0000 c3        1 TWT     -0.079400
     13 C13         1.2610   -0.0210    1.4270 c3        1 TWT     -0.079400
     14 C14         2.7740   -0.0240    1.4270 c3        1 TWT     -0.079400
     15 C15         3.2780   -0.0060    2.8530 c3        1 TWT     -0.079400
     16 C16         4.7910    0.0010    2.8520 c3        1 TWT     -0.079400
     17 C17         5.2950    0.0190    4.2790 c3        1 TWT     -0.079400
     18 C18         6.8080    0.0350    4.2780 c3        1 TWT     -0.079400
     19 C19         7.3130    0.0560    5.7040 c3        1 TWT     -0.079400
     20 C20         8.8250    0.0790    5.7040 c3        1 TWT     -0.079400
     21 C21         9.3300    0.1050    7.1300 c3        1 TWT     -0.080400
     22 C22        10.8420    0.1320    7.1300 c3        1 TWT     -0.092100
     23 H1C1      -11.1680    0.7680   -6.6690 hc        1 TWT      0.032700
     24 H1C2      -11.1680   -0.0250   -8.0510 hc        1 TWT      0.032700
     25 H1C3      -11.1680   -0.8260   -6.6730 hc        1 TWT      0.032700
     26 H2C1       -9.0040   -0.8250   -7.5910 hc        1 TWT      0.038700
     27 H2C2       -9.0040    0.7690   -7.5910 hc        1 TWT      0.038700
     28 H3C1       -9.1470    0.7720   -5.2460 hc        1 TWT      0.039700
     29 H3C2       -9.1550   -0.8220   -5.2430 hc        1 TWT      0.039700
     30 H4C1       -6.9830    0.7560   -6.1710 hc        1 TWT      0.039700
     31 H4C2       -6.9910   -0.8380   -6.1590 hc        1 TWT      0.039700
     32 H5C1       -7.1410   -0.8170   -3.8110 hc        1 TWT      0.039700
     33 H5C2       -7.1260    0.7770   -3.8260 hc        1 TWT      0.039700
     34 H6C1       -4.9620    0.7440   -4.7500 hc        1 TWT      0.039700
     35 H6C2       -4.9780   -0.8490   -4.7270 hc        1 TWT      0.039700
     36 H7C1       -5.1270   -0.8140   -2.3800 hc        1 TWT      0.039700
     37 H7C2       -5.1060    0.7800   -2.4040 hc        1 TWT      0.039700
     38 H8C1       -2.9430    0.7370   -3.3260 hc        1 TWT      0.039700
     39 H8C2       -2.9630   -0.8570   -3.2980 hc        1 TWT      0.039700
     40 H9C1       -3.0890    0.7800   -0.9800 hc        1 TWT      0.039700
     41 H9C2       -3.1090   -0.8140   -0.9520 hc        1 TWT      0.039700
     42 H101       -0.9260    0.7370   -1.9010 hc        1 TWT      0.039700
     43 H102       -0.9450   -0.8570   -1.8710 hc        1 TWT      0.039700
     44 H111       -1.0750    0.7800    0.4470 hc        1 TWT      0.039700
     45 H112       -1.0880   -0.8130    0.4740 hc        1 TWT      0.039700
     46 H121        1.0880    0.7470   -0.4730 hc        1 TWT      0.039700
     47 H122        1.0750   -0.8470   -0.4470 hc        1 TWT      0.039700
     48 H131        0.9370    0.7830    1.8760 hc        1 TWT      0.039700
     49 H132        0.9340   -0.8110    1.8980 hc        1 TWT      0.039700
     50 H141        3.0970   -0.8270    0.9770 hc        1 TWT      0.039700
     51 H142        3.1010    0.7660    0.9560 hc        1 TWT      0.039700
     52 H151        2.9490    0.7940    3.3040 hc        1 TWT      0.039700
     53 H152        2.9570   -0.8000    3.3210 hc        1 TWT      0.039700
     54 H161        5.1200   -0.7990    2.4010 hc        1 TWT      0.039700
     55 H162        5.1120    0.7950    2.3840 hc        1 TWT      0.039700
     56 H171        4.9610    0.8160    4.7320 hc        1 TWT      0.039700
     57 H172        4.9790   -0.7780    4.7460 hc        1 TWT      0.039700
     58 H181        7.1420   -0.7630    3.8270 hc        1 TWT      0.039700
     59 H182        7.1250    0.8310    3.8100 hc        1 TWT      0.039700
     60 H191        6.9750    0.8520    6.1580 hc        1 TWT      0.039700
     61 H192        7.0000   -0.7420    6.1720 hc        1 TWT      0.039700
     62 H201        9.1380    0.8750    5.2340 hc        1 TWT      0.039700
     63 H202        9.1630   -0.7180    5.2540 hc        1 TWT      0.039700
     64 H211        8.9900    0.9010    7.5810 hc        1 TWT      0.038700
     65 H212        9.0190   -0.6920    7.6000 hc        1 TWT      0.038700
     66 H221       11.1530    0.9300    6.6610 hc        1 TWT      0.032700
     67 H222       11.1820   -0.6640    6.6780 hc        1 TWT      0.032700
     68 H223       11.1680    0.1470    8.0500 hc        1 TWT      0.032700
@<TRIPOS>BOND
     1    1    2 1   
     2    1   23 1   
     3    1   24 1   
     4    1   25 1   
     5    2    3 1   
     6    2   26 1   
     7    2   27 1   
     8    3    4 1   
     9    3   28 1   
    10    3   29 1   
    11    4    5 1   
    12    4   30 1   
    13    4   31 1   
    14    5    6 1   
    15    5   32 1   
    16    5   33 1   
    17    6    7 1   
    18    6   34 1   
    19    6   35 1   
    20    7    8 1   
    21    7   36 1   
    22    7   37 1   
    23    8    9 1   
    24    8   38 1   
    25    8   39 1   
    26    9   10 1   
    27    9   40 1   
    28    9   41 1   
    29   10   11 1   
    30   10   42 1   
    31   10   43 1   
    32   11   12 1   
    33   11   44 1   
    34   11   45 1   
    35   12   13 1   
    36   12   46 1   
    37   12   47 1   
    38   13   14 1   
    39   13   48 1   
    40   13   49 1   
    41   14   15 1   
    42   14   50 1   
    43   14   51 1   
    44   15   16 1   
    45   15   52 1   
    46   15   53 1   
    47   16   17 1   
    48   16   54 1   
    49   16   55 1   
    50   17   18 1   
    51   17   56 1   
    52   17   57 1   
    53   18   19 1   
    54   18   58 1   
    55   18   59 1   
    56   19   20 1   
    57   19   60 1   
    58   19   61 1   
    59   20   21 1   
    60   20   62 1   
    61   20   63 1   
    62   21   22 1   
    63   21   64 1   
    64   21   65 1   
    65   22   66 1   
    66   22   67 1   
    67   22   68 1   
@<TRIPOS>SUBSTRUCTURE
     1 TWT         1 TEMP              0 ****  ****    0 ROOT
