@<TRIPOS>MOLECULE
TX1
   44    46     1     0     0
SMALL
bcc


@<TRIPOS>ATOM
      1 C1          1.2230    0.2370   -0.0600 ca        1 TX1      0.166100
      2 C2          2.3540    0.8740    0.4810 ca        1 TX1     -0.031900
      3 C3          2.4180    2.2710    0.4640 ca        1 TX1     -0.067000
      4 C4          1.3760    3.0220   -0.0860 ca        1 TX1     -0.033900
      5 C5          0.2610    2.3810   -0.6290 ca        1 TX1     -0.078000
      6 C6          0.1770    0.9880   -0.6240 ca        1 TX1     -0.114300
      7 C7         -1.0240    0.3190   -1.2360 c3        1 TX1      0.137300
      8 N8         -2.2270    0.4920   -0.4650 n         1 TX1     -0.553900
      9 C9         -2.9210   -0.5670    0.0670 c         1 TX1      0.670700
     10 C10        -4.0970   -0.2590    0.9430 ca        1 TX1     -0.093600
     11 C11        -4.1310   -0.8860    2.1950 ca        1 TX1     -0.084000
     12 C12        -5.2090   -0.6950    3.0570 ca        1 TX1     -0.106000
     13 C13        -6.2780    0.1130    2.6710 ca        1 TX1     -0.109000
     14 C14        -6.2740    0.7360    1.4240 ca        1 TX1     -0.092000
     15 C15        -5.1750    0.5570    0.5690 ca        1 TX1     -0.125200
     16 N16        -5.2050    1.2550   -0.7550 no        1 TX1      0.305200
     17 O17        -2.6000   -1.7540   -0.1510 o         1 TX1     -0.604100
     18 O18        -5.9810    0.8820   -1.5860 o         1 TX1     -0.192500
     19 O19        -4.4770    2.1970   -0.9260 o         1 TX1     -0.192500
     20 O20         1.0650   -1.1400    0.0660 os        1 TX1     -0.364200
     21 C21         1.5670   -1.9640   -0.9320 c         1 TX1      0.661700
     22 O22         2.0620   -1.4400   -1.9240 o         1 TX1     -0.486000
     23 BR23        3.7850   -0.0700    1.2340 br        1 TX1     -0.051100
     24 BR24        1.4800    4.8900   -0.0960 br        1 TX1     -0.068100
     25 C25         1.3460   -3.3860   -0.6160 ca        1 TX1     -0.122600
     26 C26         0.0440   -3.8180   -0.3330 ca        1 TX1     -0.071000
     27 C27        -0.2040   -5.1650   -0.0750 ca        1 TX1     -0.137000
     28 C28         0.8460   -6.0830   -0.0880 ca        1 TX1     -0.095000
     29 C29         2.1470   -5.6600   -0.3520 ca        1 TX1     -0.139000
     30 C30         2.4030   -4.3090   -0.6150 ca        1 TX1      0.060400
     31 CL31        4.0000   -3.8220   -0.9130 cl        1 TX1     -0.063400
     32 H3          3.3000    2.7810    0.8870 ha        1 TX1      0.165000
     33 H5         -0.5600    2.9680   -1.0740 ha        1 TX1      0.158000
     34 H7         -1.1940    0.7660   -2.2600 h1        1 TX1      0.080700
     35 H7A        -0.8200   -0.7850   -1.3640 h1        1 TX1      0.080700
     36 HN8        -2.4780    1.4230   -0.2200 hn        1 TX1      0.334500
     37 H11        -3.2950   -1.5470    2.4810 ha        1 TX1      0.167000
     38 H12        -5.2180   -1.1900    4.0400 ha        1 TX1      0.152000
     39 H13        -7.1350    0.2580    3.3460 ha        1 TX1      0.153000
     40 H14        -7.1290    1.3600    1.1170 ha        1 TX1      0.163000
     41 H26        -0.7830   -3.0840   -0.3150 ha        1 TX1      0.180000
     42 H27        -1.2310   -5.4980    0.1370 ha        1 TX1      0.147000
     43 H28         0.6500   -7.1470    0.1140 ha        1 TX1      0.141000
     44 H29         2.9740   -6.3860   -0.3550 ha        1 TX1      0.153000
@<TRIPOS>BOND
     1    1    2 ar  
     2    1    6 ar  
     3    1   20 1   
     4    2    3 ar  
     5    2   23 1   
     6    3    4 ar  
     7    3   32 1   
     8    4    5 ar  
     9    4   24 1   
    10    5    6 ar  
    11    5   33 1   
    12    6    7 1   
    13    7    8 1   
    14    7   34 1   
    15    7   35 1   
    16    8    9 1   
    17    8   36 1   
    18    9   10 1   
    19    9   17 2   
    20   10   11 ar  
    21   10   15 ar  
    22   11   12 ar  
    23   11   37 1   
    24   12   13 ar  
    25   12   38 1   
    26   13   14 ar  
    27   13   39 1   
    28   14   15 ar  
    29   14   40 1   
    30   15   16 1   
    31   16   18 1   
    32   16   19 1   
    33   20   21 1   
    34   21   22 2   
    35   21   25 1   
    36   25   26 ar  
    37   25   30 ar  
    38   26   27 ar  
    39   26   41 1   
    40   27   28 ar  
    41   27   42 1   
    42   28   29 ar  
    43   28   43 1   
    44   29   30 ar  
    45   29   44 1   
    46   30   31 1   
@<TRIPOS>SUBSTRUCTURE
     1 TX1         1 TEMP              0 ****  ****    0 ROOT
