@<TRIPOS>MOLECULE
TX1
   45    47     1     0     0
SMALL
bcc


@<TRIPOS>ATOM
      1 C1         -0.0520    0.1310    0.2530 ca        1 TX1      0.156100
      2 C2          1.3500    0.0830    0.2150 ca        1 TX1     -0.035900
      3 C3          2.0540    0.0620    1.4270 ca        1 TX1     -0.032000
      4 C4          1.3780    0.0710    2.6500 ca        1 TX1     -0.035900
      5 C5         -0.0200    0.0960    2.6770 ca        1 TX1     -0.043000
      6 C6         -0.7400    0.1330    1.4820 ca        1 TX1     -0.173300
      7 C7         -2.2290    0.2080    1.5140 c3        1 TX1      0.184100
      8 N8         -2.8410   -1.0030    0.8710 n4        1 TX1     -0.667800
      9 C9         -4.3300   -1.0940    1.0750 c         1 TX1      0.576700
     10 C10        -4.9380   -2.3780    0.6570 ca        1 TX1     -0.146600
     11 C11        -5.5370   -2.4650   -0.5990 ca        1 TX1     -0.080000
     12 C12        -6.2030   -3.6360   -0.9780 ca        1 TX1     -0.079000
     13 C13        -6.2810   -4.7140   -0.1020 ca        1 TX1     -0.082000
     14 C14        -5.6880   -4.6440    1.1640 ca        1 TX1     -0.053000
     15 C15        -5.0090   -3.4790    1.5390 ca        1 TX1     -0.142200
     16 N16        -4.3650   -3.4080    2.8810 no        1 TX1      0.314200
     17 O17        -4.9070   -0.1240    1.5390 o         1 TX1     -0.383100
     18 O18        -4.6380   -4.2190    3.7090 o         1 TX1     -0.191500
     19 O19        -3.5630   -2.5220    3.0720 o         1 TX1     -0.191500
     20 O20        -0.8250    0.0520   -0.9020 os        1 TX1     -0.423200
     21 C21        -0.8900    1.1720   -1.7420 c         1 TX1      0.659700
     22 O22        -0.5040    2.2370   -1.2880 o         1 TX1     -0.438000
     23 BR23        2.3240    0.0320   -1.3800 br        1 TX1     -0.021100
     24 BR24        2.3390    0.0450    4.2500 br        1 TX1     -0.013100
     25 C25        -1.4580    0.8420   -3.0590 ca        1 TX1     -0.120600
     26 C26        -0.6000    0.8090   -4.1650 ca        1 TX1     -0.066000
     27 C27        -1.1110    0.5440   -5.4350 ca        1 TX1     -0.113000
     28 C28        -2.4760    0.3180   -5.6090 ca        1 TX1     -0.083000
     29 C29        -3.3410    0.3510   -4.5140 ca        1 TX1     -0.120000
     30 C30        -2.8280    0.6070   -3.2400 ca        1 TX1      0.047400
     31 CL31       -3.9030    0.6680   -1.9120 cl        1 TX1     -0.131400
     32 H3          3.1600    0.0380    1.4120 ha        1 TX1      0.186000
     33 H5         -0.5570    0.0970    3.6420 ha        1 TX1      0.171000
     34 H7         -2.6130    0.2630    2.5750 hx        1 TX1      0.122700
     35 H7A        -2.5910    1.1150    0.9470 hx        1 TX1      0.122700
     36 HN8        -2.4130   -1.8450    1.2840 hn        1 TX1      0.475800
     37 H11        -5.5030   -1.6060   -1.2920 ha        1 TX1      0.169000
     38 H12        -6.6760   -3.6940   -1.9730 ha        1 TX1      0.177000
     39 H13        -6.8170   -5.6340   -0.3960 ha        1 TX1      0.181000
     40 H14        -5.7600   -5.5000    1.8620 ha        1 TX1      0.197000
     41 H26         0.4770    1.0010   -4.0270 ha        1 TX1      0.164000
     42 H27        -0.4320    0.5240   -6.3030 ha        1 TX1      0.164000
     43 H28        -2.8800    0.1190   -6.6150 ha        1 TX1      0.162000
     44 H29        -4.4210    0.1900   -4.6570 ha        1 TX1      0.162000
     45 H82        -2.6300   -0.9860   -0.1390 hn        1 TX1      0.475800
@<TRIPOS>BOND
     1    1    2 ar  
     2    1    6 ar  
     3    1   20 1   
     4    2    3 ar  
     5    2   23 1   
     6    3    4 ar  
     7    3   32 1   
     8    4    5 ar  
     9    4   24 1   
    10    5    6 ar  
    11    5   33 1   
    12    6    7 1   
    13    7    8 1   
    14    7   34 1   
    15    7   35 1   
    16    8    9 1   
    17    8   36 1   
    18    8   45 1   
    19    9   10 1   
    20    9   17 2   
    21   10   11 ar  
    22   10   15 ar  
    23   11   12 ar  
    24   11   37 1   
    25   12   13 ar  
    26   12   38 1   
    27   13   14 ar  
    28   13   39 1   
    29   14   15 ar  
    30   14   40 1   
    31   15   16 1   
    32   16   18 1   
    33   16   19 1   
    34   20   21 1   
    35   21   22 2   
    36   21   25 1   
    37   25   26 ar  
    38   25   30 ar  
    39   26   27 ar  
    40   26   41 1   
    41   27   28 ar  
    42   27   42 1   
    43   28   29 ar  
    44   28   43 1   
    45   29   30 ar  
    46   29   44 1   
    47   30   31 1   
@<TRIPOS>SUBSTRUCTURE
     1 TX1         1 TEMP              0 ****  ****    0 ROOT
