@<TRIPOS>MOLECULE
TX1
   44    46     1     0     0
SMALL
bcc


@<TRIPOS>ATOM
      1 C1         -0.1600    0.2800    0.0140 ca        1 TX1      0.166100
      2 C2          1.2460    0.2890    0.0560 ca        1 TX1     -0.031900
      3 C3          1.8890   -0.0140    1.2610 ca        1 TX1     -0.067000
      4 C4          1.1460   -0.3160    2.4050 ca        1 TX1     -0.033900
      5 C5         -0.2490   -0.3140    2.3560 ca        1 TX1     -0.078000
      6 C6         -0.9120   -0.0130    1.1640 ca        1 TX1     -0.114300
      7 C7         -2.4160    0.0060    1.1410 c3        1 TX1      0.137300
      8 N8         -3.0050   -1.3020    1.2520 n         1 TX1     -0.553900
      9 C9         -3.8050   -1.8370    0.2730 c         1 TX1      0.670700
     10 C10        -4.2710   -3.2510    0.4500 ca        1 TX1     -0.093600
     11 C11        -4.0620   -4.1220   -0.6270 ca        1 TX1     -0.084000
     12 C12        -4.5050   -5.4410   -0.5700 ca        1 TX1     -0.106000
     13 C13        -5.1790   -5.9040    0.5590 ca        1 TX1     -0.109000
     14 C14        -5.4110   -5.0530    1.6380 ca        1 TX1     -0.092000
     15 C15        -4.9440   -3.7300    1.5840 ca        1 TX1     -0.125200
     16 N16        -5.2030   -2.8530    2.7680 no        1 TX1      0.305200
     17 O17        -4.1410   -1.1920   -0.7420 o         1 TX1     -0.604100
     18 O18        -6.3260   -2.5030    2.9930 o         1 TX1     -0.192500
     19 O19        -4.2800   -2.5610    3.4820 o         1 TX1     -0.192500
     20 O20        -0.8260    0.4380   -1.1980 os        1 TX1     -0.364200
     21 C21        -1.1750    1.7200   -1.6050 c         1 TX1      0.661700
     22 O22        -0.9500    2.6520   -0.8430 o         1 TX1     -0.486000
     23 BR23        2.3030    0.6830   -1.4380 br        1 TX1     -0.051100
     24 BR24        2.0250   -0.7200    4.0060 br        1 TX1     -0.068100
     25 C25        -1.8350    1.7020   -2.9230 ca        1 TX1     -0.122600
     26 C26        -2.9590    0.8850   -3.1020 ca        1 TX1     -0.071000
     27 C27        -3.6320    0.8830   -4.3220 ca        1 TX1     -0.137000
     28 C28        -3.1810    1.6850   -5.3700 ca        1 TX1     -0.095000
     29 C29        -2.0540    2.4880   -5.2060 ca        1 TX1     -0.139000
     30 C30        -1.3740    2.4980   -3.9830 ca        1 TX1      0.060400
     31 CL31        0.0060    3.4710   -3.8210 cl        1 TX1     -0.063400
     32 H3          2.9910   -0.0120    1.3060 ha        1 TX1      0.165000
     33 H5         -0.8420   -0.5410    3.2580 ha        1 TX1      0.158000
     34 H7         -2.7750    0.4950    0.1880 h1        1 TX1      0.080700
     35 H7A        -2.7750    0.6290    2.0140 h1        1 TX1      0.080700
     36 HN8        -2.7100   -1.8680    2.0170 hn        1 TX1      0.334500
     37 H11        -3.5530   -3.7400   -1.5290 ha        1 TX1      0.167000
     38 H12        -4.3270   -6.1160   -1.4220 ha        1 TX1      0.152000
     39 H13        -5.5390   -6.9440    0.6040 ha        1 TX1      0.153000
     40 H14        -5.9600   -5.4180    2.5210 ha        1 TX1      0.163000
     41 H26        -3.3060    0.2450   -2.2700 ha        1 TX1      0.180000
     42 H27        -4.5200    0.2460   -4.4520 ha        1 TX1      0.147000
     43 H28        -3.7130    1.6840   -6.3330 ha        1 TX1      0.141000
     44 H29        -1.6970    3.1150   -6.0380 ha        1 TX1      0.153000
@<TRIPOS>BOND
     1    1    2 ar  
     2    1    6 ar  
     3    1   20 1   
     4    2    3 ar  
     5    2   23 1   
     6    3    4 ar  
     7    3   32 1   
     8    4    5 ar  
     9    4   24 1   
    10    5    6 ar  
    11    5   33 1   
    12    6    7 1   
    13    7    8 1   
    14    7   34 1   
    15    7   35 1   
    16    8    9 1   
    17    8   36 1   
    18    9   10 1   
    19    9   17 2   
    20   10   11 ar  
    21   10   15 ar  
    22   11   12 ar  
    23   11   37 1   
    24   12   13 ar  
    25   12   38 1   
    26   13   14 ar  
    27   13   39 1   
    28   14   15 ar  
    29   14   40 1   
    30   15   16 1   
    31   16   18 1   
    32   16   19 1   
    33   20   21 1   
    34   21   22 2   
    35   21   25 1   
    36   25   26 ar  
    37   25   30 ar  
    38   26   27 ar  
    39   26   41 1   
    40   27   28 ar  
    41   27   42 1   
    42   28   29 ar  
    43   28   43 1   
    44   29   30 ar  
    45   29   44 1   
    46   30   31 1   
@<TRIPOS>SUBSTRUCTURE
     1 TX1         1 TEMP              0 ****  ****    0 ROOT
