@<TRIPOS>MOLECULE
TX1
   45    47     1     0     0
SMALL
bcc


@<TRIPOS>ATOM
      1 C1         -0.0640    0.1570    0.2570 ca        1 TX1      0.156100
      2 C2          1.3380    0.1280    0.2180 ca        1 TX1     -0.035900
      3 C3          2.0430    0.1100    1.4290 ca        1 TX1     -0.032000
      4 C4          1.3680    0.1040    2.6520 ca        1 TX1     -0.035900
      5 C5         -0.0300    0.1120    2.6800 ca        1 TX1     -0.043000
      6 C6         -0.7510    0.1450    1.4860 ca        1 TX1     -0.173300
      7 C7         -2.2410    0.2010    1.5200 c3        1 TX1      0.184100
      8 N8         -2.8380   -1.0140    0.8720 ny        1 TX1     -0.667800
      9 C9         -4.3260   -1.1250    1.0770 c         1 TX1      0.576700
     10 C10        -4.9190   -2.4140    0.6520 ca        1 TX1     -0.146600
     11 C11        -5.5180   -2.5010   -0.6040 ca        1 TX1     -0.080000
     12 C12        -6.1700   -3.6780   -0.9890 ca        1 TX1     -0.079000
     13 C13        -6.2330   -4.7630   -0.1200 ca        1 TX1     -0.082000
     14 C14        -5.6390   -4.6930    1.1450 ca        1 TX1     -0.053000
     15 C15        -4.9740   -3.5220    1.5270 ca        1 TX1     -0.142200
     16 N16        -4.3300   -3.4510    2.8690 no        1 TX1      0.314200
     17 O17        -4.9150   -0.1660    1.5470 o         1 TX1     -0.383100
     18 O18        -4.5910   -4.2710    3.6920 o         1 TX1     -0.191500
     19 O19        -3.5390   -2.5560    3.0640 o         1 TX1     -0.191500
     20 O20        -0.8370    0.0750   -0.8980 os        1 TX1     -0.423200
     21 C21        -0.9180    1.1980   -1.7320 c         1 TX1      0.659700
     22 O22        -0.5440    2.2650   -1.2740 o         1 TX1     -0.438000
     23 Br23        2.3110    0.0970   -1.3780 br        1 TX1     -0.021100
     24 Br24        2.3310    0.0830    4.2510 br        1 TX1     -0.013100
     25 C25        -1.4830    0.8670   -3.0510 ca        1 TX1     -0.120600
     26 C26        -0.6250    0.8490   -4.1570 ca        1 TX1     -0.066000
     27 C27        -1.1350    0.5850   -5.4280 ca        1 TX1     -0.113000
     28 C28        -2.4970    0.3420   -5.6020 ca        1 TX1     -0.083000
     29 C29        -3.3610    0.3600   -4.5060 ca        1 TX1     -0.120000
     30 C30        -2.8500    0.6160   -3.2320 ca        1 TX1      0.047400
     31 Cl31       -3.9240    0.6580   -1.9020 cl        1 TX1     -0.131400
     32 H3          3.1500    0.1010    1.4120 ha        1 TX1      0.186000
     33 H5         -0.5670    0.1010    3.6460 ha        1 TX1      0.171000
     34 H7         -2.6250    0.2460    2.5820 hx        1 TX1      0.122700
     35 H7A        -2.6150    1.1070    0.9570 hx        1 TX1      0.122700
     36 HN8        -2.6290   -0.9890   -0.1390 hn        1 TX1      0.475800
     37 H11        -5.4960   -1.6380   -1.2910 ha        1 TX1      0.169000
     38 H12        -6.6440   -3.7360   -1.9840 ha        1 TX1      0.177000
     39 H13        -6.7580   -5.6870   -0.4190 ha        1 TX1      0.181000
     40 H14        -5.6990   -5.5530    1.8390 ha        1 TX1      0.197000
     41 H26         0.4490    1.0540   -4.0200 ha        1 TX1      0.164000
     42 H27        -0.4560    0.5760   -6.2970 ha        1 TX1      0.164000
     43 H28        -2.8990    0.1430   -6.6080 ha        1 TX1      0.162000
     44 H29        -4.4390    0.1860   -4.6490 ha        1 TX1      0.162000
     45 H82        -2.3990   -1.8530    1.2800 hn        1 TX1      0.475800
@<TRIPOS>BOND
     1    1    2 ar  
     2    1    6 ar  
     3    1   20 1   
     4    2    3 ar  
     5    2   23 1   
     6    3    4 ar  
     7    3   32 1   
     8    4    5 ar  
     9    4   24 1   
    10    5    6 ar  
    11    5   33 1   
    12    6    7 1   
    13    7    8 1   
    14    7   34 1   
    15    7   35 1   
    16    8    9 1   
    17    8   36 1   
    18    8   45 1   
    19    9   10 1   
    20    9   17 2   
    21   10   11 ar  
    22   10   15 ar  
    23   11   12 ar  
    24   11   37 1   
    25   12   13 ar  
    26   12   38 1   
    27   13   14 ar  
    28   13   39 1   
    29   14   15 ar  
    30   14   40 1   
    31   15   16 1   
    32   16   18 1   
    33   16   19 1   
    34   20   21 1   
    35   21   22 2   
    36   21   25 1   
    37   25   26 ar  
    38   25   30 ar  
    39   26   27 ar  
    40   26   41 1   
    41   27   28 ar  
    42   27   42 1   
    43   28   29 ar  
    44   28   43 1   
    45   29   30 ar  
    46   29   44 1   
    47   30   31 1   
@<TRIPOS>SUBSTRUCTURE
     1 TX1         1 TEMP              0 ****  ****    0 ROOT
