@<TRIPOS>MOLECULE
TX2
   43    44     1     0     0
SMALL
bcc


@<TRIPOS>ATOM
      1 P          -2.7420    0.2920    0.3130 p5        1 TX2      1.435700
      2 S          -5.5350   -4.0280    0.7400 sh        1 TX2     -0.435900
      3 N1          3.5150    1.3910    0.0940 n         1 TX2     -0.378000
      4 C2          4.9010    1.6220    0.2620 c         1 TX2      0.807500
      5 O2          5.3600    2.7540    0.5410 o         1 TX2     -0.659500
      6 N3          5.7840    0.5440    0.0760 n         1 TX2     -0.589500
      7 C4          5.3540   -0.7580   -0.2330 c         1 TX2      0.720700
      8 N4         -2.6450   -1.2930    0.0020 n3        1 TX2     -0.957300
      9 O4          6.2150   -1.6470   -0.3660 o         1 TX2     -0.639500
     10 C5          3.9020   -0.9470   -0.3680 cc        1 TX2     -0.286400
     11 C6          3.0630    0.1140   -0.1830 cd        1 TX2      0.067600
     12 C7          3.4170   -2.3000   -0.7000 c3        1 TX2     -0.022900
     13 C1'         2.5670    2.4830    0.3760 c3        1 TX2      0.299500
     14 C2'         1.7730    2.9390   -0.8640 c3        1 TX2     -0.128400
     15 C3'         0.3560    2.3910   -0.6610 c3        1 TX2      0.148100
     16 O3'        -0.5620    3.4210   -0.9500 oh        1 TX2     -0.627800
     17 C4'         0.2930    1.9800    0.8260 c3        1 TX2      0.065100
     18 O4'         1.6290    2.0650    1.3680 os        1 TX2     -0.424600
     19 C5'        -0.2450    0.5560    1.0590 c3        1 TX2      0.205400
     20 O5'        -1.5630    0.5750    1.4800 os        1 TX2     -0.564200
     21 C7'        -3.4820   -2.2100    0.6820 c3        1 TX2      0.225800
     22 C8'        -4.5020   -2.9360   -0.1990 c3        1 TX2     -0.004300
     23 OP1        -2.1720    1.0560   -0.8380 o         1 TX2     -0.850500
     24 HS         -6.0060   -3.1690    1.6310 hs        1 TX2      0.219800
     25 HN3         6.7550    0.7290    0.1960 hn        1 TX2      0.342500
     26 HN4        -2.0780   -1.6720   -0.7060 hn        1 TX2      0.404800
     27 H6          1.9580    0.0160   -0.2440 h4        1 TX2      0.186000
     28 H7          3.6300   -2.5320   -1.7740 hc        1 TX2      0.045700
     29 H7A         3.9450   -3.0620   -0.0730 hc        1 TX2      0.045700
     30 H7B         2.3170   -2.3880   -0.5270 hc        1 TX2      0.045700
     31 H1'         3.1610    3.3250    0.8410 h2        1 TX2      0.110700
     32 H2'         1.7510    4.0580   -0.8900 hc        1 TX2      0.070700
     33 H2'A        2.2120    2.5770   -1.8230 hc        1 TX2      0.070700
     34 H3'         0.1560    1.5060   -1.3260 h1        1 TX2      0.074700
     35 HO3'       -1.4270    2.9880   -1.0670 ho        1 TX2      0.470000
     36 H4'        -0.3200    2.7160    1.4150 h1        1 TX2      0.098700
     37 H5'        -0.1450   -0.0490    0.1140 h1        1 TX2      0.011200
     38 H5'A        0.3720    0.0750    1.8710 h1        1 TX2      0.011200
     39 H7'        -2.8740   -3.0110    1.2030 h1        1 TX2      0.049200
     40 H7'A       -4.0460   -1.6260    1.4730 h1        1 TX2      0.049200
     41 H8'        -3.9900   -3.5940   -0.9420 h1        1 TX2      0.069200
     42 H8'A       -5.1350   -2.2020   -0.7520 h1        1 TX2      0.069200
     43 OP3        -4.0220    0.6300    0.9780 o         1 TX2     -0.850500
@<TRIPOS>BOND
     1    1    8 1   
     2    1   20 1   
     3    1   23 1   
     4    1   43 1   
     5    2   22 1   
     6    2   24 1   
     7    3    4 1   
     8    3   11 1   
     9    3   13 1   
    10    4    5 2   
    11    4    6 1   
    12    6    7 1   
    13    6   25 1   
    14    7    9 2   
    15    7   10 1   
    16    8   21 1   
    17    8   26 1   
    18   10   11 2   
    19   10   12 1   
    20   11   27 1   
    21   12   28 1   
    22   12   29 1   
    23   12   30 1   
    24   13   14 1   
    25   13   18 1   
    26   13   31 1   
    27   14   15 1   
    28   14   32 1   
    29   14   33 1   
    30   15   16 1   
    31   15   17 1   
    32   15   34 1   
    33   16   35 1   
    34   17   18 1   
    35   17   19 1   
    36   17   36 1   
    37   19   20 1   
    38   19   37 1   
    39   19   38 1   
    40   21   22 1   
    41   21   39 1   
    42   21   40 1   
    43   22   41 1   
    44   22   42 1   
@<TRIPOS>SUBSTRUCTURE
     1 TX2         1 TEMP              0 ****  ****    0 ROOT
