@<TRIPOS>MOLECULE
TX3
   46    48     1     0     0
SMALL
bcc


@<TRIPOS>ATOM
      1 C1         -0.2030   -0.0940   -0.0970 ca        1 TX3      0.177100
      2 C2          1.2030   -0.0270   -0.0540 ca        1 TX3     -0.035900
      3 C3          1.8320    0.1370    1.1850 ca        1 TX3     -0.035000
      4 C4          1.0850    0.2260    2.3650 ca        1 TX3     -0.033900
      5 C5         -0.3070    0.1380    2.3130 ca        1 TX3     -0.071000
      6 C6         -0.9570   -0.0350    1.0880 ca        1 TX3     -0.175300
      7 C7         -2.4440   -0.1390    1.0560 c3        1 TX3      0.176100
      8 N8         -2.8730   -1.5420    1.3610 n4        1 TX3     -0.685800
      9 C9         -4.3530   -1.7900    1.1390 c         1 TX3      0.581700
     10 O10        -5.0600   -0.8090    0.9790 o         1 TX3     -0.394100
     11 C11        -4.7050   -3.2170    1.1370 ca        1 TX3     -0.211600
     12 C12        -4.1350   -4.0610    0.1710 ca        1 TX3     -0.087000
     13 C13        -4.5100   -5.4000    0.1140 ca        1 TX3     -0.121000
     14 C14        -5.4480   -5.9040    1.0190 ca        1 TX3     -0.057000
     15 C15        -6.0100   -5.0750    1.9880 ca        1 TX3     -0.118000
     16 C16        -5.6410   -3.7260    2.0540 ca        1 TX3      0.069400
     17 CL17       -6.3140   -2.7380    3.2510 cl        1 TX3     -0.034400
     18 BR18        2.2710   -0.1440   -1.5840 br        1 TX3     -0.007100
     19 BR19        1.9460    0.4590    4.0040 br        1 TX3     -0.016100
     20 O20        -0.8400   -0.0590   -1.3320 os        1 TX3     -0.372200
     21 C21        -1.3020   -1.2360   -1.9110 c         1 TX3      0.706700
     22 O22        -1.5600   -2.1610   -1.1290 o         1 TX3     -0.614000
     23 C23        -1.4780   -1.1440   -3.3570 ca        1 TX3     -0.173600
     24 C24        -1.2710    0.0860   -4.0060 ca        1 TX3     -0.051000
     25 C25        -1.4340    0.1870   -5.3830 ca        1 TX3     -0.146000
     26 C26        -1.7970   -0.9390   -6.1250 ca        1 TX3     -0.060000
     27 C27        -1.9970   -2.1620   -5.4890 ca        1 TX3     -0.147000
     28 C28        -1.8410   -2.2850   -4.1020 ca        1 TX3      0.001700
     29 C29        -2.0540   -3.6000   -3.4570 c3        1 TX3     -0.066800
     30 H3          2.9360    0.2020    1.2300 ha        1 TX3      0.187000
     31 H5         -0.9020    0.2190    3.2390 ha        1 TX3      0.156000
     32 H7         -2.8400    0.1270    0.0310 hx        1 TX3      0.119700
     33 H7A        -2.9220    0.5470    1.8120 hx        1 TX3      0.119700
     34 HN8        -2.3370   -2.1930    0.7590 hn        1 TX3      0.471300
     35 H12        -3.4060   -3.6670   -0.5600 ha        1 TX3      0.163000
     36 H13        -4.0690   -6.0610   -0.6500 ha        1 TX3      0.166000
     37 H14        -5.7470   -6.9650    0.9680 ha        1 TX3      0.169000
     38 H15        -6.7490   -5.4770    2.7020 ha        1 TX3      0.179000
     39 H24        -0.9750    0.9710   -3.4190 ha        1 TX3      0.159000
     40 H25        -1.2730    1.1530   -5.8860 ha        1 TX3      0.157000
     41 H26        -1.9240   -0.8610   -7.2170 ha        1 TX3      0.155000
     42 H27        -2.2780   -3.0470   -6.0820 ha        1 TX3      0.154000
     43 H29        -1.1510   -3.8920   -2.8610 hc        1 TX3      0.057033
     44 H29A       -2.9240   -3.5470   -2.7540 hc        1 TX3      0.057033
     45 H29B       -2.2550   -4.3970   -4.2140 hc        1 TX3      0.057033
     46 H82        -2.6500   -1.7630    2.3360 hn        1 TX3      0.471300
@<TRIPOS>BOND
     1    1    2 ar  
     2    1    6 ar  
     3    1   20 1   
     4    2    3 ar  
     5    2   18 1   
     6    3    4 ar  
     7    3   30 1   
     8    4    5 ar  
     9    4   19 1   
    10    5    6 ar  
    11    5   31 1   
    12    6    7 1   
    13    7    8 1   
    14    7   32 1   
    15    7   33 1   
    16    8    9 1   
    17    8   34 1   
    18    8   46 1   
    19    9   10 2   
    20    9   11 1   
    21   11   12 ar  
    22   11   16 ar  
    23   12   13 ar  
    24   12   35 1   
    25   13   14 ar  
    26   13   36 1   
    27   14   15 ar  
    28   14   37 1   
    29   15   16 ar  
    30   15   38 1   
    31   16   17 1   
    32   20   21 1   
    33   21   22 2   
    34   21   23 1   
    35   23   24 ar  
    36   23   28 ar  
    37   24   25 ar  
    38   24   39 1   
    39   25   26 ar  
    40   25   40 1   
    41   26   27 ar  
    42   26   41 1   
    43   27   28 ar  
    44   27   42 1   
    45   28   29 1   
    46   29   43 1   
    47   29   44 1   
    48   29   45 1   
@<TRIPOS>SUBSTRUCTURE
     1 TX3         1 TEMP              0 ****  ****    0 ROOT
