@<TRIPOS>MOLECULE
TX3
   46    48     1     0     0
SMALL
bcc


@<TRIPOS>ATOM
      1 C1         -0.2020   -0.0920   -0.1050 ca        1 TX3      0.177100
      2 C2          1.2040   -0.0240   -0.0680 ca        1 TX3     -0.035900
      3 C3          1.8380    0.1400    1.1690 ca        1 TX3     -0.035000
      4 C4          1.0960    0.2270    2.3520 ca        1 TX3     -0.033900
      5 C5         -0.2960    0.1370    2.3070 ca        1 TX3     -0.071000
      6 C6         -0.9510   -0.0350    1.0840 ca        1 TX3     -0.175300
      7 C7         -2.4380   -0.1420    1.0580 c3        1 TX3      0.176100
      8 N8         -2.8640   -1.5440    1.3640 ny        1 TX3     -0.685800
      9 C9         -4.3450   -1.7940    1.1500 c         1 TX3      0.581700
     10 O10        -5.0540   -0.8140    0.9950 o         1 TX3     -0.394100
     11 C11        -4.6950   -3.2220    1.1480 ca        1 TX3     -0.211600
     12 C12        -4.1290   -4.0640    0.1780 ca        1 TX3     -0.087000
     13 C13        -4.5030   -5.4030    0.1210 ca        1 TX3     -0.121000
     14 C14        -5.4360   -5.9090    1.0300 ca        1 TX3     -0.057000
     15 C15        -5.9950   -5.0820    2.0020 ca        1 TX3     -0.118000
     16 C16        -5.6270   -3.7330    2.0680 ca        1 TX3      0.069400
     17 Cl17       -6.2950   -2.7470    3.2700 cl        1 TX3     -0.034400
     18 Br18        2.2650   -0.1380   -1.6020 br        1 TX3     -0.007100
     19 Br19        1.9640    0.4590    3.9880 br        1 TX3     -0.016100
     20 O20        -0.8450   -0.0570   -1.3370 os        1 TX3     -0.372200
     21 C21        -1.3080   -1.2340   -1.9150 c         1 TX3      0.706700
     22 O22        -1.5630   -2.1590   -1.1330 o         1 TX3     -0.614000
     23 C23        -1.4890   -1.1410   -3.3610 ca        1 TX3     -0.173600
     24 C24        -1.2810    0.0890   -4.0100 ca        1 TX3     -0.051000
     25 C25        -1.4490    0.1910   -5.3860 ca        1 TX3     -0.146000
     26 C26        -1.8180   -0.9340   -6.1270 ca        1 TX3     -0.060000
     27 C27        -2.0170   -2.1570   -5.4900 ca        1 TX3     -0.147000
     28 C28        -1.8580   -2.2810   -4.1040 ca        1 TX3      0.001700
     29 C29        -2.0710   -3.5960   -3.4590 c3        1 TX3     -0.066800
     30 H3          2.9420    0.2060    1.2090 ha        1 TX3      0.187000
     31 H5         -0.8870    0.2160    3.2340 ha        1 TX3      0.156000
     32 H7         -2.9140    0.5440    1.8160 hx        1 TX3      0.119700
     33 H7A        -2.8390    0.1240    0.0350 hx        1 TX3      0.119700
     34 HN8        -2.3310   -2.1950    0.7600 hn        1 TX3      0.471300
     35 H12        -3.4040   -3.6670   -0.5560 ha        1 TX3      0.163000
     36 H13        -4.0650   -6.0620   -0.6460 ha        1 TX3      0.166000
     37 H14        -5.7350   -6.9710    0.9790 ha        1 TX3      0.169000
     38 H15        -6.7300   -5.4860    2.7190 ha        1 TX3      0.179000
     39 H24        -0.9820    0.9730   -3.4240 ha        1 TX3      0.159000
     40 H25        -1.2880    1.1570   -5.8900 ha        1 TX3      0.157000
     41 H26        -1.9480   -0.8560   -7.2190 ha        1 TX3      0.155000
     42 H27        -2.3030   -3.0410   -6.0830 ha        1 TX3      0.154000
     43 H29        -2.9380   -3.5400   -2.7520 hc        1 TX3      0.057033
     44 H29A       -2.2780   -4.3920   -4.2150 hc        1 TX3      0.057033
     45 H29B       -1.1670   -3.8900   -2.8670 hc        1 TX3      0.057033
     46 H82        -2.6360   -1.7660    2.3390 hn        1 TX3      0.471300
@<TRIPOS>BOND
     1    1    2 ar  
     2    1    6 ar  
     3    1   20 1   
     4    2    3 ar  
     5    2   18 1   
     6    3    4 ar  
     7    3   30 1   
     8    4    5 ar  
     9    4   19 1   
    10    5    6 ar  
    11    5   31 1   
    12    6    7 1   
    13    7    8 1   
    14    7   32 1   
    15    7   33 1   
    16    8    9 1   
    17    8   34 1   
    18    8   46 1   
    19    9   10 2   
    20    9   11 1   
    21   11   12 ar  
    22   11   16 ar  
    23   12   13 ar  
    24   12   35 1   
    25   13   14 ar  
    26   13   36 1   
    27   14   15 ar  
    28   14   37 1   
    29   15   16 ar  
    30   15   38 1   
    31   16   17 1   
    32   20   21 1   
    33   21   22 2   
    34   21   23 1   
    35   23   24 ar  
    36   23   28 ar  
    37   24   25 ar  
    38   24   39 1   
    39   25   26 ar  
    40   25   40 1   
    41   26   27 ar  
    42   26   41 1   
    43   27   28 ar  
    44   27   42 1   
    45   28   29 1   
    46   29   43 1   
    47   29   44 1   
    48   29   45 1   
@<TRIPOS>SUBSTRUCTURE
     1 TX3         1 TEMP              0 ****  ****    0 ROOT
