@<TRIPOS>MOLECULE
TX3
   45    47     1     0     0
SMALL
bcc


@<TRIPOS>ATOM
      1 C1          1.3670    0.3850    0.5330 ca        1 TX3      0.158100
      2 C2          2.6230    0.7280    0.0020 ca        1 TX3     -0.033900
      3 C3          3.6150   -0.2560   -0.0740 ca        1 TX3     -0.067000
      4 C4          3.3580   -1.5570    0.3620 ca        1 TX3     -0.034900
      5 C5          2.1020   -1.8920    0.8740 ca        1 TX3     -0.066000
      6 C6          1.0990   -0.9260    0.9630 ca        1 TX3     -0.102300
      7 C7         -0.2450   -1.2970    1.5200 c3        1 TX3      0.139300
      8 N8         -1.1940   -1.6220    0.4850 n         1 TX3     -0.567900
      9 C9         -2.5220   -1.8440    0.8020 c         1 TX3      0.668700
     10 O10        -2.9080   -1.8610    1.9860 o         1 TX3     -0.586100
     11 C11        -3.4410   -2.0650   -0.3560 ca        1 TX3     -0.129600
     12 C12        -3.5490   -1.0660   -1.3310 ca        1 TX3     -0.099000
     13 C13        -4.4330   -1.2140   -2.3970 ca        1 TX3     -0.136000
     14 C14        -5.2090   -2.3680   -2.5030 ca        1 TX3     -0.105000
     15 C15        -5.0970   -3.3770   -1.5500 ca        1 TX3     -0.135000
     16 C16        -4.2090   -3.2310   -0.4760 ca        1 TX3      0.059400
     17 CL17       -4.0790   -4.4970    0.6450 cl        1 TX3     -0.066400
     18 BR18        3.0310    2.4500   -0.6110 br        1 TX3     -0.055100
     19 BR19        4.7000   -2.8560    0.2530 br        1 TX3     -0.066100
     20 O20         0.4250    1.3830    0.7680 os        1 TX3     -0.366200
     21 C21        -0.5530    1.6290   -0.1840 c         1 TX3      0.672700
     22 O22        -0.6540    0.8310   -1.1170 o         1 TX3     -0.540000
     23 C23        -1.3470    2.8270    0.1190 ca        1 TX3     -0.145600
     24 C24        -1.3120    3.3770    1.4090 ca        1 TX3     -0.058000
     25 C25        -2.0670    4.5070    1.7090 ca        1 TX3     -0.151000
     26 C26        -2.8560    5.0980    0.7210 ca        1 TX3     -0.084000
     27 C27        -2.8890    4.5580   -0.5620 ca        1 TX3     -0.150000
     28 C28        -2.1400    3.4180   -0.8830 ca        1 TX3     -0.008300
     29 C29        -2.1970    2.8630   -2.2540 c3        1 TX3     -0.067800
     30 H3          4.6060    0.0020   -0.4850 ha        1 TX3      0.166000
     31 H5          1.8900   -2.9200    1.2120 ha        1 TX3      0.162000
     32 H7         -0.1450   -2.1910    2.2030 h1        1 TX3      0.066200
     33 H7A        -0.6380   -0.4410    2.1480 h1        1 TX3      0.066200
     34 HN8        -0.9480   -1.4110   -0.4560 hn        1 TX3      0.330500
     35 H12        -2.9260   -0.1570   -1.2560 ha        1 TX3      0.153000
     36 H13        -4.5150   -0.4210   -3.1550 ha        1 TX3      0.138000
     37 H14        -5.9110   -2.4860   -3.3420 ha        1 TX3      0.139000
     38 H15        -5.7040   -4.2910   -1.6390 ha        1 TX3      0.150000
     39 H24        -0.6820    2.9090    2.1830 ha        1 TX3      0.158000
     40 H25        -2.0390    4.9320    2.7230 ha        1 TX3      0.144000
     41 H26        -3.4530    5.9920    0.9560 ha        1 TX3      0.139000
     42 H27        -3.5120    5.0300   -1.3380 ha        1 TX3      0.141000
     43 H29        -2.6790    1.8510   -2.2360 hc        1 TX3      0.058367
     44 H29A       -2.7800    3.5260   -2.9390 hc        1 TX3      0.058367
     45 H29B       -1.1650    2.7350   -2.6680 hc        1 TX3      0.058367
@<TRIPOS>BOND
     1    1    2 ar  
     2    1    6 ar  
     3    1   20 1   
     4    2    3 ar  
     5    2   18 1   
     6    3    4 ar  
     7    3   30 1   
     8    4    5 ar  
     9    4   19 1   
    10    5    6 ar  
    11    5   31 1   
    12    6    7 1   
    13    7    8 1   
    14    7   32 1   
    15    7   33 1   
    16    8    9 1   
    17    8   34 1   
    18    9   10 2   
    19    9   11 1   
    20   11   12 ar  
    21   11   16 ar  
    22   12   13 ar  
    23   12   35 1   
    24   13   14 ar  
    25   13   36 1   
    26   14   15 ar  
    27   14   37 1   
    28   15   16 ar  
    29   15   38 1   
    30   16   17 1   
    31   20   21 1   
    32   21   22 2   
    33   21   23 1   
    34   23   24 ar  
    35   23   28 ar  
    36   24   25 ar  
    37   24   39 1   
    38   25   26 ar  
    39   25   40 1   
    40   26   27 ar  
    41   26   41 1   
    42   27   28 ar  
    43   27   42 1   
    44   28   29 1   
    45   29   43 1   
    46   29   44 1   
    47   29   45 1   
@<TRIPOS>SUBSTRUCTURE
     1 TX3         1 TEMP              0 ****  ****    0 ROOT
