@<TRIPOS>MOLECULE
TX3
   46    48     1     0     0
SMALL
bcc


@<TRIPOS>ATOM
      1 C1         -0.2010   -0.0990   -0.0900 ca        1 TX3      0.177100
      2 C2          1.2050   -0.0380   -0.0340 ca        1 TX3     -0.035900
      3 C3          1.8230    0.1320    1.2100 ca        1 TX3     -0.035000
      4 C4          1.0650    0.2320    2.3820 ca        1 TX3     -0.033900
      5 C5         -0.3270    0.1500    2.3170 ca        1 TX3     -0.071000
      6 C6         -0.9660   -0.0280    1.0870 ca        1 TX3     -0.175300
      7 C7         -2.4530   -0.1260    1.0410 c3        1 TX3      0.176100
      8 N8         -2.8920   -1.5240    1.3520 n4        1 TX3     -0.685800
      9 C9         -4.3710   -1.7670    1.1180 c         1 TX3      0.581700
     10 O10        -5.0720   -0.7840    0.9450 o         1 TX3     -0.394100
     11 C11        -4.7290   -3.1930    1.1230 ca        1 TX3     -0.211600
     12 C12        -4.1540   -4.0460    0.1680 ca        1 TX3     -0.087000
     13 C13        -4.5350   -5.3830    0.1160 ca        1 TX3     -0.121000
     14 C14        -5.4840   -5.8770    1.0160 ca        1 TX3     -0.057000
     15 C15        -6.0510   -5.0380    1.9740 ca        1 TX3     -0.118000
     16 C16        -5.6770   -3.6910    2.0340 ca        1 TX3      0.069400
     17 CL17       -6.3560   -2.6920    3.2180 cl        1 TX3     -0.034400
     18 BR18        2.2870   -0.1710   -1.5520 br        1 TX3     -0.007100
     19 BR19        1.9110    0.4720    4.0280 br        1 TX3     -0.016100
     20 O20        -0.8260   -0.0700   -1.3310 os        1 TX3     -0.372200
     21 C21        -1.2880   -1.2490   -1.9070 c         1 TX3      0.706700
     22 O22        -1.5590   -2.1660   -1.1210 o         1 TX3     -0.614000
     23 C23        -1.4480   -1.1660   -3.3560 ca        1 TX3     -0.173600
     24 C24        -1.2240    0.0570   -4.0110 ca        1 TX3     -0.051000
     25 C25        -1.3720    0.1500   -5.3910 ca        1 TX3     -0.146000
     26 C26        -1.7370   -0.9790   -6.1280 ca        1 TX3     -0.060000
     27 C27        -1.9520   -2.1960   -5.4850 ca        1 TX3     -0.147000
     28 C28        -1.8130   -2.3100   -4.0960 ca        1 TX3      0.001700
     29 C29        -2.0420   -3.6180   -3.4430 c3        1 TX3     -0.066800
     30 H3          2.9270    0.1920    1.2660 ha        1 TX3      0.187000
     31 H5         -0.9310    0.2400    3.2360 ha        1 TX3      0.156000
     32 H7         -2.9360    0.5690    1.7870 hx        1 TX3      0.119700
     33 H7A        -2.8380    0.1340    0.0110 hx        1 TX3      0.119700
     34 HN8        -2.3530   -2.1830    0.7600 hn        1 TX3      0.471300
     35 H12        -3.4170   -3.6590   -0.5590 ha        1 TX3      0.163000
     36 H13        -4.0900   -6.0510   -0.6390 ha        1 TX3      0.166000
     37 H14        -5.7880   -6.9360    0.9690 ha        1 TX3      0.169000
     38 H15        -6.7990   -5.4330    2.6830 ha        1 TX3      0.179000
     39 H24        -0.9280    0.9450   -3.4280 ha        1 TX3      0.159000
     40 H25        -1.1980    1.1110   -5.8990 ha        1 TX3      0.157000
     41 H26        -1.8510   -0.9080   -7.2220 ha        1 TX3      0.155000
     42 H27        -2.2340   -3.0830   -6.0740 ha        1 TX3      0.154000
     43 H29        -2.9180   -3.5520   -2.7490 hc        1 TX3      0.057033
     44 H29A       -2.2430   -4.4190   -4.1960 hc        1 TX3      0.057033
     45 H29B       -1.1480   -3.9130   -2.8360 hc        1 TX3      0.057033
     46 H82        -2.6790   -1.7390    2.3310 hn        1 TX3      0.471300
@<TRIPOS>BOND
     1    1    2 ar  
     2    1    6 ar  
     3    1   20 1   
     4    2    3 ar  
     5    2   18 1   
     6    3    4 ar  
     7    3   30 1   
     8    4    5 ar  
     9    4   19 1   
    10    5    6 ar  
    11    5   31 1   
    12    6    7 1   
    13    7    8 1   
    14    7   32 1   
    15    7   33 1   
    16    8    9 1   
    17    8   34 1   
    18    8   46 1   
    19    9   10 2   
    20    9   11 1   
    21   11   12 ar  
    22   11   16 ar  
    23   12   13 ar  
    24   12   35 1   
    25   13   14 ar  
    26   13   36 1   
    27   14   15 ar  
    28   14   37 1   
    29   15   16 ar  
    30   15   38 1   
    31   16   17 1   
    32   20   21 1   
    33   21   22 2   
    34   21   23 1   
    35   23   24 ar  
    36   23   28 ar  
    37   24   25 ar  
    38   24   39 1   
    39   25   26 ar  
    40   25   40 1   
    41   26   27 ar  
    42   26   41 1   
    43   27   28 ar  
    44   27   42 1   
    45   28   29 1   
    46   29   43 1   
    47   29   44 1   
    48   29   45 1   
@<TRIPOS>SUBSTRUCTURE
     1 TX3         1 TEMP              0 ****  ****    0 ROOT
