@<TRIPOS>MOLECULE
TX4
   24    23     1     0     0
SMALL
bcc


@<TRIPOS>ATOM
      1 O7         -2.4540    1.2670    1.1710 o         1 TX4     -0.912167
      2 P          -2.2960   -0.2130    0.9990 p5        1 TX4      1.323900
      3 O5         -3.5160   -1.0730    1.0670 o         1 TX4     -0.912167
      4 O6         -1.0210   -0.7780    1.6100 o         1 TX4     -0.912167
      5 O4         -1.7540   -0.3560   -0.6460 os        1 TX4     -0.563200
      6 C4         -0.7570    0.5220   -0.9850 c3        1 TX4      0.187400
      7 C3          0.6420   -0.1570   -1.0030 c3        1 TX4      0.093100
      8 O3          0.6170   -1.4940   -0.5620 oh        1 TX4     -0.663800
      9 C2          1.6250    0.6490   -0.1310 c3        1 TX4      0.112100
     10 O2          1.3770    0.5320    1.2480 oh        1 TX4     -0.694800
     11 C1          3.0780    0.1390   -0.3510 c3        1 TX4      0.308300
     12 O1          3.2380   -1.1960    0.1170 oh        1 TX4     -0.661800
     13 N           4.0730    1.0200    0.3240 n3        1 TX4     -0.570700
     14 ON          5.2390    0.4130    0.5380 oh        1 TX4     -0.431300
     15 H41        -0.7420    1.3970   -0.2710 h1        1 TX4      0.003200
     16 H42        -0.9430    0.9120   -2.0280 h1        1 TX4      0.003200
     17 H3          1.0440   -0.1940   -2.0540 h1        1 TX4      0.010700
     18 HO3        -0.1270   -1.5700    0.0880 ho        1 TX4      0.486000
     19 H2          1.5730    1.7360   -0.4180 h1        1 TX4      0.027700
     20 HO2         0.4520    0.1690    1.3930 ho        1 TX4      0.518000
     21 H1          3.3430    0.1250   -1.4450 h2        1 TX4      0.054700
     22 HO1         2.4170   -1.4450    0.5750 ho        1 TX4      0.463000
     23 HN          3.6630    1.2850    1.2230 hn        1 TX4      0.346800
     24 HON         5.0940   -0.4930    0.8820 ho        1 TX4      0.383000
@<TRIPOS>BOND
     1    1    2 1   
     2    2    3 1   
     3    2    4 1   
     4    2    5 1   
     5    5    6 1   
     6    6    7 1   
     7    6   15 1   
     8    6   16 1   
     9    7    8 1   
    10    7    9 1   
    11    7   17 1   
    12    8   18 1   
    13    9   10 1   
    14    9   11 1   
    15    9   19 1   
    16   10   20 1   
    17   11   12 1   
    18   11   13 1   
    19   11   21 1   
    20   12   22 1   
    21   13   14 1   
    22   13   23 1   
    23   14   24 1   
@<TRIPOS>SUBSTRUCTURE
     1 TX4         1 TEMP              0 ****  ****    0 ROOT
