@<TRIPOS>MOLECULE
TX4
   24    23     1     0     0
SMALL
bcc


@<TRIPOS>ATOM
      1 O7          0.7620    0.7410   -1.3610 o         1 TX4     -0.912167
      2 P           2.1210    0.1430   -1.1500 p5        1 TX4      1.323900
      3 O5          2.9560    0.6530   -0.0210 o         1 TX4     -0.912167
      4 O6          2.8500   -0.2150   -2.4370 o         1 TX4     -0.912167
      5 O4          1.7570   -1.5000   -0.7160 os        1 TX4     -0.563200
      6 C4          0.8220   -2.0970   -1.5200 c3        1 TX4      0.187400
      7 C3          1.4680   -3.0540   -2.5610 c3        1 TX4      0.093100
      8 O3          2.8760   -3.0260   -2.5430 oh        1 TX4     -0.663800
      9 C2          0.9700   -2.6990   -3.9770 c3        1 TX4      0.112100
     10 O2          1.5000   -1.4940   -4.4720 oh        1 TX4     -0.694800
     11 C1          1.3940   -3.8030   -4.9870 c3        1 TX4      0.308300
     12 O1          2.8080   -3.8560   -5.1370 oh        1 TX4     -0.661800
     13 N           0.7640   -3.5930   -6.3210 n3        1 TX4     -0.570700
     14 ON          1.4110   -4.2190   -7.3020 oh        1 TX4     -0.431300
     15 H41         0.2060   -1.3160   -2.0560 h1        1 TX4      0.003200
     16 H42         0.1310   -2.7260   -0.8850 h1        1 TX4      0.003200
     17 H3          1.1850   -4.1200   -2.3400 h1        1 TX4      0.010700
     18 HO3         3.1430   -2.1180   -2.2510 ho        1 TX4      0.486000
     19 H2         -0.1540   -2.6240   -3.9690 h1        1 TX4      0.027700
     20 HO2         1.8870   -0.9610   -3.7150 ho        1 TX4      0.518000
     21 H1          1.0750   -4.8230   -4.6320 h2        1 TX4      0.054700
     22 HO1         3.1820   -3.1010   -4.6490 ho        1 TX4      0.463000
     23 HN          0.7840   -2.5850   -6.4950 hn        1 TX4      0.346800
     24 HON         2.3790   -4.0930   -7.2070 ho        1 TX4      0.383000
@<TRIPOS>BOND
     1    1    2 1   
     2    2    3 1   
     3    2    4 1   
     4    2    5 1   
     5    5    6 1   
     6    6    7 1   
     7    6   15 1   
     8    6   16 1   
     9    7    8 1   
    10    7    9 1   
    11    7   17 1   
    12    8   18 1   
    13    9   10 1   
    14    9   11 1   
    15    9   19 1   
    16   10   20 1   
    17   11   12 1   
    18   11   13 1   
    19   11   21 1   
    20   12   22 1   
    21   13   14 1   
    22   13   23 1   
    23   14   24 1   
@<TRIPOS>SUBSTRUCTURE
     1 TX4         1 TEMP              0 ****  ****    0 ROOT
