@<TRIPOS>MOLECULE
TX4
   25    24     1     0     0
SMALL
bcc


@<TRIPOS>ATOM
      1 O7          0.0000    0.0000    0.0000 o         1 TX4     -0.612167
      2 P           1.4800    0.0000    0.0000 p5        1 TX4      0.753900
      3 O5          2.0170    0.0000    1.5170 o         1 TX4     -0.612167
      4 O6          2.0160    1.3140   -0.7600 o         1 TX4     -0.612167
      5 O4          2.0160   -1.3150   -0.7600 os        1 TX4     -0.456200
      6 C4          1.4130   -1.3180   -2.0560 c3        1 TX4      0.212400
      7 C3          1.8840   -2.5500   -2.8330 c3        1 TX4      0.161100
      8 O3          3.2910   -2.4530   -3.0700 oh        1 TX4     -0.571800
      9 C2          1.1450   -2.6210   -4.1700 c3        1 TX4      0.163100
     10 O2          1.3260   -1.3940   -4.8810 oh        1 TX4     -0.554800
     11 C1          1.7040   -3.7780   -5.0010 c3        1 TX4      0.212300
     12 O1          3.0970   -3.5660   -5.2370 oh        1 TX4     -0.507800
     13 N           0.9940   -3.8460   -6.2850 ny        1 TX4     -0.049500
     14 ON          0.9960   -5.2520   -6.6920 oh        1 TX4     -0.575300
     15 H41         1.7010   -0.4210   -2.5900 h1        1 TX4      0.014200
     16 H42         0.3350   -1.3470   -1.9520 h1        1 TX4      0.014200
     17 H3          1.6750   -3.4430   -2.2570 h1        1 TX4     -0.004300
     18 HO3         3.7580   -2.8570   -2.3570 ho        1 TX4      0.393000
     19 H2          0.0890   -2.7820   -3.9910 h1        1 TX4      0.009700
     20 HO2         0.4870   -0.9880   -5.0270 ho        1 TX4      0.383000
     21 H1          1.5670   -4.7080   -4.4630 hx        1 TX4      0.052700
     22 HO1         3.5160   -4.3920   -5.4120 ho        1 TX4      0.383000
     23 HN          1.4690   -3.2910   -6.9690 hn        1 TX4      0.210300
     24 HON         0.4300   -5.3640   -7.4380 ho        1 TX4      0.385000
     25 HN3         0.0530   -3.5230   -6.1740 hn        1 TX4      0.210300
@<TRIPOS>BOND
     1    1    2 1   
     2    2    3 1   
     3    2    4 1   
     4    2    5 1   
     5    5    6 1   
     6    6    7 1   
     7    6   15 1   
     8    6   16 1   
     9    7    8 1   
    10    7    9 1   
    11    7   17 1   
    12    8   18 1   
    13    9   10 1   
    14    9   11 1   
    15    9   19 1   
    16   10   20 1   
    17   11   12 1   
    18   11   13 1   
    19   11   21 1   
    20   12   22 1   
    21   13   14 1   
    22   13   23 1   
    23   13   25 1   
    24   14   24 1   
@<TRIPOS>SUBSTRUCTURE
     1 TX4         1 TEMP              0 ****  ****    0 ROOT
