@<TRIPOS>MOLECULE
TX5
   70    72     1     0     0
SMALL
bcc


@<TRIPOS>ATOM
      1 O2          0.1050   -0.6550   -0.7090 oh        1 TX5     -0.599800
      2 C1          3.3310    1.2620   -1.0710 c3        1 TX5      0.186300
      3 C2          1.8410    0.9680   -1.2050 c3        1 TX5     -0.146400
      4 C3          1.5060   -0.4150   -0.6590 c3        1 TX5      0.146100
      5 C4          1.9100   -0.5280    0.8080 c3        1 TX5     -0.036200
      6 C5          3.3560   -0.2060    0.9890 ce        1 TX5     -0.069200
      7 C6          4.1420   -1.0120    1.7320 cf        1 TX5     -0.113000
      8 C7          5.5580   -0.8220    1.9470 cf        1 TX5     -0.149000
      9 C8          6.2710   -1.3260    2.9740 c2        1 TX5     -0.088400
     10 C9          7.7470   -1.1240    3.0210 c3        1 TX5     -0.042200
     11 C10         3.8220    1.0160    0.3340 ce        1 TX5     -0.071200
     12 C11         8.2130   -0.7090    4.4000 c3        1 TX5     -0.073400
     13 C12         7.7620   -1.7090    5.4380 c3        1 TX5     -0.070400
     14 C13         6.2390   -1.8760    5.4890 c3        1 TX5     -0.036000
     15 C14         5.6560   -2.1190    4.0770 c3        1 TX5     -0.026500
     16 C15         5.7780   -3.6270    3.8420 c3        1 TX5     -0.072400
     17 C16         5.7630   -4.2830    5.2140 c3        1 TX5     -0.079400
     18 C17         5.9440   -3.1870    6.2700 c3        1 TX5     -0.057700
     19 C18         5.6220   -0.6370    6.1070 c3        1 TX5     -0.086100
     20 C19         4.6250    1.9040    0.9320 c2        1 TX5     -0.191000
     21 C20         4.8040   -3.1350    7.2850 c3        1 TX5     -0.054700
     22 C21         4.9140   -4.3110    8.2410 c3        1 TX5     -0.095100
     23 C22         3.4130   -3.1200    6.6500 c3        1 TX5     -0.003300
     24 O1          4.1070    0.4400   -1.9400 oh        1 TX5     -0.589800
     25 C23         2.4340   -2.4910    7.4870 c1        1 TX5     -0.106100
     26 C24         1.6040   -1.9670    8.1720 c1        1 TX5     -0.182100
     27 C25         0.6020   -1.3230    9.0020 c3        1 TX5      0.241900
     28 C27         1.2200   -0.1760    9.8050 c3        1 TX5     -0.099100
     29 C26        -0.5450   -0.8040    8.1320 c3        1 TX5     -0.099100
     30 O3          0.0850   -2.2320    9.9790 oh        1 TX5     -0.592800
     31 HO2        -0.1530   -0.6000   -1.6360 ho        1 TX5      0.399000
     32 H1          3.5120    2.3420   -1.3520 h1        1 TX5      0.034700
     33 H21         1.5400    1.0320   -2.2830 hc        1 TX5      0.053200
     34 H22         1.2590    1.7420   -0.6410 hc        1 TX5      0.053200
     35 H3          2.0460   -1.1960   -1.2670 h1        1 TX5      0.048700
     36 H41         1.2900    0.1850    1.4150 hc        1 TX5      0.062700
     37 H42         1.6770   -1.5640    1.1680 hc        1 TX5      0.062700
     38 H6          3.6990   -1.9150    2.1930 ha        1 TX5      0.124000
     39 H7          6.0730   -0.2230    1.1710 ha        1 TX5      0.135000
     40 H91         8.2440   -2.0920    2.7350 hc        1 TX5      0.047700
     41 H92         8.0660   -0.3530    2.2710 hc        1 TX5      0.047700
     42 H111        9.3330   -0.6430    4.4090 hc        1 TX5      0.042200
     43 H112        7.8170    0.3110    4.6450 hc        1 TX5      0.042200
     44 H121        8.1280   -1.3930    6.4500 hc        1 TX5      0.041200
     45 H122        8.2270   -2.7040    5.2030 hc        1 TX5      0.041200
     46 H14         4.5600   -1.8570    4.1280 hc        1 TX5      0.053700
     47 H151        6.7350   -3.8590    3.3090 hc        1 TX5      0.045200
     48 H152        4.9370   -3.9930    3.2030 hc        1 TX5      0.045200
     49 H161        4.8060   -4.8400    5.3710 hc        1 TX5      0.042200
     50 H162        6.5930   -5.0300    5.2950 hc        1 TX5      0.042200
     51 H17         6.8640   -3.4310    6.8780 hc        1 TX5      0.049700
     52 H181        4.5140   -0.7410    6.2030 hc        1 TX5      0.038367
     53 H182        5.8300    0.2520    5.4630 hc        1 TX5      0.038367
     54 H183        6.0530   -0.4480    7.1200 hc        1 TX5      0.038367
     55 H191        4.9790    1.7700    1.9640 ha        1 TX5      0.120500
     56 H192        4.9710    2.8160    0.4290 ha        1 TX5      0.120500
     57 H20         4.9260   -2.1940    7.8940 hc        1 TX5      0.061700
     58 H211        5.8630   -4.2490    8.8270 hc        1 TX5      0.037033
     59 H212        4.0550   -4.3050    8.9540 hc        1 TX5      0.037033
     60 H213        4.9070   -5.2770    7.6810 hc        1 TX5      0.037033
     61 H221        3.0800   -4.1760    6.4360 hc        1 TX5      0.064200
     62 H222        3.4530   -2.5810    5.6620 hc        1 TX5      0.064200
     63 HO1         3.7440    0.5590   -2.8260 ho        1 TX5      0.396000
     64 H271        1.6430    0.5830    9.1070 hc        1 TX5      0.047867
     65 H272        0.4340    0.2950   10.4410 hc        1 TX5      0.047867
     66 H273        2.0300   -0.5670   10.4660 hc        1 TX5      0.047867
     67 H261       -0.9990   -1.6400    7.5480 hc        1 TX5      0.047867
     68 H262       -1.3290   -0.3540    8.7850 hc        1 TX5      0.047867
     69 H263       -0.1680   -0.0300    7.4230 hc        1 TX5      0.047867
     70 HO3        -0.2760   -2.9870    9.5000 ho        1 TX5      0.403000
@<TRIPOS>BOND
     1    1    4 1   
     2    1   31 1   
     3    2    3 1   
     4    2   11 1   
     5    2   24 1   
     6    2   32 1   
     7    3    4 1   
     8    3   33 1   
     9    3   34 1   
    10    4    5 1   
    11    4   35 1   
    12    5    6 1   
    13    5   36 1   
    14    5   37 1   
    15    6    7 2   
    16    6   11 1   
    17    7    8 1   
    18    7   38 1   
    19    8    9 2   
    20    8   39 1   
    21    9   10 1   
    22    9   15 1   
    23   10   12 1   
    24   10   40 1   
    25   10   41 1   
    26   11   20 2   
    27   12   13 1   
    28   12   42 1   
    29   12   43 1   
    30   13   14 1   
    31   13   44 1   
    32   13   45 1   
    33   14   15 1   
    34   14   18 1   
    35   14   19 1   
    36   15   16 1   
    37   15   46 1   
    38   16   17 1   
    39   16   47 1   
    40   16   48 1   
    41   17   18 1   
    42   17   49 1   
    43   17   50 1   
    44   18   21 1   
    45   18   51 1   
    46   19   52 1   
    47   19   53 1   
    48   19   54 1   
    49   20   55 1   
    50   20   56 1   
    51   21   22 1   
    52   21   23 1   
    53   21   57 1   
    54   22   58 1   
    55   22   59 1   
    56   22   60 1   
    57   23   25 1   
    58   23   61 1   
    59   23   62 1   
    60   24   63 1   
    61   25   26 3   
    62   26   27 1   
    63   27   28 1   
    64   27   29 1   
    65   27   30 1   
    66   28   64 1   
    67   28   65 1   
    68   28   66 1   
    69   29   67 1   
    70   29   68 1   
    71   29   69 1   
    72   30   70 1   
@<TRIPOS>SUBSTRUCTURE
     1 TX5         1 TEMP              0 ****  ****    0 ROOT
