@<TRIPOS>MOLECULE
TX5
   70    72     1     0     0
SMALL
bcc


@<TRIPOS>ATOM
      1 O2         -0.0360   -0.6750   -0.3970 oh        1 TX5     -0.599800
      2 C1          3.1520    1.2770   -0.8910 c3        1 TX5      0.186300
      3 C2          1.6590    0.9720   -0.9530 c3        1 TX5     -0.146400
      4 C3          1.3640   -0.4230   -0.4160 c3        1 TX5      0.146100
      5 C4          1.8450   -0.5590    1.0270 c3        1 TX5     -0.036200
      6 C5          3.2960   -0.2270    1.1380 ce        1 TX5     -0.069200
      7 C6          4.1250   -1.0390    1.8250 cf        1 TX5     -0.113000
      8 C7          5.5490   -0.8400    1.9710 cf        1 TX5     -0.149000
      9 C8          6.3180   -1.3550    2.9510 c2        1 TX5     -0.088400
     10 C9          7.7930   -1.1410    2.9250 c3        1 TX5     -0.042200
     11 C10         3.7170    1.0100    0.4820 ce        1 TX5     -0.071200
     12 C11         8.3260   -0.7440    4.2850 c3        1 TX5     -0.073400
     13 C12         7.9360   -1.7650    5.3280 c3        1 TX5     -0.070400
     14 C13         6.4190   -1.9460    5.4540 c3        1 TX5     -0.036000
     15 C14         5.7670   -2.1720    4.0700 c3        1 TX5     -0.026500
     16 C15         5.8890   -3.6740    3.8030 c3        1 TX5     -0.072400
     17 C16         5.9500   -4.3530    5.1630 c3        1 TX5     -0.079400
     18 C17         6.1760   -3.2730    6.2260 c3        1 TX5     -0.057700
     19 C18         5.8250   -0.7240    6.1240 c3        1 TX5     -0.086100
     20 C19         4.5430    1.8950    1.0540 c2        1 TX5     -0.191000
     21 C20         5.0890   -3.2490    7.3000 c3        1 TX5     -0.054700
     22 C21         5.2580   -4.4390    8.2290 c3        1 TX5     -0.095100
     23 C22         3.6670   -3.2360    6.7360 c3        1 TX5     -0.003300
     24 O1          3.8880    0.4770   -1.8140 oh        1 TX5     -0.589800
     25 C23         2.7280   -2.6280    7.6330 c1        1 TX5     -0.106100
     26 C24         1.9290   -2.1220    8.3670 c1        1 TX5     -0.182100
     27 C25         0.9660   -1.4980    9.2560 c3        1 TX5      0.241900
     28 C27         1.5890   -0.2990    9.9740 c3        1 TX5     -0.099100
     29 C26        -0.2700   -1.0610    8.4660 c3        1 TX5     -0.099100
     30 O3          0.5720   -2.3990   10.2960 oh        1 TX5     -0.592800
     31 HO2        -0.3420   -0.6050   -1.3090 ho        1 TX5      0.399000
     32 H1          3.3090    2.3630   -1.1610 h1        1 TX5      0.034700
     33 H21         1.1010    1.7310   -0.3450 hc        1 TX5      0.053200
     34 H22         1.3020    1.0520   -2.0120 hc        1 TX5      0.053200
     35 H3          1.8780   -1.1880   -1.0650 h1        1 TX5      0.048700
     36 H41         1.6380   -1.6030    1.3790 hc        1 TX5      0.062700
     37 H42         1.2510    0.1380    1.6780 hc        1 TX5      0.062700
     38 H6          3.7140   -1.9530    2.2920 ha        1 TX5      0.124000
     39 H7          6.0190   -0.2240    1.1790 ha        1 TX5      0.135000
     40 H91         8.2820   -2.0990    2.5980 hc        1 TX5      0.047700
     41 H92         8.0660   -0.3540    2.1720 hc        1 TX5      0.047700
     42 H111        7.9340    0.2680    4.5670 hc        1 TX5      0.042200
     43 H112        9.4440   -0.6680    4.2380 hc        1 TX5      0.042200
     44 H121        8.3510   -1.4620    6.3250 hc        1 TX5      0.041200
     45 H122        8.3970   -2.7520    5.0530 hc        1 TX5      0.041200
     46 H14         4.6720   -1.9210    4.1810 hc        1 TX5      0.053700
     47 H151        5.0200   -4.0380    3.2020 hc        1 TX5      0.045200
     48 H152        6.8190   -3.8880    3.2180 hc        1 TX5      0.045200
     49 H161        6.7890   -5.0930    5.1880 hc        1 TX5      0.042200
     50 H162        5.0070   -4.9220    5.3590 hc        1 TX5      0.042200
     51 H17         7.1270   -3.5190    6.7820 hc        1 TX5      0.049700
     52 H181        5.9930    0.1780    5.4850 hc        1 TX5      0.038367
     53 H182        6.3060   -0.5480    7.1160 hc        1 TX5      0.038367
     54 H183        4.7240   -0.8400    6.2750 hc        1 TX5      0.038367
     55 H191        4.9510    1.7460    2.0630 ha        1 TX5      0.120500
     56 H192        4.8550    2.8190    0.5500 ha        1 TX5      0.120500
     57 H20         5.2350   -2.3160    7.9170 hc        1 TX5      0.061700
     58 H211        5.2300   -5.3960    7.6540 hc        1 TX5      0.037033
     59 H212        6.2350   -4.3780    8.7660 hc        1 TX5      0.037033
     60 H213        4.4370   -4.4520    8.9850 hc        1 TX5      0.037033
     61 H221        3.6520   -2.6810    5.7570 hc        1 TX5      0.064200
     62 H222        3.3330   -4.2910    6.5240 hc        1 TX5      0.064200
     63 HO1         3.4790    0.6080   -2.6770 ho        1 TX5      0.396000
     64 H271        1.9170    0.4560    9.2230 hc        1 TX5      0.047867
     65 H272        0.8330    0.1560   10.6580 hc        1 TX5      0.047867
     66 H273        2.4660   -0.6300   10.5780 hc        1 TX5      0.047867
     67 H261       -0.7270   -1.9350    7.9450 hc        1 TX5      0.047867
     68 H262       -1.0210   -0.6270    9.1680 hc        1 TX5      0.047867
     69 H263        0.0120   -0.2940    7.7080 hc        1 TX5      0.047867
     70 HO3         0.2120   -3.1840    9.8700 ho        1 TX5      0.403000
@<TRIPOS>BOND
     1    1    4 1   
     2    1   31 1   
     3    2    3 1   
     4    2   11 1   
     5    2   24 1   
     6    2   32 1   
     7    3    4 1   
     8    3   33 1   
     9    3   34 1   
    10    4    5 1   
    11    4   35 1   
    12    5    6 1   
    13    5   36 1   
    14    5   37 1   
    15    6    7 2   
    16    6   11 1   
    17    7    8 1   
    18    7   38 1   
    19    8    9 2   
    20    8   39 1   
    21    9   10 1   
    22    9   15 1   
    23   10   12 1   
    24   10   40 1   
    25   10   41 1   
    26   11   20 2   
    27   12   13 1   
    28   12   42 1   
    29   12   43 1   
    30   13   14 1   
    31   13   44 1   
    32   13   45 1   
    33   14   15 1   
    34   14   18 1   
    35   14   19 1   
    36   15   16 1   
    37   15   46 1   
    38   16   17 1   
    39   16   47 1   
    40   16   48 1   
    41   17   18 1   
    42   17   49 1   
    43   17   50 1   
    44   18   21 1   
    45   18   51 1   
    46   19   52 1   
    47   19   53 1   
    48   19   54 1   
    49   20   55 1   
    50   20   56 1   
    51   21   22 1   
    52   21   23 1   
    53   21   57 1   
    54   22   58 1   
    55   22   59 1   
    56   22   60 1   
    57   23   25 1   
    58   23   61 1   
    59   23   62 1   
    60   24   63 1   
    61   25   26 3   
    62   26   27 1   
    63   27   28 1   
    64   27   29 1   
    65   27   30 1   
    66   28   64 1   
    67   28   65 1   
    68   28   66 1   
    69   29   67 1   
    70   29   68 1   
    71   29   69 1   
    72   30   70 1   
@<TRIPOS>SUBSTRUCTURE
     1 TX5         1 TEMP              0 ****  ****    0 ROOT
