@<TRIPOS>MOLECULE
TX5
   70    72     1     0     0
SMALL
bcc


@<TRIPOS>ATOM
      1 O2         -4.3980   -3.9440   -1.9420 oh        1 TX5     -0.599800
      2 C1         -5.5910   -1.3060    0.4000 c3        1 TX5      0.183300
      3 C2         -5.4810   -2.6690   -0.2760 c3        1 TX5     -0.069400
      4 C3         -4.4720   -2.6240   -1.4150 c3        1 TX5      0.145100
      5 C4         -3.0990   -2.1730   -0.9180 c3        1 TX5     -0.075200
      6 C5         -3.1790   -0.8650   -0.2060 ce        1 TX5     -0.064200
      7 C6         -2.3030    0.1210   -0.4870 cf        1 TX5     -0.120000
      8 C7         -2.3050    1.4330    0.1180 cf        1 TX5     -0.152000
      9 C8         -1.2600    2.2840    0.1550 c2        1 TX5     -0.082400
     10 C9         -1.4360    3.6450    0.7390 c3        1 TX5     -0.043200
     11 C10        -4.2410   -0.7620    0.7950 ce        1 TX5     -0.122200
     12 C11        -0.2930    4.0120    1.6610 c3        1 TX5     -0.073400
     13 C12         1.0310    3.8880    0.9440 c3        1 TX5     -0.070400
     14 C13         1.2940    2.4750    0.4110 c3        1 TX5     -0.036000
     15 C14         0.0840    1.9460   -0.3940 c3        1 TX5     -0.027500
     16 C15         0.2770    2.4790   -1.8150 c3        1 TX5     -0.072400
     17 C16         1.7730    2.6850   -2.0020 c3        1 TX5     -0.079400
     18 C17         2.4440    2.5810   -0.6280 c3        1 TX5     -0.057700
     19 C18         1.5960    1.5520    1.5750 c3        1 TX5     -0.087100
     20 C19        -4.0430   -0.2470    2.0150 c2        1 TX5     -0.193000
     21 C20         3.5230    1.5000   -0.5660 c3        1 TX5     -0.055700
     22 C21         4.7560    1.9620   -1.3230 c3        1 TX5     -0.095100
     23 C22         3.0680    0.1440   -1.1070 c3        1 TX5     -0.003300
     24 O1         -6.2660   -0.4450   -0.5130 oh        1 TX5     -0.596800
     25 C23         3.7900   -0.9480   -0.5240 c1        1 TX5     -0.108100
     26 C24         4.3820   -1.8730   -0.0470 c1        1 TX5     -0.181100
     27 C25         5.0960   -2.9920    0.5430 c3        1 TX5      0.240900
     28 C27         5.2990   -2.7740    2.0430 c3        1 TX5     -0.099100
     29 C26         4.3290   -4.2930    0.2930 c3        1 TX5     -0.099100
     30 O3          6.4130   -3.1030   -0.0050 oh        1 TX5     -0.591800
     31 HO2        -3.7980   -3.9070   -2.6950 ho        1 TX5      0.399000
     32 H1         -6.2390   -1.4070    1.3210 h1        1 TX5      0.038700
     33 H21        -6.4820   -2.9650   -0.6820 hc        1 TX5      0.067200
     34 H22        -5.1660   -3.4310    0.4810 hc        1 TX5      0.067200
     35 H3         -4.8390   -1.9170   -2.2120 h1        1 TX5      0.053700
     36 H41        -2.3940   -2.1110   -1.7880 hc        1 TX5      0.054700
     37 H42        -2.6940   -2.9500   -0.2130 hc        1 TX5      0.054700
     38 H6         -1.5340   -0.0530   -1.2620 ha        1 TX5      0.125000
     39 H7         -3.2690    1.7420    0.5660 ha        1 TX5      0.125000
     40 H91        -1.4850    4.3860   -0.1060 hc        1 TX5      0.047700
     41 H92        -2.4060    3.7150    1.2990 hc        1 TX5      0.047700
     42 H111       -0.4270    5.0680    2.0160 hc        1 TX5      0.043200
     43 H112       -0.3080    3.3510    2.5670 hc        1 TX5      0.043200
     44 H121        1.0400    4.6070    0.0820 hc        1 TX5      0.041700
     45 H122        1.8630    4.1770    1.6380 hc        1 TX5      0.041700
     46 H14         0.1790    0.8220   -0.4210 hc        1 TX5      0.054700
     47 H151       -0.2690    3.4480   -1.9430 hc        1 TX5      0.044700
     48 H152       -0.1330    1.7580   -2.5640 hc        1 TX5      0.044700
     49 H161        1.9720    3.6920   -2.4470 hc        1 TX5      0.042700
     50 H162        2.1870    1.9270   -2.7120 hc        1 TX5      0.042700
     51 H17         2.9910    3.5480   -0.4280 hc        1 TX5      0.050700
     52 H181        0.7060    1.4840    2.2470 hc        1 TX5      0.039033
     53 H182        1.8400    0.5210    1.2210 hc        1 TX5      0.039033
     54 H183        2.4590    1.9400    2.1690 hc        1 TX5      0.039033
     55 H191       -4.8440   -0.1880    2.7640 ha        1 TX5      0.121000
     56 H192       -3.0660    0.1360    2.3380 ha        1 TX5      0.121000
     57 H20         3.8190    1.3710    0.5140 hc        1 TX5      0.061700
     58 H211        4.5010    2.2110   -2.3810 hc        1 TX5      0.037033
     59 H212        5.1910    2.8720   -0.8410 hc        1 TX5      0.037033
     60 H213        5.5290    1.1560   -1.3220 hc        1 TX5      0.037033
     61 H221        1.9680    0.0060   -0.9070 hc        1 TX5      0.063700
     62 H222        3.2070    0.1140   -2.2250 hc        1 TX5      0.063700
     63 HO1        -6.1360    0.4580   -0.2010 ho        1 TX5      0.403000
     64 H271        4.3080   -2.6830    2.5450 hc        1 TX5      0.048200
     65 H272        5.8570   -3.6410    2.4700 hc        1 TX5      0.048200
     66 H273        5.8910   -1.8450    2.2160 hc        1 TX5      0.048200
     67 H261        4.1820   -4.4540   -0.8010 hc        1 TX5      0.048200
     68 H262        4.9120   -5.1490    0.7080 hc        1 TX5      0.048200
     69 H263        3.3320   -4.2500    0.7900 hc        1 TX5      0.048200
     70 HO3         6.3160   -3.2040   -0.9590 ho        1 TX5      0.403000
@<TRIPOS>BOND
     1    1    4 1   
     2    1   31 1   
     3    2    3 1   
     4    2   11 1   
     5    2   24 1   
     6    2   32 1   
     7    3    4 1   
     8    3   33 1   
     9    3   34 1   
    10    4    5 1   
    11    4   35 1   
    12    5    6 1   
    13    5   36 1   
    14    5   37 1   
    15    6    7 2   
    16    6   11 1   
    17    7    8 1   
    18    7   38 1   
    19    8    9 2   
    20    8   39 1   
    21    9   10 1   
    22    9   15 1   
    23   10   12 1   
    24   10   40 1   
    25   10   41 1   
    26   11   20 2   
    27   12   13 1   
    28   12   42 1   
    29   12   43 1   
    30   13   14 1   
    31   13   44 1   
    32   13   45 1   
    33   14   15 1   
    34   14   18 1   
    35   14   19 1   
    36   15   16 1   
    37   15   46 1   
    38   16   17 1   
    39   16   47 1   
    40   16   48 1   
    41   17   18 1   
    42   17   49 1   
    43   17   50 1   
    44   18   21 1   
    45   18   51 1   
    46   19   52 1   
    47   19   53 1   
    48   19   54 1   
    49   20   55 1   
    50   20   56 1   
    51   21   22 1   
    52   21   23 1   
    53   21   57 1   
    54   22   58 1   
    55   22   59 1   
    56   22   60 1   
    57   23   25 1   
    58   23   61 1   
    59   23   62 1   
    60   24   63 1   
    61   25   26 3   
    62   26   27 1   
    63   27   28 1   
    64   27   29 1   
    65   27   30 1   
    66   28   64 1   
    67   28   65 1   
    68   28   66 1   
    69   29   67 1   
    70   29   68 1   
    71   29   69 1   
    72   30   70 1   
@<TRIPOS>SUBSTRUCTURE
     1 TX5         1 TEMP              0 ****  ****    0 ROOT
