@<TRIPOS>MOLECULE
TXA
   53    55     1     0     0
SMALL
bcc


@<TRIPOS>ATOM
      1 OXT         0.1750    0.3080   -0.4440 o         1 TXA     -0.782800
      2 CX          1.2180   -0.3000   -0.7640 c         1 TXA      0.924600
      3 OX          1.5750   -0.7070   -1.8990 o         1 TXA     -0.782800
      4 CAX         2.2560   -0.5660    0.4150 c3        1 TXA     -0.081500
      5 CBX         2.0650    0.4850    1.5210 c3        1 TXA      0.144100
      6 CGX         3.0500    0.3310    2.6630 c3        1 TXA     -0.116100
      7 OGX         2.2380    1.7860    0.9790 oh        1 TXA     -0.628800
      8 NX          3.6340   -0.5460   -0.1650 n4        1 TXA     -0.609800
      9 CCA         4.6060   -1.4050    0.5440 c         1 TXA      0.652100
     10 OP2         5.8130   -0.8920    0.6450 os        1 TXA     -0.477500
     11 OCA         4.3680   -2.5220    1.0080 o         1 TXA     -0.499000
     12 P           6.8640   -1.8790    1.6200 p5        1 TXA      1.446800
     13 OP3         6.2850   -1.8010    2.9570 o         1 TXA     -0.790000
     14 OP1         7.2440   -3.0140    0.7650 o         1 TXA     -0.790000
     15 O5'         8.1250   -0.8370    1.4740 os        1 TXA     -0.564200
     16 C5'         9.4090   -1.3810    1.5110 c3        1 TXA      0.193400
     17 C4'         9.9750   -1.6080    0.0990 c3        1 TXA      0.065100
     18 C3'         9.8880   -3.0740   -0.3760 c3        1 TXA      0.107100
     19 O3'         9.0340   -3.1880   -1.4920 oh        1 TXA     -0.623800
     20 C2'        11.3190   -3.4540   -0.8110 c3        1 TXA      0.112100
     21 O2'        11.5150   -3.5200   -2.2020 oh        1 TXA     -0.583800
     22 C1'        12.2150   -2.3100   -0.2250 c3        1 TXA      0.208800
     23 O4'        11.3550   -1.2080    0.0780 os        1 TXA     -0.413600
     24 N9         12.9620   -2.7160    0.9460 na        1 TXA     -0.270000
     25 C8         12.4520   -3.3010    2.1320 cc        1 TXA      0.417700
     26 N7         13.3700   -3.4650    3.0950 nd        1 TXA     -0.554100
     27 C5         14.5580   -2.9480    2.5560 ca        1 TXA     -0.225200
     28 C6         15.8880   -2.8270    3.0730 ca        1 TXA      0.739200
     29 N6         16.1980   -3.3470    4.3140 nh        1 TXA     -0.946500
     30 N1         16.8520   -2.2360    2.2940 nb        1 TXA     -0.798000
     31 C2         16.4860   -1.8240    1.0490 ca        1 TXA      0.674900
     32 N3         15.2880   -1.8850    0.4250 nb        1 TXA     -0.722000
     33 C4         14.3160   -2.4520    1.2020 ca        1 TXA      0.464800
     34 H2          2.0620   -1.5960    0.8240 hx        1 TXA      0.112700
     35 H3          1.0060    0.3570    1.8870 h1        1 TXA      0.080700
     36 H4          3.0910   -0.7350    2.9920 hc        1 TXA      0.055367
     37 H5          2.7320    0.9690    3.5220 hc        1 TXA      0.055367
     38 H6          4.0760    0.6530    2.3580 hc        1 TXA      0.055367
     39 H7          1.4690    1.9450    0.4090 ho        1 TXA      0.437000
     40 H8          3.9800    0.4220   -0.1650 hn        1 TXA      0.478300
     41 H10         9.3960   -2.3470    2.0880 h1        1 TXA      0.034200
     42 H11        10.0660   -0.6350    2.0430 h1        1 TXA      0.034200
     43 H12         9.4550   -0.9250   -0.6290 h1        1 TXA      0.097700
     44 H13         9.5410   -3.7500    0.4520 h1        1 TXA      0.084700
     45 H14         8.1390   -3.3300   -1.1390 ho        1 TXA      0.471000
     46 H15        11.6140   -4.4660   -0.4250 h1        1 TXA      0.088700
     47 H16        10.8730   -2.9340   -2.6270 ho        1 TXA      0.429000
     48 H17        12.9470   -1.9270   -0.9970 h2        1 TXA      0.124700
     49 H18        11.3920   -3.5810    2.2060 h5        1 TXA      0.078800
     50 H19        15.4360   -3.5630    4.9110 hn        1 TXA      0.432800
     51 H20        17.0590   -3.0960    4.7350 hn        1 TXA      0.432800
     52 H21        17.3050   -1.3610    0.4570 h5        1 TXA      0.045100
     53 HX2         3.5380   -0.8750   -1.1490 hn        1 TXA      0.478300
@<TRIPOS>BOND
     1    1    2 1   
     2    2    3 1   
     3    2    4 1   
     4    4    5 1   
     5    4    8 1   
     6    4   34 1   
     7    5    6 1   
     8    5    7 1   
     9    5   35 1   
    10    6   36 1   
    11    6   37 1   
    12    6   38 1   
    13    7   39 1   
    14    8    9 1   
    15    8   40 1   
    16    8   53 1   
    17    9   10 1   
    18    9   11 2   
    19   10   12 1   
    20   12   13 1   
    21   12   14 1   
    22   12   15 1   
    23   15   16 1   
    24   16   17 1   
    25   16   41 1   
    26   16   42 1   
    27   17   18 1   
    28   17   23 1   
    29   17   43 1   
    30   18   19 1   
    31   18   20 1   
    32   18   44 1   
    33   19   45 1   
    34   20   21 1   
    35   20   22 1   
    36   20   46 1   
    37   21   47 1   
    38   22   23 1   
    39   22   24 1   
    40   22   48 1   
    41   24   25 1   
    42   24   33 1   
    43   25   26 2   
    44   25   49 1   
    45   26   27 1   
    46   27   28 ar  
    47   27   33 ar  
    48   28   29 1   
    49   28   30 ar  
    50   29   50 1   
    51   29   51 1   
    52   30   31 ar  
    53   31   32 ar  
    54   31   52 1   
    55   32   33 ar  
@<TRIPOS>SUBSTRUCTURE
     1 TXA         1 TEMP              0 ****  ****    0 ROOT
