@<TRIPOS>MOLECULE
TXA
   52    54     1     0     0
SMALL
bcc


@<TRIPOS>ATOM
      1 OXT        -7.1870    1.9930   -0.2410 o         1 TXA     -0.837300
      2 CX         -6.0400    1.9780   -0.7570 c         1 TXA      0.916600
      3 OX         -5.7720    2.3230   -1.9450 o         1 TXA     -0.837300
      4 CAX        -4.8390    1.5620    0.1670 c3        1 TXA     -0.057300
      5 CBX        -4.0730    2.8690    0.4980 c3        1 TXA      0.131100
      6 CGX        -3.0060    2.6640    1.5550 c3        1 TXA     -0.095100
      7 OGX        -3.4360    3.4360   -0.6390 oh        1 TXA     -0.646800
      8 NX         -4.0440    0.5360   -0.4600 n         1 TXA     -0.491900
      9 CCA        -3.2040   -0.2760    0.2530 c         1 TXA      0.773100
     10 OP2        -2.3290   -1.0370   -0.4520 os        1 TXA     -0.568500
     11 OCA        -3.1370   -0.4990    1.4880 o         1 TXA     -0.668000
     12 P          -1.4740   -2.1240    0.4890 p5        1 TXA      1.487800
     13 OP3        -0.3570   -1.4290    1.1720 o         1 TXA     -0.827500
     14 OP1        -2.2750   -3.2430    0.9930 o         1 TXA     -0.827500
     15 O5'        -0.6920   -2.7620   -0.8410 os        1 TXA     -0.575200
     16 C5'         0.3020   -1.9880   -1.4210 c3        1 TXA      0.192400
     17 C4'         1.6570   -2.7050   -1.2860 c3        1 TXA      0.074100
     18 C3'         1.9220   -3.2160    0.1430 c3        1 TXA      0.066100
     19 O3'         2.0530   -4.6270    0.1570 oh        1 TXA     -0.624800
     20 C2'         3.2590   -2.5920    0.5770 c3        1 TXA      0.123100
     21 O2'         4.3440   -3.4920    0.6140 oh        1 TXA     -0.595800
     22 C1'         3.5410   -1.5000   -0.5110 c3        1 TXA      0.218800
     23 O4'         2.7220   -1.8080   -1.6440 os        1 TXA     -0.422600
     24 N9          3.3190   -0.1510   -0.0420 na        1 TXA     -0.281000
     25 C8          2.1970    0.3740    0.6600 cc        1 TXA      0.449700
     26 N7          2.2760    1.6960    0.8670 nd        1 TXA     -0.566100
     27 C5          3.4760    2.1000    0.2620 ca        1 TXA     -0.202200
     28 C6          4.1060    3.3750    0.1190 ca        1 TXA      0.709200
     29 N6          3.5520    4.4940    0.7320 nh        1 TXA     -0.930500
     30 N1          5.2890    3.4600   -0.5730 nb        1 TXA     -0.801000
     31 C2          5.8090    2.3000   -1.0600 ca        1 TXA      0.648900
     32 N3          5.3380    1.0340   -0.9970 nb        1 TXA     -0.725000
     33 C4          4.1460    0.9460   -0.3320 ca        1 TXA      0.441800
     34 H2         -5.2480    1.1490    1.1330 h1        1 TXA      0.077700
     35 H3         -4.8430    3.6050    0.8720 h1        1 TXA      0.024700
     36 H4         -2.1990    1.9920    1.1740 hc        1 TXA      0.037367
     37 H5         -2.5480    3.6430    1.8340 hc        1 TXA      0.037367
     38 H6         -3.4600    2.1920    2.4580 hc        1 TXA      0.037367
     39 H7         -4.0290    3.2960   -1.3960 ho        1 TXA      0.439000
     40 H8         -3.8620    0.6550   -1.4320 hn        1 TXA      0.329500
     41 H10         0.0790   -1.8690   -2.5180 h1        1 TXA      0.037700
     42 H11         0.3600   -0.9720   -0.9410 h1        1 TXA      0.037700
     43 H12         1.7210   -3.5500   -2.0240 h1        1 TXA      0.060700
     44 H13         1.0870   -2.8790    0.8320 h1        1 TXA      0.140700
     45 H14         1.1530   -4.9710    0.0770 ho        1 TXA      0.432000
     46 H15         3.1960   -2.1630    1.6120 h1        1 TXA      0.101700
     47 H16         4.1900   -4.1670   -0.0590 ho        1 TXA      0.417000
     48 H17         4.6060   -1.5720   -0.8840 h2        1 TXA      0.104700
     49 H18         1.3470   -0.2760    0.9880 h5        1 TXA      0.170800
     50 H19         2.5900    4.4030    0.9730 hn        1 TXA      0.418300
     51 H20         3.8240    5.3810    0.3770 hn        1 TXA      0.418300
     52 H21         6.7700    2.4190   -1.6020 h5        1 TXA      0.029100
@<TRIPOS>BOND
     1    1    2 1   
     2    2    3 1   
     3    2    4 1   
     4    4    5 1   
     5    4    8 1   
     6    4   34 1   
     7    5    6 1   
     8    5    7 1   
     9    5   35 1   
    10    6   36 1   
    11    6   37 1   
    12    6   38 1   
    13    7   39 1   
    14    8    9 1   
    15    8   40 1   
    16    9   10 1   
    17    9   11 2   
    18   10   12 1   
    19   12   13 1   
    20   12   14 1   
    21   12   15 1   
    22   15   16 1   
    23   16   17 1   
    24   16   41 1   
    25   16   42 1   
    26   17   18 1   
    27   17   23 1   
    28   17   43 1   
    29   18   19 1   
    30   18   20 1   
    31   18   44 1   
    32   19   45 1   
    33   20   21 1   
    34   20   22 1   
    35   20   46 1   
    36   21   47 1   
    37   22   23 1   
    38   22   24 1   
    39   22   48 1   
    40   24   25 1   
    41   24   33 1   
    42   25   26 2   
    43   25   49 1   
    44   26   27 1   
    45   27   28 ar  
    46   27   33 ar  
    47   28   29 1   
    48   28   30 ar  
    49   29   50 1   
    50   29   51 1   
    51   30   31 ar  
    52   31   32 ar  
    53   31   52 1   
    54   32   33 ar  
@<TRIPOS>SUBSTRUCTURE
     1 TXA         1 TEMP              0 ****  ****    0 ROOT
