@<TRIPOS>MOLECULE
TXA
   54    56     1     0     0
SMALL
bcc


@<TRIPOS>ATOM
      1 OXT         4.6450   -1.7940   -1.7030 o         1 TXA     -0.798300
      2 CX          5.2190   -1.0910   -0.8470 c         1 TXA      0.918600
      3 OX          6.2650   -0.3950   -1.0110 o         1 TXA     -0.798300
      4 CAX         4.5800   -1.0490    0.5930 c3        1 TXA     -0.067500
      5 CBX         3.0600   -1.2710    0.4980 c3        1 TXA      0.140100
      6 CGX         2.3810   -1.2770    1.8530 c3        1 TXA     -0.112100
      7 OGX         2.4740   -0.2310   -0.2710 oh        1 TXA     -0.626800
      8 NX          4.9230    0.2600    1.2510 n4        1 TXA     -0.623800
      9 CCA         5.5750    0.0460    2.5670 c         1 TXA      0.670100
     10 OP2         6.8890   -0.0150    2.5230 os        1 TXA     -0.490500
     11 OCA         4.9710   -0.0840    3.6300 o         1 TXA     -0.490000
     12 P           7.4810   -1.2520    3.5960 p5        1 TXA      1.432800
     13 OP3         7.9540   -0.6740    4.8470 o         1 TXA     -0.770000
     14 OP1         6.4900   -2.2730    3.2340 o         1 TXA     -0.770000
     15 O5'         8.8190   -1.5250    2.6800 os        1 TXA     -0.578200
     16 C5'         8.6490   -2.1390    1.4390 c3        1 TXA      0.158400
     17 C4'         8.9670   -1.1790    0.2870 c3        1 TXA      0.061100
     18 C3'         9.2130   -1.9620   -1.0180 c3        1 TXA      0.111100
     19 O3'         8.7910   -1.2570   -2.1620 oh        1 TXA     -0.630800
     20 C2'        10.7560   -2.0940   -1.1070 c3        1 TXA      0.130100
     21 O2'        11.3140   -1.7760   -2.3510 oh        1 TXA     -0.578800
     22 C1'        11.2890   -1.0870   -0.0260 c3        1 TXA      0.201800
     23 O4'        10.1730   -0.4300    0.5450 os        1 TXA     -0.379600
     24 N9         12.0660   -1.7110    1.0500 na        1 TXA     -0.262000
     25 C8         11.7900   -1.6430    2.4310 cc        1 TXA      0.548700
     26 N7         12.7100   -2.2650    3.2070 nd        1 TXA     -0.623100
     27 C5         13.6430   -2.7750    2.3120 ca        1 TXA     -0.120200
     28 C6         14.8220   -3.5200    2.4480 ca        1 TXA      0.476200
     29 N6         15.2380   -3.9020    3.8100 n4        1 TXA     -0.809300
     30 N1         15.5750   -3.8950    1.3790 nb        1 TXA     -0.694000
     31 C2         15.1190   -3.5080    0.1580 ca        1 TXA      0.646900
     32 N3         14.0020   -2.7950   -0.1570 nb        1 TXA     -0.605000
     33 C4         13.2590   -2.4290    0.9120 ca        1 TXA      0.447800
     34 H2          5.0420   -1.8880    1.1960 hx        1 TXA      0.141700
     35 H3          2.9270   -2.2640   -0.0220 h1        1 TXA      0.092700
     36 H4          2.2340   -0.2380    2.2330 hc        1 TXA      0.054033
     37 H5          1.3760   -1.7550    1.7660 hc        1 TXA      0.054033
     38 H6          2.9990   -1.8480    2.5870 hc        1 TXA      0.054033
     39 H7          2.7300   -0.3970   -1.1910 ho        1 TXA      0.435000
     40 H8          5.6030    0.7390    0.6240 hn        1 TXA      0.471300
     41 H10         7.5920   -2.5130    1.3230 h1        1 TXA      0.049200
     42 H11         9.3630   -3.0130    1.3960 h1        1 TXA      0.049200
     43 H12         8.1670   -0.3910    0.1750 h1        1 TXA      0.148700
     44 H13         8.7230   -2.9710   -0.9870 h1        1 TXA      0.069700
     45 H14         7.8400   -1.0610   -2.0620 ho        1 TXA      0.484000
     46 H15        11.0790   -3.1490   -0.8980 h1        1 TXA      0.084700
     47 H16        10.7790   -1.0820   -2.7670 ho        1 TXA      0.442000
     48 H17        11.9430   -0.2910   -0.4940 h2        1 TXA      0.111700
     49 H18        10.8700   -1.1280    2.8040 h5        1 TXA      0.171800
     50 H19        14.4850   -4.4620    4.2290 hn        1 TXA      0.470133
     51 H20        16.1100   -4.4400    3.7980 hn        1 TXA      0.470133
     52 H21        15.7470   -3.8220   -0.7070 h5        1 TXA      0.086100
     53 HX2         4.0730    0.8180    1.3590 hn        1 TXA      0.471300
     54 H63        15.3610   -3.0440    4.3610 hn        1 TXA      0.470133
@<TRIPOS>BOND
     1    1    2 1   
     2    2    3 1   
     3    2    4 1   
     4    4    5 1   
     5    4    8 1   
     6    4   34 1   
     7    5    6 1   
     8    5    7 1   
     9    5   35 1   
    10    6   36 1   
    11    6   37 1   
    12    6   38 1   
    13    7   39 1   
    14    8    9 1   
    15    8   40 1   
    16    8   53 1   
    17    9   10 1   
    18    9   11 2   
    19   10   12 1   
    20   12   13 1   
    21   12   14 1   
    22   12   15 1   
    23   15   16 1   
    24   16   17 1   
    25   16   41 1   
    26   16   42 1   
    27   17   18 1   
    28   17   23 1   
    29   17   43 1   
    30   18   19 1   
    31   18   20 1   
    32   18   44 1   
    33   19   45 1   
    34   20   21 1   
    35   20   22 1   
    36   20   46 1   
    37   21   47 1   
    38   22   23 1   
    39   22   24 1   
    40   22   48 1   
    41   24   25 1   
    42   24   33 1   
    43   25   26 2   
    44   25   49 1   
    45   26   27 1   
    46   27   28 ar  
    47   27   33 ar  
    48   28   29 1   
    49   28   30 ar  
    50   29   50 1   
    51   29   51 1   
    52   29   54 1   
    53   30   31 ar  
    54   31   32 ar  
    55   31   52 1   
    56   32   33 ar  
@<TRIPOS>SUBSTRUCTURE
     1 TXA         1 TEMP              0 ****  ****    0 ROOT
