@<TRIPOS>MOLECULE
TXA
   53    55     1     0     0
SMALL
bcc


@<TRIPOS>ATOM
      1 OXT         0.1700    0.3030   -0.4220 o         1 TXA     -0.782800
      2 CX          1.2230   -0.2780   -0.7630 c         1 TXA      0.924600
      3 OX          1.5950   -0.6210   -1.9140 o         1 TXA     -0.782800
      4 CAX         2.2510   -0.5960    0.4120 c3        1 TXA     -0.081500
      5 CBX         2.0390    0.3920    1.5700 c3        1 TXA      0.144100
      6 CGX         3.0140    0.1880    2.7120 c3        1 TXA     -0.116100
      7 OGX         2.2040    1.7220    1.0990 oh        1 TXA     -0.628800
      8 NX          3.6340   -0.5330   -0.1510 ny        1 TXA     -0.609800
      9 CCA         4.6080   -1.4190    0.5220 c         1 TXA      0.652100
     10 OP2         5.8090   -0.9010    0.6610 os        1 TXA     -0.477500
     11 OCA         4.3760   -2.5610    0.9240 o         1 TXA     -0.499000
     12 P           6.8600   -1.9290    1.5930 p5        1 TXA      1.446800
     13 OP3         6.2680   -1.9260    2.9270 o         1 TXA     -0.790000
     14 OP1         7.2580   -3.0140    0.6840 o         1 TXA     -0.790000
     15 O5'         8.1120   -0.8690    1.5140 os        1 TXA     -0.564200
     16 C5'         9.4010   -1.4030    1.5350 c3        1 TXA      0.193400
     17 C4'         9.9820   -1.5500    0.1190 c3        1 TXA      0.065100
     18 C3'         9.9130   -2.9900   -0.4340 c3        1 TXA      0.107100
     19 O3'         9.0700   -3.0520   -1.5620 oh        1 TXA     -0.623800
     20 C2'        11.3510   -3.3340   -0.8750 c3        1 TXA      0.112100
     21 O2'        11.5600   -3.3250   -2.2660 oh        1 TXA     -0.583800
     22 C1'        12.2310   -2.2140   -0.2220 c3        1 TXA      0.208800
     23 O4'        11.3580   -1.1370    0.1320 os        1 TXA     -0.413600
     24 N9         12.9720   -2.6740    0.9330 na        1 TXA     -0.270000
     25 C8         12.4570   -3.3250    2.0830 cc        1 TXA      0.417700
     26 N7         13.3680   -3.5320    3.0450 nd        1 TXA     -0.554100
     27 C5         14.5550   -2.9770    2.5430 ca        1 TXA     -0.225200
     28 C6         15.8800   -2.8720    3.0780 ca        1 TXA      0.739200
     29 N6         16.1840   -3.4540    4.2920 nv        1 TXA     -0.946500
     30 N1         16.8460   -2.2340    2.3400 nb        1 TXA     -0.798000
     31 C2         16.4870   -1.7600    1.1140 ca        1 TXA      0.674900
     32 N3         15.2950   -1.7980    0.4780 nb        1 TXA     -0.722000
     33 C4         14.3210   -2.4130    1.2150 ca        1 TXA      0.464800
     34 H2          2.0630   -1.6480    0.7630 hx        1 TXA      0.112700
     35 H3          0.9770    0.2350    1.9170 h1        1 TXA      0.080700
     36 H4          4.0390    0.5360    2.4360 hc        1 TXA      0.055367
     37 H5          2.6800    0.7740    3.6010 hc        1 TXA      0.055367
     38 H6          3.0630   -0.8940    2.9840 hc        1 TXA      0.055367
     39 H7          1.4390    1.9040    0.5310 ho        1 TXA      0.437000
     40 H8          3.5520   -0.8100   -1.1530 hn        1 TXA      0.478300
     41 H10         9.3920   -2.3990    2.0600 h1        1 TXA      0.034200
     42 H11        10.0460   -0.6810    2.1110 h1        1 TXA      0.034200
     43 H12         9.4620   -0.8340   -0.5770 h1        1 TXA      0.097700
     44 H13         9.5650   -3.7120    0.3540 h1        1 TXA      0.084700
     45 H14         8.1730   -3.2210   -1.2260 ho        1 TXA      0.471000
     46 H15        11.6520   -4.3620   -0.5400 h1        1 TXA      0.088700
     47 H16        10.9170   -2.7230   -2.6650 ho        1 TXA      0.429000
     48 H17        12.9660   -1.7850   -0.9650 h2        1 TXA      0.124700
     49 H18        11.3990   -3.6170    2.1320 h5        1 TXA      0.078800
     50 H19        15.4190   -3.7080    4.8700 hn        1 TXA      0.432800
     51 H20        17.0390   -3.2190    4.7340 hn        1 TXA      0.432800
     52 H21        17.3060   -1.2600    0.5550 h5        1 TXA      0.045100
     53 HX2         3.9710    0.4370   -0.0960 hn        1 TXA      0.478300
@<TRIPOS>BOND
     1    1    2 1   
     2    2    3 1   
     3    2    4 1   
     4    4    5 1   
     5    4    8 1   
     6    4   34 1   
     7    5    6 1   
     8    5    7 1   
     9    5   35 1   
    10    6   36 1   
    11    6   37 1   
    12    6   38 1   
    13    7   39 1   
    14    8    9 1   
    15    8   40 1   
    16    8   53 1   
    17    9   10 1   
    18    9   11 2   
    19   10   12 1   
    20   12   13 1   
    21   12   14 1   
    22   12   15 1   
    23   15   16 1   
    24   16   17 1   
    25   16   41 1   
    26   16   42 1   
    27   17   18 1   
    28   17   23 1   
    29   17   43 1   
    30   18   19 1   
    31   18   20 1   
    32   18   44 1   
    33   19   45 1   
    34   20   21 1   
    35   20   22 1   
    36   20   46 1   
    37   21   47 1   
    38   22   23 1   
    39   22   24 1   
    40   22   48 1   
    41   24   25 1   
    42   24   33 1   
    43   25   26 2   
    44   25   49 1   
    45   26   27 1   
    46   27   28 ar  
    47   27   33 ar  
    48   28   29 1   
    49   28   30 ar  
    50   29   50 1   
    51   29   51 1   
    52   30   31 ar  
    53   31   32 ar  
    54   31   52 1   
    55   32   33 ar  
@<TRIPOS>SUBSTRUCTURE
     1 TXA         1 TEMP              0 ****  ****    0 ROOT
