@<TRIPOS>MOLECULE
TXC
   45    46     1     0     0
SMALL
bcc


@<TRIPOS>ATOM
      1 CG2         0.4990    0.9120   -0.5380 c3        1 TXC     -0.125100
      2 CB          1.9190    0.7280   -0.0510 c3        1 TXC     -0.081700
      3 CG1         2.7050    2.0170   -0.1440 c3        1 TXC     -0.125100
      4 CA          1.9380    0.1370    1.3740 c3        1 TXC      0.065500
      5 N           1.4650    1.1270    2.3980 n4        1 TXC     -0.834600
      6 C           3.3470   -0.3250    1.7300 c         1 TXC      0.615100
      7 O           4.0970    0.2210    2.5410 o         1 TXC     -0.507000
      8 OAO         3.7240   -1.4400    1.0630 os        1 TXC     -0.409900
      9 CAI         5.0650   -1.9190    1.3450 c3        1 TXC      0.133400
     10 CAH         5.2710   -3.1430    0.4640 c3        1 TXC      0.111400
     11 OAN         5.8130   -2.6700   -0.7740 os        1 TXC     -0.410600
     12 CAJ         6.6180   -3.5940   -1.4790 c3        1 TXC      0.241100
     13 N9          5.8210   -4.5680   -2.2000 na        1 TXC     -0.206900
     14 C8          4.4970   -4.4200   -2.6540 cc        1 TXC      0.456400
     15 N7          4.0500   -5.4840   -3.3650 nd        1 TXC     -0.567000
     16 C5          5.1200   -6.3640   -3.3990 cd        1 TXC      0.287800
     17 C4          6.2460   -5.8140   -2.6800 cc        1 TXC      0.016800
     18 N3          7.4750   -6.4450   -2.5520 nc        1 TXC     -0.541100
     19 C2          7.5390   -7.6290   -3.1670 cd        1 TXC      0.522800
     20 N2          8.8610   -8.3340   -3.0710 n4        1 TXC     -0.798600
     21 N1          6.5280   -8.2740   -3.8790 n         1 TXC     -0.499400
     22 C6          5.2320   -7.6680   -4.0370 c         1 TXC      0.645000
     23 O6          4.3930   -8.3010   -4.6720 o         1 TXC     -0.487500
     24 HG21        0.5140    1.1820   -1.6250 hc        1 TXC      0.064867
     25 HG22       -0.0220    1.7390    0.0040 hc        1 TXC      0.064867
     26 HG23       -0.0920   -0.0290   -0.4240 hc        1 TXC      0.064867
     27 HB          2.4230   -0.0540   -0.6950 hc        1 TXC      0.112700
     28 HG11        2.8950    2.2600   -1.2210 hc        1 TXC      0.064867
     29 HG12        2.1430    2.8770    0.2960 hc        1 TXC      0.064867
     30 HG13        3.6930    1.9230    0.3700 hc        1 TXC      0.064867
     31 HA          1.2410   -0.7570    1.4110 hx        1 TXC      0.141700
     32 HN1         0.5720    1.5290    2.0910 hn        1 TXC      0.474800
     33 HN2         2.1640    1.8780    2.4920 hn        1 TXC      0.474800
     34 HAI1        5.1180   -2.1920    2.4310 h1        1 TXC      0.092700
     35 HAI2        5.7950   -1.1020    1.1070 h1        1 TXC      0.092700
     36 HAH1        4.3000   -3.6640    0.2510 h1        1 TXC      0.070700
     37 HAH2        5.9850   -3.8440    0.9720 h1        1 TXC      0.070700
     38 HAJ1        7.1770   -2.9460   -2.2230 h2        1 TXC      0.098700
     39 HAJ2        7.3250   -4.1430   -0.7940 h2        1 TXC      0.098700
     40 H8          3.9150   -3.5130   -2.4340 h5        1 TXC      0.095100
     41 H21N        9.2450   -8.4710   -4.0160 hn        1 TXC      0.486800
     42 H22N        9.5230   -7.7660   -2.5190 hn        1 TXC      0.486800
     43 H1          6.6690   -9.1630   -4.3120 hn        1 TXC      0.356500
     44 HN3         1.3500    0.6710    3.3090 hn        1 TXC      0.474800
     45 H23         8.7340   -9.2440   -2.6100 hn        1 TXC      0.486800
@<TRIPOS>BOND
     1    1    2 1   
     2    1   24 1   
     3    1   25 1   
     4    1   26 1   
     5    2    3 1   
     6    2    4 1   
     7    2   27 1   
     8    3   28 1   
     9    3   29 1   
    10    3   30 1   
    11    4    5 1   
    12    4    6 1   
    13    4   31 1   
    14    5   32 1   
    15    5   33 1   
    16    5   44 1   
    17    6    7 2   
    18    6    8 1   
    19    8    9 1   
    20    9   10 1   
    21    9   34 1   
    22    9   35 1   
    23   10   11 1   
    24   10   36 1   
    25   10   37 1   
    26   11   12 1   
    27   12   13 1   
    28   12   38 1   
    29   12   39 1   
    30   13   14 1   
    31   13   17 1   
    32   14   15 2   
    33   14   40 1   
    34   15   16 1   
    35   16   17 2   
    36   16   22 1   
    37   17   18 1   
    38   18   19 2   
    39   19   20 1   
    40   19   21 1   
    41   20   41 1   
    42   20   42 1   
    43   20   45 1   
    44   21   22 1   
    45   21   43 1   
    46   22   23 2   
@<TRIPOS>SUBSTRUCTURE
     1 TXC         1 TEMP              0 ****  ****    0 ROOT
