@<TRIPOS>MOLECULE
TXC
   45    46     1     0     0
SMALL
bcc


@<TRIPOS>ATOM
      1 CG2         0.4070    0.8120   -0.4650 c3        1 TXC     -0.125100
      2 CB          1.8540    0.6850   -0.0440 c3        1 TXC     -0.081700
      3 CG1         2.5950    1.9920   -0.2140 c3        1 TXC     -0.125100
      4 CA          1.9600    0.1400    1.3960 c3        1 TXC      0.065500
      5 N           1.5060    1.1470    2.4120 n4        1 TXC     -0.834600
      6 C           3.3980   -0.2690    1.6960 c         1 TXC      0.615100
      7 O           4.1690    0.3240    2.4510 o         1 TXC     -0.507000
      8 OAO         3.7750   -1.3950    1.0460 os        1 TXC     -0.409900
      9 CAI         5.1420   -1.8250    1.2740 c3        1 TXC      0.133400
     10 CAH         5.3410   -3.0740    0.4270 c3        1 TXC      0.111400
     11 OAN         5.8020   -2.6300   -0.8540 os        1 TXC     -0.410600
     12 CAJ         6.6000   -3.5530   -1.5670 c3        1 TXC      0.241100
     13 N9          5.8000   -4.5800   -2.2080 na        1 TXC     -0.206900
     14 C8          4.4500   -4.4930   -2.5960 cc        1 TXC      0.456400
     15 N7          4.0040   -5.5980   -3.2430 nd        1 TXC     -0.567000
     16 C5          5.1010   -6.4420   -3.3020 cd        1 TXC      0.287800
     17 C4          6.2440   -5.8290   -2.6650 cc        1 TXC      0.016800
     18 N3          7.4990   -6.4130   -2.5810 nc        1 TXC     -0.541100
     19 C2          7.5710   -7.6170   -3.1550 cd        1 TXC      0.522800
     20 N2          8.9210   -8.2740   -3.1050 n4        1 TXC     -0.798600
     21 N1          6.5470   -8.3210   -3.7870 n         1 TXC     -0.499400
     22 C6          5.2250   -7.7660   -3.8970 c         1 TXC      0.645000
     23 O6          4.3760   -8.4490   -4.4620 o         1 TXC     -0.487500
     24 HG21        0.3610    1.0480   -1.5590 hc        1 TXC      0.064867
     25 HG22       -0.1130    1.6400    0.0760 hc        1 TXC      0.064867
     26 HG23       -0.1490   -0.1410   -0.2940 hc        1 TXC      0.064867
     27 HB          2.3500   -0.1030   -0.6880 hc        1 TXC      0.112700
     28 HG11        3.6090    1.9440    0.2530 hc        1 TXC      0.064867
     29 HG12        2.7250    2.2070   -1.3060 hc        1 TXC      0.064867
     30 HG13        2.0280    2.8490    0.2270 hc        1 TXC      0.064867
     31 HA          1.2930   -0.7730    1.4940 hx        1 TXC      0.141700
     32 HN1         1.4490    0.7170    3.3410 hn        1 TXC      0.474800
     33 HN2         2.1870    1.9200    2.4490 hn        1 TXC      0.474800
     34 HAI1        5.8350   -0.9960    0.9710 h1        1 TXC      0.092700
     35 HAI2        5.2590   -2.0560    2.3650 h1        1 TXC      0.092700
     36 HAH1        4.3780   -3.6310    0.2850 h1        1 TXC      0.070700
     37 HAH2        6.1030   -3.7330    0.9200 h1        1 TXC      0.070700
     38 HAJ1        7.0960   -2.9160   -2.3630 h2        1 TXC      0.098700
     39 HAJ2        7.3610   -4.0520   -0.9020 h2        1 TXC      0.098700
     40 H8          3.8490   -3.5980   -2.3780 h5        1 TXC      0.095100
     41 H21N        9.5900   -7.6640   -2.6100 hn        1 TXC      0.486800
     42 H22N        8.8500   -9.1690   -2.6060 hn        1 TXC      0.486800
     43 H1          6.6970   -9.2220   -4.1940 hn        1 TXC      0.356500
     44 HN3         0.5880    1.5140    2.1370 hn        1 TXC      0.474800
     45 H23         9.2590   -8.4340   -4.0630 hn        1 TXC      0.486800
@<TRIPOS>BOND
     1    1    2 1   
     2    1   24 1   
     3    1   25 1   
     4    1   26 1   
     5    2    3 1   
     6    2    4 1   
     7    2   27 1   
     8    3   28 1   
     9    3   29 1   
    10    3   30 1   
    11    4    5 1   
    12    4    6 1   
    13    4   31 1   
    14    5   32 1   
    15    5   33 1   
    16    5   44 1   
    17    6    7 2   
    18    6    8 1   
    19    8    9 1   
    20    9   10 1   
    21    9   34 1   
    22    9   35 1   
    23   10   11 1   
    24   10   36 1   
    25   10   37 1   
    26   11   12 1   
    27   12   13 1   
    28   12   38 1   
    29   12   39 1   
    30   13   14 1   
    31   13   17 1   
    32   14   15 2   
    33   14   40 1   
    34   15   16 1   
    35   16   17 2   
    36   16   22 1   
    37   17   18 1   
    38   18   19 2   
    39   19   20 1   
    40   19   21 1   
    41   20   41 1   
    42   20   42 1   
    43   20   45 1   
    44   21   22 1   
    45   21   43 1   
    46   22   23 2   
@<TRIPOS>SUBSTRUCTURE
     1 TXC         1 TEMP              0 ****  ****    0 ROOT
