@<TRIPOS>MOLECULE
TXC
   43    44     1     0     0
SMALL
bcc


@<TRIPOS>ATOM
      1 CG2         3.5550    2.7350    1.1380 c3        1 TXC     -0.094600
      2 CB          3.5870    1.4620    0.3200 c3        1 TXC     -0.058700
      3 CG1         4.4250    1.6430   -0.9270 c3        1 TXC     -0.094600
      4 CA          4.0770    0.2790    1.1860 c3        1 TXC      0.138500
      5 N           5.4550    0.3810    1.5950 n3        1 TXC     -0.891800
      6 C           3.7640   -1.0150    0.4310 c         1 TXC      0.586100
      7 O           4.5560   -1.8080   -0.0840 o         1 TXC     -0.554000
      8 OAO         2.4290   -1.2970    0.3770 os        1 TXC     -0.436900
      9 CAI         2.0440   -2.4850   -0.3340 c3        1 TXC      0.133400
     10 CAH         0.5350   -2.3950   -0.5210 c3        1 TXC      0.117400
     11 OAN         0.3220   -1.9220   -1.8520 os        1 TXC     -0.426600
     12 CAJ        -1.0330   -1.6310   -2.1630 c3        1 TXC      0.242100
     13 N9         -1.4830   -0.3650   -1.6510 na        1 TXC     -0.236900
     14 C8         -1.1220    0.9220   -2.1310 cc        1 TXC      0.410400
     15 N7         -1.6330    1.9250   -1.3980 nd        1 TXC     -0.586000
     16 C5         -2.3420    1.2950   -0.3700 cd        1 TXC      0.178800
     17 C4         -2.2460   -0.1360   -0.4980 cc        1 TXC      0.110800
     18 N3         -2.8260   -1.0560    0.3560 nc        1 TXC     -0.684100
     19 C2         -3.5680   -0.5050    1.3490 cd        1 TXC      0.686800
     20 N2         -4.3010   -1.3690    2.1930 nh        1 TXC     -0.894800
     21 N1         -3.7020    0.8790    1.5700 n         1 TXC     -0.509400
     22 C6         -3.1140    1.8560    0.7180 c         1 TXC      0.651000
     23 O6         -3.3140    3.0480    0.9920 o         1 TXC     -0.595500
     24 HG21        3.1430    3.5690    0.5190 hc        1 TXC      0.041867
     25 HG22        2.9060    2.6050    2.0370 hc        1 TXC      0.041867
     26 HG23        4.5800    3.0170    1.4790 hc        1 TXC      0.041867
     27 HB          2.5320    1.2060    0.0120 hc        1 TXC      0.068700
     28 HG11        4.6040    0.6580   -1.4240 hc        1 TXC      0.041867
     29 HG12        3.8940    2.3130   -1.6450 hc        1 TXC      0.041867
     30 HG13        5.4120    2.1070   -0.6870 hc        1 TXC      0.041867
     31 HA          3.4470    0.2580    2.1280 h1        1 TXC      0.089700
     32 HN1         5.7470   -0.4540    2.0650 hn        1 TXC      0.363800
     33 HN2         6.0550    0.5420    0.8090 hn        1 TXC      0.363800
     34 HAI1        2.5820   -2.5310   -1.3170 h1        1 TXC      0.069200
     35 HAI2        2.3170   -3.3710    0.2940 h1        1 TXC      0.069200
     36 HAH1        0.0740   -3.4140   -0.4210 h1        1 TXC      0.055700
     37 HAH2        0.0780   -1.6950    0.2260 h1        1 TXC      0.055700
     38 HAJ1       -1.0330   -1.5810   -3.2930 h2        1 TXC      0.084700
     39 HAJ2       -1.7140   -2.4430   -1.7820 h2        1 TXC      0.084700
     40 H8         -0.4930    1.0360   -3.0210 h5        1 TXC      0.071100
     41 H21N       -4.0950   -2.3380    2.0830 hn        1 TXC      0.422300
     42 H22N       -4.3960   -1.0740    3.1380 hn        1 TXC      0.422300
     43 H1         -4.2950    1.2140    2.2980 hn        1 TXC      0.335500
@<TRIPOS>BOND
     1    1    2 1   
     2    1   24 1   
     3    1   25 1   
     4    1   26 1   
     5    2    3 1   
     6    2    4 1   
     7    2   27 1   
     8    3   28 1   
     9    3   29 1   
    10    3   30 1   
    11    4    5 1   
    12    4    6 1   
    13    4   31 1   
    14    5   32 1   
    15    5   33 1   
    16    6    7 2   
    17    6    8 1   
    18    8    9 1   
    19    9   10 1   
    20    9   34 1   
    21    9   35 1   
    22   10   11 1   
    23   10   36 1   
    24   10   37 1   
    25   11   12 1   
    26   12   13 1   
    27   12   38 1   
    28   12   39 1   
    29   13   14 1   
    30   13   17 1   
    31   14   15 2   
    32   14   40 1   
    33   15   16 1   
    34   16   17 2   
    35   16   22 1   
    36   17   18 1   
    37   18   19 2   
    38   19   20 1   
    39   19   21 1   
    40   20   41 1   
    41   20   42 1   
    42   21   22 1   
    43   21   43 1   
    44   22   23 2   
@<TRIPOS>SUBSTRUCTURE
     1 TXC         1 TEMP              0 ****  ****    0 ROOT
