@<TRIPOS>MOLECULE
TXC
   45    46     1     0     0
SMALL
bcc


@<TRIPOS>ATOM
      1 CG2         0.4360    0.8450   -0.5000 c3        1 TXC     -0.125100
      2 CB          1.8700    0.6950   -0.0450 c3        1 TXC     -0.081700
      3 CG1         2.6280    1.9970   -0.1720 c3        1 TXC     -0.125100
      4 CA          1.9330    0.1230    1.3870 c3        1 TXC      0.065500
      5 N           1.4640    1.1170    2.4100 nz        1 TXC     -0.834600
      6 C           3.3590   -0.3060    1.7170 c         1 TXC      0.615100
      7 O           4.1160    0.2650    2.5020 o         1 TXC     -0.507000
      8 OAO         3.7410   -1.4240    1.0570 os        1 TXC     -0.409900
      9 CAI         5.0980   -1.8730    1.3120 c3        1 TXC      0.133400
     10 CAH         5.3060   -3.1070    0.4460 c3        1 TXC      0.111400
     11 OAN         5.8060   -2.6430   -0.8130 os        1 TXC     -0.410600
     12 CAJ         6.6130   -3.5620   -1.5230 c3        1 TXC      0.241100
     13 N9          5.8200   -4.5660   -2.2060 na        1 TXC     -0.206900
     14 C8          4.4820   -4.4550   -2.6290 cc        1 TXC      0.456400
     15 N7          4.0400   -5.5400   -3.3100 nd        1 TXC     -0.567000
     16 C5          5.1280   -6.3970   -3.3560 cd        1 TXC      0.287800
     17 C4          6.2610   -5.8110   -2.6760 cc        1 TXC      0.016800
     18 N3          7.5060   -6.4120   -2.5700 nc        1 TXC     -0.541100
     19 C2          7.5800   -7.6050   -3.1660 cd        1 TXC      0.522800
     20 N2          8.9200   -8.2790   -3.0930 nz        1 TXC     -0.798600
     21 N1          6.5660   -8.2840   -3.8410 ns        1 TXC     -0.499400
     22 C6          5.2530   -7.7100   -3.9750 c         1 TXC      0.645000
     23 O6          4.4130   -8.3710   -4.5770 o         1 TXC     -0.487500
     24 HG21       -0.1350   -0.1050   -0.3600 hc        1 TXC      0.064867
     25 HG22       -0.0890    1.6690    0.0420 hc        1 TXC      0.064867
     26 HG23        0.4210    1.1000   -1.5910 hc        1 TXC      0.064867
     27 HB          2.3740   -0.0860   -0.6900 hc        1 TXC      0.112700
     28 HG11        3.6300    1.9290    0.3200 hc        1 TXC      0.064867
     29 HG12        2.0600    2.8520    0.2700 hc        1 TXC      0.064867
     30 HG13        2.7890    2.2290   -1.2560 hc        1 TXC      0.064867
     31 HA          1.2550   -0.7840    1.4530 hx        1 TXC      0.141700
     32 HN1         2.1510    1.8820    2.4780 hn        1 TXC      0.474800
     33 HN2         0.5570    1.4980    2.1180 hn        1 TXC      0.474800
     34 HAI1        5.8060   -1.0460    1.0440 h1        1 TXC      0.092700
     35 HAI2        5.1830   -2.1270    2.4010 h1        1 TXC      0.092700
     36 HAH1        6.0470   -3.7850    0.9470 h1        1 TXC      0.070700
     37 HAH2        4.3410   -3.6500    0.2670 h1        1 TXC      0.070700
     38 HAJ1        7.3500   -4.0830   -0.8480 h2        1 TXC      0.098700
     39 HAJ2        7.1380   -2.9140   -2.2920 h2        1 TXC      0.098700
     40 H8          3.8860   -3.5570   -2.4090 h5        1 TXC      0.095100
     41 H21N        8.8250   -9.1830   -2.6140 hn        1 TXC      0.486800
     42 H22N        9.5830   -7.6870   -2.5670 hn        1 TXC      0.486800
     43 H1          6.7160   -9.1780   -4.2620 hn        1 TXC      0.356500
     44 HN3         1.3790    0.6710    3.3290 hn        1 TXC      0.474800
     45 H23         9.2830   -8.4230   -4.0440 hn        1 TXC      0.486800
@<TRIPOS>BOND
     1    1    2 1   
     2    1   24 1   
     3    1   25 1   
     4    1   26 1   
     5    2    3 1   
     6    2    4 1   
     7    2   27 1   
     8    3   28 1   
     9    3   29 1   
    10    3   30 1   
    11    4    5 1   
    12    4    6 1   
    13    4   31 1   
    14    5   32 1   
    15    5   33 1   
    16    5   44 1   
    17    6    7 2   
    18    6    8 1   
    19    8    9 1   
    20    9   10 1   
    21    9   34 1   
    22    9   35 1   
    23   10   11 1   
    24   10   36 1   
    25   10   37 1   
    26   11   12 1   
    27   12   13 1   
    28   12   38 1   
    29   12   39 1   
    30   13   14 1   
    31   13   17 1   
    32   14   15 2   
    33   14   40 1   
    34   15   16 1   
    35   16   17 2   
    36   16   22 1   
    37   17   18 1   
    38   18   19 2   
    39   19   20 1   
    40   19   21 1   
    41   20   41 1   
    42   20   42 1   
    43   20   45 1   
    44   21   22 1   
    45   21   43 1   
    46   22   23 2   
@<TRIPOS>SUBSTRUCTURE
     1 TXC         1 TEMP              0 ****  ****    0 ROOT
