@<TRIPOS>MOLECULE
TXF
   63    65     1     0     0
SMALL
bcc


@<TRIPOS>ATOM
      1 O29        -0.2130    0.1920   -0.5940 oh        1 TXF     -0.492100
      2 C26         1.1550    0.1050   -0.5080 ca        1 TXF      0.137100
      3 C25         1.7180    0.3370    0.7590 ca        1 TXF     -0.186500
      4 C24         3.0970    0.2730    0.9070 ca        1 TXF     -0.076000
      5 C27         1.9700   -0.1920   -1.6090 ca        1 TXF     -0.186500
      6 C28         3.3500   -0.2570   -1.4390 ca        1 TXF     -0.076000
      7 C23         3.9280   -0.0260   -0.1840 ca        1 TXF     -0.097800
      8 C11         5.3830   -0.0700   -0.0130 ce        1 TXF     -0.019400
      9 C12         6.1670   -1.0770   -0.4590 cf        1 TXF     -0.023400
     10 C17         5.6430   -2.2810   -1.1140 ca        1 TXF     -0.068800
     11 C22         5.8990   -2.5070   -2.4740 ca        1 TXF     -0.117500
     12 C21         5.4360   -3.6670   -3.0910 ca        1 TXF     -0.127000
     13 C20         4.7210   -4.6140   -2.3570 ca        1 TXF     -0.120000
     14 C19         4.4670   -4.3960   -1.0040 ca        1 TXF     -0.127000
     15 C18         4.9250   -3.2350   -0.3820 ca        1 TXF     -0.117500
     16 C13         7.6570   -1.0410   -0.3290 c3        1 TXF     -0.044200
     17 C14         8.1200   -1.6510    0.9790 c3        1 TXF     -0.116400
     18 C15         9.6360   -1.7450    1.0200 c3        1 TXF      0.127400
     19 O16        10.0210   -1.8020    2.3860 oh        1 TXF     -0.605800
     20 C8          5.9540    1.0930    0.6870 ca        1 TXF     -0.029800
     21 C7          6.2860    2.2540   -0.0270 ca        1 TXF     -0.091000
     22 C6          6.8190    3.3620    0.6270 ca        1 TXF     -0.150500
     23 C9          6.1500    1.0550    2.0740 ca        1 TXF     -0.091000
     24 C10         6.6740    2.1570    2.7470 ca        1 TXF     -0.150500
     25 C5          7.0040    3.3000    2.0140 ca        1 TXF      0.073100
     26 O4          7.4650    4.4700    2.6220 os        1 TXF     -0.380900
     27 C3          8.3340    4.2610    3.7340 c3        1 TXF      0.106400
     28 C2          9.2610    5.4810    3.8000 c3        1 TXF      0.095800
     29 N1          8.5200    6.7870    3.7730 n4        1 TXF     -0.677400
     30 C31         7.8490    7.0600    5.0690 c3        1 TXF      0.082600
     31 C30         9.4310    7.9000    3.4050 c3        1 TXF      0.082600
     32 H29        -0.4720   -0.0220   -1.5030 ho        1 TXF      0.425000
     33 H25         1.0610    0.5620    1.6110 ha        1 TXF      0.147500
     34 H24         3.5460    0.4550    1.8960 ha        1 TXF      0.136500
     35 H27         1.5240   -0.3760   -2.5970 ha        1 TXF      0.147500
     36 H28         3.9950   -0.5070   -2.2970 ha        1 TXF      0.136500
     37 H22         6.4660   -1.7640   -3.0540 ha        1 TXF      0.133500
     38 H21         5.6370   -3.8360   -4.1600 ha        1 TXF      0.138500
     39 H20         4.3580   -5.5300   -2.8460 ha        1 TXF      0.139000
     40 H19         3.9040   -5.1420   -0.4220 ha        1 TXF      0.138500
     41 H18         4.7200   -3.0650    0.6860 ha        1 TXF      0.133500
     42 H131        8.0190    0.0210   -0.3930 hc        1 TXF      0.053200
     43 H132        8.1160   -1.6030   -1.1870 hc        1 TXF      0.053200
     44 H141        7.7640   -1.0240    1.8390 hc        1 TXF      0.053200
     45 H142        7.6780   -2.6730    1.1070 hc        1 TXF      0.053200
     46 H151        9.9890   -2.6520    0.4630 h1        1 TXF      0.044700
     47 H152       10.1070   -0.8330    0.5590 h1        1 TXF      0.044700
     48 H16        10.8470   -2.2970    2.4260 ho        1 TXF      0.404000
     49 H7          6.1230    2.2900   -1.1160 ha        1 TXF      0.155000
     50 H6          7.0770    4.2740    0.0720 ha        1 TXF      0.141000
     51 H9          5.8880    0.1460    2.6390 ha        1 TXF      0.155000
     52 H10         6.8200    2.1210    3.8360 ha        1 TXF      0.141000
     53 H31         8.9640    3.3410    3.6050 h1        1 TXF      0.084700
     54 H32         7.7120    4.1640    4.6630 h1        1 TXF      0.084700
     55 H21A        9.9490    5.4650    2.9050 hx        1 TXF      0.109700
     56 H22A        9.8740    5.4330    4.7420 hx        1 TXF      0.109700
     57 H311        8.6190    7.1570    5.8800 hx        1 TXF      0.105033
     58 H312        7.1500    6.2140    5.3090 hx        1 TXF      0.105033
     59 H313        7.2650    8.0160    4.9900 hx        1 TXF      0.105033
     60 H301        8.8560    8.8650    3.4050 hx        1 TXF      0.105033
     61 H302        9.8510    7.7160    2.3790 hx        1 TXF      0.105033
     62 H303       10.2690    7.9620    4.1490 hx        1 TXF      0.105033
     63 H11         7.7900    6.7020    3.0440 hn        1 TXF      0.473800
@<TRIPOS>BOND
     1    1    2 1   
     2    1   32 1   
     3    2    3 ar  
     4    2    5 ar  
     5    3    4 ar  
     6    3   33 1   
     7    4    7 ar  
     8    4   34 1   
     9    5    6 ar  
    10    5   35 1   
    11    6    7 ar  
    12    6   36 1   
    13    7    8 1   
    14    8    9 2   
    15    8   20 1   
    16    9   10 1   
    17    9   16 1   
    18   10   11 ar  
    19   10   15 ar  
    20   11   12 ar  
    21   11   37 1   
    22   12   13 ar  
    23   12   38 1   
    24   13   14 ar  
    25   13   39 1   
    26   14   15 ar  
    27   14   40 1   
    28   15   41 1   
    29   16   17 1   
    30   16   42 1   
    31   16   43 1   
    32   17   18 1   
    33   17   44 1   
    34   17   45 1   
    35   18   19 1   
    36   18   46 1   
    37   18   47 1   
    38   19   48 1   
    39   20   21 ar  
    40   20   23 ar  
    41   21   22 ar  
    42   21   49 1   
    43   22   25 ar  
    44   22   50 1   
    45   23   24 ar  
    46   23   51 1   
    47   24   25 ar  
    48   24   52 1   
    49   25   26 1   
    50   26   27 1   
    51   27   28 1   
    52   27   53 1   
    53   27   54 1   
    54   28   29 1   
    55   28   55 1   
    56   28   56 1   
    57   29   30 1   
    58   29   31 1   
    59   29   63 1   
    60   30   57 1   
    61   30   58 1   
    62   30   59 1   
    63   31   60 1   
    64   31   61 1   
    65   31   62 1   
@<TRIPOS>SUBSTRUCTURE
     1 TXF         1 TEMP              0 ****  ****    0 ROOT
