@<TRIPOS>MOLECULE
TXF
   62    64     1     0     0
SMALL
bcc


@<TRIPOS>ATOM
      1 O29         3.3210    5.2430    0.6000 oh        1 TXF     -0.498100
      2 C26         2.7700    3.9860    0.4960 ca        1 TXF      0.126100
      3 C25         1.7670    3.6740   -0.4330 ca        1 TXF     -0.188500
      4 C24         1.2560    2.3810   -0.4740 ca        1 TXF     -0.076000
      5 C27         3.2630    3.0090    1.3760 ca        1 TXF     -0.188500
      6 C28         2.7450    1.7210    1.3150 ca        1 TXF     -0.076000
      7 C23         1.7390    1.3920    0.3940 ca        1 TXF     -0.088800
      8 C11         1.1740    0.0380    0.3460 ce        1 TXF      0.010600
      9 C12         1.9310   -1.0790    0.2640 cf        1 TXF     -0.048400
     10 C17         3.3980   -1.0510    0.1800 ca        1 TXF     -0.051800
     11 C22         4.1690   -1.4400    1.2840 ca        1 TXF     -0.119000
     12 C21         5.5600   -1.4510    1.2010 ca        1 TXF     -0.129500
     13 C20         6.1940   -1.0790    0.0150 ca        1 TXF     -0.129000
     14 C19         5.4320   -0.6950   -1.0880 ca        1 TXF     -0.129500
     15 C18         4.0400   -0.6810   -1.0090 ca        1 TXF     -0.119000
     16 C13         1.3490   -2.4550    0.2800 c3        1 TXF     -0.044200
     17 C14         1.4830   -3.1390   -1.0660 c3        1 TXF     -0.080400
     18 C15         1.0340   -4.5870   -0.9680 c3        1 TXF      0.131400
     19 O16         1.0750   -5.1250   -2.2810 oh        1 TXF     -0.601800
     20 C8         -0.2950   -0.0110    0.4070 ca        1 TXF     -0.093800
     21 C7         -0.9630    0.4540    1.5520 ca        1 TXF     -0.083500
     22 C6         -2.3490    0.4310    1.6240 ca        1 TXF     -0.185000
     23 C9         -1.0440   -0.4960   -0.6700 ca        1 TXF     -0.083500
     24 C10        -2.4370   -0.5240   -0.6180 ca        1 TXF     -0.185000
     25 C5         -3.0890   -0.0610    0.5310 ca        1 TXF      0.133100
     26 O4         -4.4570   -0.0570    0.7100 os        1 TXF     -0.324900
     27 C3         -5.2400   -0.4140   -0.4350 c3        1 TXF      0.127400
     28 C2         -6.7030   -0.2130   -0.0120 c3        1 TXF      0.171800
     29 N1         -7.1970    1.1260   -0.2840 n3        1 TXF     -0.745600
     30 C31        -7.6570    1.3020   -1.6410 c3        1 TXF      0.162600
     31 C30        -8.1320    1.6090    0.7040 c3        1 TXF      0.162600
     32 H29         2.8920    5.8110   -0.0560 ho        1 TXF      0.418000
     33 H25         1.3860    4.4440   -1.1180 ha        1 TXF      0.141500
     34 H24         0.4600    2.1300   -1.1930 ha        1 TXF      0.141000
     35 H27         4.0500    3.2740    2.0960 ha        1 TXF      0.141500
     36 H28         3.1340    0.9430    1.9910 ha        1 TXF      0.141000
     37 H22         3.6710   -1.7360    2.2190 ha        1 TXF      0.135000
     38 H21         6.1580   -1.7540    2.0720 ha        1 TXF      0.131000
     39 H20         7.2910   -1.0890   -0.0500 ha        1 TXF      0.131000
     40 H19         5.9280   -0.4020   -2.0250 ha        1 TXF      0.131000
     41 H18         3.4410   -0.3760   -1.8800 ha        1 TXF      0.135000
     42 H131        1.8900   -3.0580    1.0610 hc        1 TXF      0.053700
     43 H132        0.2660   -2.4200    0.5740 hc        1 TXF      0.053700
     44 H141        0.8600   -2.6110   -1.8330 hc        1 TXF      0.058700
     45 H142        2.5470   -3.1000   -1.4180 hc        1 TXF      0.058700
     46 H151        1.7180   -5.1680   -0.2920 h1        1 TXF      0.020700
     47 H152       -0.0120   -4.6510   -0.5640 h1        1 TXF      0.020700
     48 H16         0.8320   -6.0540   -2.2040 ho        1 TXF      0.398000
     49 H7         -0.3790    0.8450    2.4000 ha        1 TXF      0.139000
     50 H6         -2.8790    0.7920    2.5160 ha        1 TXF      0.143500
     51 H9         -0.5270   -0.8640   -1.5700 ha        1 TXF      0.139000
     52 H10        -3.0020   -0.9090   -1.4770 ha        1 TXF      0.143500
     53 H31        -5.0630   -1.4960   -0.6740 h1        1 TXF      0.043700
     54 H32        -4.9510    0.2220   -1.3110 h1        1 TXF      0.043700
     55 H21A       -6.7700   -0.4200    1.0940 h1        1 TXF      0.047200
     56 H22A       -7.3140   -0.9980   -0.5480 h1        1 TXF      0.047200
     57 H311       -6.8480    0.9770   -2.3470 h1        1 TXF      0.031033
     58 H312       -8.5880    0.7150   -1.8740 h1        1 TXF      0.031033
     59 H313       -7.8690    2.3890   -1.8140 h1        1 TXF      0.031033
     60 H301       -9.0820    1.0080    0.7480 h1        1 TXF      0.031033
     61 H302       -7.6440    1.5830    1.7130 h1        1 TXF      0.031033
     62 H303       -8.3960    2.6720    0.4610 h1        1 TXF      0.031033
@<TRIPOS>BOND
     1    1    2 1   
     2    1   32 1   
     3    2    3 ar  
     4    2    5 ar  
     5    3    4 ar  
     6    3   33 1   
     7    4    7 ar  
     8    4   34 1   
     9    5    6 ar  
    10    5   35 1   
    11    6    7 ar  
    12    6   36 1   
    13    7    8 1   
    14    8    9 2   
    15    8   20 1   
    16    9   10 1   
    17    9   16 1   
    18   10   11 ar  
    19   10   15 ar  
    20   11   12 ar  
    21   11   37 1   
    22   12   13 ar  
    23   12   38 1   
    24   13   14 ar  
    25   13   39 1   
    26   14   15 ar  
    27   14   40 1   
    28   15   41 1   
    29   16   17 1   
    30   16   42 1   
    31   16   43 1   
    32   17   18 1   
    33   17   44 1   
    34   17   45 1   
    35   18   19 1   
    36   18   46 1   
    37   18   47 1   
    38   19   48 1   
    39   20   21 ar  
    40   20   23 ar  
    41   21   22 ar  
    42   21   49 1   
    43   22   25 ar  
    44   22   50 1   
    45   23   24 ar  
    46   23   51 1   
    47   24   25 ar  
    48   24   52 1   
    49   25   26 1   
    50   26   27 1   
    51   27   28 1   
    52   27   53 1   
    53   27   54 1   
    54   28   29 1   
    55   28   55 1   
    56   28   56 1   
    57   29   30 1   
    58   29   31 1   
    59   30   57 1   
    60   30   58 1   
    61   30   59 1   
    62   31   60 1   
    63   31   61 1   
    64   31   62 1   
@<TRIPOS>SUBSTRUCTURE
     1 TXF         1 TEMP              0 ****  ****    0 ROOT
