@<TRIPOS>MOLECULE
TXF
   63    65     1     0     0
SMALL
bcc


@<TRIPOS>ATOM
      1 O29        -0.2660    0.0160   -0.6010 oh        1 TXF     -0.492100
      2 C26         1.1040   -0.0260   -0.5080 ca        1 TXF      0.137100
      3 C25         1.6520    0.2030    0.7660 ca        1 TXF     -0.186500
      4 C24         3.0320    0.1820    0.9210 ca        1 TXF     -0.076000
      5 C27         1.9340   -0.2790   -1.6090 ca        1 TXF     -0.186500
      6 C28         3.3140   -0.3020   -1.4320 ca        1 TXF     -0.076000
      7 C23         3.8780   -0.0720   -0.1700 ca        1 TXF     -0.097800
      8 C11         5.3320   -0.0720    0.0050 ce        1 TXF     -0.019400
      9 C12         6.1550   -1.0380   -0.4630 cf        1 TXF     -0.023400
     10 C17         5.6770   -2.2490   -1.1400 ca        1 TXF     -0.068800
     11 C22         5.9910   -2.4680   -2.4880 ca        1 TXF     -0.117500
     12 C21         5.5720   -3.6340   -3.1260 ca        1 TXF     -0.127000
     13 C20         4.8440   -4.5940   -2.4230 ca        1 TXF     -0.120000
     14 C19         4.5310   -4.3830   -1.0800 ca        1 TXF     -0.127000
     15 C18         4.9440   -3.2160   -0.4390 ca        1 TXF     -0.117500
     16 C13         7.6420   -0.9380   -0.3350 c3        1 TXF     -0.044200
     17 C14         8.1390   -1.5230    0.9710 c3        1 TXF     -0.116400
     18 C15         9.6430   -1.3500    1.1000 c3        1 TXF      0.127400
     19 O16        10.0720   -1.5430    2.4350 oh        1 TXF     -0.605800
     20 C8          5.8670    1.0950    0.7310 ca        1 TXF     -0.029800
     21 C7          6.2100    2.2630    0.0350 ca        1 TXF     -0.091000
     22 C6          6.7280    3.3650    0.7100 ca        1 TXF     -0.150500
     23 C9          6.0270    1.0460    2.1230 ca        1 TXF     -0.091000
     24 C10         6.5340    2.1430    2.8160 ca        1 TXF     -0.150500
     25 C5          6.8860    3.2910    2.0990 ca        1 TXF      0.073100
     26 O4          7.3400    4.4490    2.7350 os        1 TXF     -0.380900
     27 C3          8.2510    4.2200    3.8080 c3        1 TXF      0.106400
     28 C2          9.2770    5.3590    3.7750 c3        1 TXF      0.095800
     29 N1          8.6450    6.7200    3.7080 nx        1 TXF     -0.677400
     30 C31         8.0500    7.1090    5.0110 c3        1 TXF      0.082600
     31 C30         9.6300    7.7340    3.2530 c3        1 TXF      0.082600
     32 H29        -0.5130   -0.1860   -1.5160 ho        1 TXF      0.425000
     33 H25         0.9840    0.3940    1.6170 ha        1 TXF      0.147500
     34 H24         3.4690    0.3640    1.9150 ha        1 TXF      0.136500
     35 H27         1.4990   -0.4610   -2.6020 ha        1 TXF      0.147500
     36 H28         3.9710   -0.5160   -2.2900 ha        1 TXF      0.136500
     37 H22         6.5690   -1.7150   -3.0450 ha        1 TXF      0.133500
     38 H21         5.8190   -3.7980   -4.1850 ha        1 TXF      0.138500
     39 H20         4.5160   -5.5160   -2.9270 ha        1 TXF      0.139000
     40 H19         3.9560   -5.1380   -0.5230 ha        1 TXF      0.138500
     41 H18         4.6900   -3.0500    0.6180 ha        1 TXF      0.133500
     42 H131        7.9530    0.1410   -0.4010 hc        1 TXF      0.053200
     43 H132        8.1270   -1.4780   -1.1930 hc        1 TXF      0.053200
     44 H141        7.8750   -2.6110    1.0280 hc        1 TXF      0.053200
     45 H142        7.6340   -1.0100    1.8320 hc        1 TXF      0.053200
     46 H151       10.1820   -2.0530    0.4110 h1        1 TXF      0.044700
     47 H152        9.9490   -0.2960    0.8610 h1        1 TXF      0.044700
     48 H16         9.8700   -2.4560    2.6710 ho        1 TXF      0.404000
     49 H7          6.0710    2.3080   -1.0570 ha        1 TXF      0.155000
     50 H6          6.9950    4.2830    0.1680 ha        1 TXF      0.141000
     51 H9          5.7480    0.1340    2.6740 ha        1 TXF      0.155000
     52 H10         6.6520    2.1030    3.9080 ha        1 TXF      0.141000
     53 H31         7.6670    4.2180    4.7670 h1        1 TXF      0.084700
     54 H32         8.8000    3.2470    3.6980 h1        1 TXF      0.084700
     55 H21A        9.9240    5.3060    4.6940 hx        1 TXF      0.109700
     56 H22A        9.9230    5.2430    2.8570 hx        1 TXF      0.109700
     57 H311        7.5450    8.1070    4.9050 hx        1 TXF      0.104867
     58 H312        8.8550    7.1770    5.7900 hx        1 TXF      0.104867
     59 H313        7.2920    6.3380    5.3160 hx        1 TXF      0.104867
     60 H301       10.4970    7.7620    3.9640 hx        1 TXF      0.104867
     61 H302        9.9940    7.4670    2.2240 hx        1 TXF      0.104867
     62 H303        9.1350    8.7430    3.2240 hx        1 TXF      0.104867
     63 H11         7.8820    6.6620    3.0100 hn        1 TXF      0.473800
@<TRIPOS>BOND
     1    1    2 1   
     2    1   32 1   
     3    2    3 ar  
     4    2    5 ar  
     5    3    4 ar  
     6    3   33 1   
     7    4    7 ar  
     8    4   34 1   
     9    5    6 ar  
    10    5   35 1   
    11    6    7 ar  
    12    6   36 1   
    13    7    8 1   
    14    8    9 2   
    15    8   20 1   
    16    9   10 1   
    17    9   16 1   
    18   10   11 ar  
    19   10   15 ar  
    20   11   12 ar  
    21   11   37 1   
    22   12   13 ar  
    23   12   38 1   
    24   13   14 ar  
    25   13   39 1   
    26   14   15 ar  
    27   14   40 1   
    28   15   41 1   
    29   16   17 1   
    30   16   42 1   
    31   16   43 1   
    32   17   18 1   
    33   17   44 1   
    34   17   45 1   
    35   18   19 1   
    36   18   46 1   
    37   18   47 1   
    38   19   48 1   
    39   20   21 ar  
    40   20   23 ar  
    41   21   22 ar  
    42   21   49 1   
    43   22   25 ar  
    44   22   50 1   
    45   23   24 ar  
    46   23   51 1   
    47   24   25 ar  
    48   24   52 1   
    49   25   26 1   
    50   26   27 1   
    51   27   28 1   
    52   27   53 1   
    53   27   54 1   
    54   28   29 1   
    55   28   55 1   
    56   28   56 1   
    57   29   30 1   
    58   29   31 1   
    59   29   63 1   
    60   30   57 1   
    61   30   58 1   
    62   30   59 1   
    63   31   60 1   
    64   31   61 1   
    65   31   62 1   
@<TRIPOS>SUBSTRUCTURE
     1 TXF         1 TEMP              0 ****  ****    0 ROOT
