@<TRIPOS>MOLECULE
TXF
   62    57     1     0     0
SMALL
bcc


@<TRIPOS>ATOM
      1 O29        -6.3230   -1.4830   -0.4320 oh        1 TXF     -0.252000
      2 C26        -4.9450   -1.4210   -0.4310 c2        1 TXF      0.080000
      3 C25        -4.2260   -1.6580    0.7680 c2        1 TXF     -0.217000
      4 C24        -2.8370   -1.6960    0.7500 c1        1 TXF     -0.074000
      5 C27        -4.2590   -1.2250   -1.6260 c1        1 TXF     -0.160000
      6 C28        -2.8540   -1.2640   -1.6450 c1        1 TXF     -0.079000
      7 C23        -2.1430   -1.4990   -0.4590 c1        1 TXF     -0.076000
      8 C11        -0.6460   -1.3850   -0.4510 c2        1 TXF     -0.016000
      9 C12         0.1320   -2.4830   -0.7700 c1        1 TXF     -0.054000
     10 C17        -0.5330   -3.8130   -1.1320 c1        1 TXF     -0.041000
     11 C22        -0.5640   -4.2310   -2.4470 c2        1 TXF     -0.127000
     12 C21        -1.2070   -5.4170   -2.7840 c1        1 TXF     -0.131000
     13 C20        -1.8100   -6.1710   -1.8110 c1        1 TXF     -0.128500
     14 C19        -1.7780   -5.7490   -0.4840 c1        1 TXF     -0.128500
     15 C18        -1.1410   -4.5730   -0.1490 c1        1 TXF     -0.111000
     16 C13         1.6790   -2.3670   -0.7650 c3        1 TXF     -0.127000
     17 C14         2.2870   -3.7280   -0.4100 c3        1 TXF     -0.159000
     18 C15         3.6720   -3.8140   -0.9570 c3        1 TXF     -0.019000
     19 O16         4.1110   -5.1750   -0.9330 oh        1 TXF     -0.329000
     20 C8          0.0280   -0.0350   -0.0790 c2        1 TXF     -0.080000
     21 C7          0.4350    0.8440   -1.0840 c2        1 TXF     -0.077000
     22 C6          1.0360    2.0490   -0.7490 c1        1 TXF     -0.207000
     23 C9          0.2260    0.2950    1.2480 c1        1 TXF     -0.091000
     24 C10         0.8350    1.5140    1.5860 c1        1 TXF     -0.162000
     25 C5          1.2350    2.3810    0.5960 c1        1 TXF      0.087000
     26 O4          1.9040    3.6130    0.9430 os        1 TXF     -0.219000
     27 C3          1.0250    4.6840    1.2520 c3        1 TXF     -0.023000
     28 C2          1.7840    5.7470    1.9940 c3        1 TXF     -0.072000
     29 N1          1.3160    7.0510    1.5940 n3        1 TXF     -0.269000
     30 C31         0.5940    7.6370    2.6560 c3        1 TXF     -0.117500
     31 C30         2.4660    7.8960    1.2660 c3        1 TXF     -0.117500
     32 H29        -6.6610   -0.6700   -0.2380 ho        1 TXF      0.217000
     33 H25        -4.7090   -1.7960    1.6090 ha        1 TXF      0.133000
     34 H24        -2.3350   -1.8620    1.5870 ha        1 TXF      0.140000
     35 H27        -4.7610   -1.0580   -2.4640 ha        1 TXF      0.150000
     36 H28        -2.3640   -1.1250   -2.4980 ha        1 TXF      0.142000
     37 H22        -0.1430   -3.7030   -3.1280 ha        1 TXF      0.132000
     38 H21        -1.2290   -5.7150   -3.7180 ha        1 TXF      0.131000
     39 H20        -2.2640   -7.0100   -2.0490 ha        1 TXF      0.131500
     40 H19        -2.1920   -6.2680    0.1860 ha        1 TXF      0.131500
     41 H18        -1.1180   -4.2800    0.7750 ha        1 TXF      0.138000
     42 H131        1.9450   -1.7270   -0.1260 hc        1 TXF      0.093000
     43 H132        1.9890   -2.0920   -1.6510 hc        1 TXF      0.093000
     44 H141        1.7350   -4.4480   -0.8020 hc        1 TXF      0.098000
     45 H142        2.3140   -3.8320    0.5950 hc        1 TXF      0.098000
     46 H151        4.2860   -3.2560   -0.3990 h1        1 TXF      0.060000
     47 H152        3.6790   -3.4830   -1.8830 h1        1 TXF      0.060000
     48 H16         4.9890   -5.2090   -1.0930 ho        1 TXF      0.197000
     49 H7          0.3010    0.6240   -1.9770 ha        1 TXF      0.140000
     50 H6          1.3160    2.6550   -1.4410 ha        1 TXF      0.141000
     51 H9         -0.0530   -0.3080    1.9370 ha        1 TXF      0.140000
     52 H10         0.9700    1.7390    2.4980 ha        1 TXF      0.149000
     53 H31         0.3150    4.3670    1.7930 h1        1 TXF      0.086000
     54 H32         0.6700    5.0500    0.4430 h1        1 TXF      0.086000
     55 H21A        2.7170    5.6680    1.7930 h1        1 TXF      0.087500
     56 H22A        1.6470    5.6310    2.9660 h1        1 TXF      0.087500
     57 H311       -0.3470    7.5530    2.4880 h1        1 TXF      0.072000
     58 H312        0.8130    7.1910    3.4750 h1        1 TXF      0.072000
     59 H313        0.8250    8.5670    2.7260 h1        1 TXF      0.072000
     60 H301        2.8930    7.5670    0.4160 h1        1 TXF      0.072000
     61 H302        3.1100    7.8570    1.9850 h1        1 TXF      0.072000
     62 H303        2.1600    8.8460    1.1410 h1        1 TXF      0.072000
@<TRIPOS>BOND
     1    1    2 1   
     2    1   32 1   
     3    2    3 1   
     4    2    5 1   
     5    3    4 1   
     6    3   33 1   
     7    4   34 1   
     8    5   35 1   
     9    6    7 1   
    10    6   36 1   
    11    7    8 1   
    12    8    9 1   
    13    8   20 1   
    14    9   16 1   
    15   10   11 1   
    16   10   15 1   
    17   11   12 1   
    18   11   37 1   
    19   12   38 1   
    20   13   14 1   
    21   13   39 1   
    22   14   40 1   
    23   15   41 1   
    24   16   17 1   
    25   16   42 1   
    26   16   43 1   
    27   17   18 1   
    28   17   44 1   
    29   17   45 1   
    30   18   19 1   
    31   18   46 1   
    32   18   47 1   
    33   19   48 1   
    34   20   21 1   
    35   20   23 1   
    36   21   22 1   
    37   21   49 1   
    38   22   50 1   
    39   23   51 1   
    40   24   25 1   
    41   24   52 1   
    42   25   26 1   
    43   26   27 1   
    44   27   28 1   
    45   27   53 1   
    46   27   54 1   
    47   28   29 1   
    48   28   55 1   
    49   28   56 1   
    50   29   30 1   
    51   29   31 1   
    52   30   57 1   
    53   30   58 1   
    54   30   59 1   
    55   31   60 1   
    56   31   61 1   
    57   31   62 1   
@<TRIPOS>SUBSTRUCTURE
     1 TXF         1 TEMP              0 ****  ****    0 ROOT
