@<TRIPOS>MOLECULE
TXF
   63    65     1     0     0
SMALL
bcc


@<TRIPOS>ATOM
      1 O29        -0.2660   -0.0010   -0.6000 oh        1 TXF     -0.492100
      2 C26         1.1040   -0.0390   -0.5070 ca        1 TXF      0.137100
      3 C25         1.6520    0.1910    0.7670 ca        1 TXF     -0.186500
      4 C24         3.0320    0.1730    0.9220 ca        1 TXF     -0.076000
      5 C27         1.9350   -0.2870   -1.6090 ca        1 TXF     -0.186500
      6 C28         3.3150   -0.3070   -1.4320 ca        1 TXF     -0.076000
      7 C23         3.8790   -0.0780   -0.1690 ca        1 TXF     -0.097800
      8 C11         5.3330   -0.0730    0.0060 ce        1 TXF     -0.019400
      9 C12         6.1580   -1.0360   -0.4640 cf        1 TXF     -0.023400
     10 C17         5.6840   -2.2480   -1.1420 ca        1 TXF     -0.068800
     11 C22         5.9990   -2.4640   -2.4910 ca        1 TXF     -0.117500
     12 C21         5.5830   -3.6300   -3.1300 ca        1 TXF     -0.127000
     13 C20         4.8570   -4.5930   -2.4290 ca        1 TXF     -0.120000
     14 C19         4.5440   -4.3850   -1.0860 ca        1 TXF     -0.127000
     15 C18         4.9530   -3.2170   -0.4430 ca        1 TXF     -0.117500
     16 C13         7.6450   -0.9320   -0.3360 c3        1 TXF     -0.044200
     17 C14         8.1440   -1.5170    0.9700 c3        1 TXF     -0.116400
     18 C15         9.6470   -1.3390    1.0990 c3        1 TXF      0.127400
     19 O16        10.0770   -1.5310    2.4340 oh        1 TXF     -0.605800
     20 C8          5.8650    1.0940    0.7330 ca        1 TXF     -0.029800
     21 C7          6.2050    2.2630    0.0390 ca        1 TXF     -0.091000
     22 C6          6.7200    3.3670    0.7150 ca        1 TXF     -0.150000
     23 C9          6.0230    1.0440    2.1250 ca        1 TXF     -0.091000
     24 C10         6.5280    2.1410    2.8200 ca        1 TXF     -0.150000
     25 C5          6.8770    3.2910    2.1050 ca        1 TXF      0.073100
     26 O4          7.3280    4.4490    2.7420 os        1 TXF     -0.380900
     27 C3          8.2410    4.2220    3.8140 c3        1 TXF      0.106400
     28 C2          9.2680    5.3590    3.7760 c3        1 TXF      0.095800
     29 N1          8.6380    6.7200    3.7070 n4        1 TXF     -0.677400
     30 C31         8.0440    7.1130    5.0100 c3        1 TXF      0.082600
     31 C30         9.6240    7.7330    3.2490 c3        1 TXF      0.082600
     32 H29        -0.5120   -0.2020   -1.5150 ho        1 TXF      0.425000
     33 H25         0.9830    0.3790    1.6180 ha        1 TXF      0.147500
     34 H24         3.4680    0.3550    1.9170 ha        1 TXF      0.136500
     35 H27         1.5010   -0.4700   -2.6020 ha        1 TXF      0.147500
     36 H28         3.9740   -0.5170   -2.2900 ha        1 TXF      0.136500
     37 H22         6.5740   -1.7080   -3.0460 ha        1 TXF      0.133500
     38 H21         5.8310   -3.7920   -4.1900 ha        1 TXF      0.138500
     39 H20         4.5330   -5.5150   -2.9340 ha        1 TXF      0.139000
     40 H19         3.9710   -5.1420   -0.5300 ha        1 TXF      0.138500
     41 H18         4.6990   -3.0540    0.6150 ha        1 TXF      0.133500
     42 H131        7.9530    0.1470   -0.4010 hc        1 TXF      0.053200
     43 H132        8.1320   -1.4700   -1.1940 hc        1 TXF      0.053200
     44 H141        7.8830   -2.6050    1.0270 hc        1 TXF      0.053200
     45 H142        7.6370   -1.0050    1.8320 hc        1 TXF      0.053200
     46 H151       10.1880   -2.0410    0.4100 h1        1 TXF      0.044700
     47 H152        9.9500   -0.2840    0.8600 h1        1 TXF      0.044700
     48 H16         9.8770   -2.4450    2.6710 ho        1 TXF      0.404000
     49 H7          6.0670    2.3100   -1.0530 ha        1 TXF      0.155000
     50 H6          6.9850    4.2860    0.1750 ha        1 TXF      0.141000
     51 H9          5.7470    0.1310    2.6760 ha        1 TXF      0.155000
     52 H10         6.6460    2.1000    3.9120 ha        1 TXF      0.141000
     53 H31         7.6600    4.2220    4.7740 h1        1 TXF      0.084700
     54 H32         8.7890    3.2470    3.7050 h1        1 TXF      0.084700
     55 H21A        9.9170    5.3080    4.6950 hx        1 TXF      0.109700
     56 H22A        9.9130    5.2400    2.8580 hx        1 TXF      0.109700
     57 H311        7.5410    8.1120    4.9030 hx        1 TXF      0.104867
     58 H312        8.8500    7.1810    5.7880 hx        1 TXF      0.104867
     59 H313        7.2850    6.3440    5.3170 hx        1 TXF      0.104867
     60 H301       10.4920    7.7610    3.9600 hx        1 TXF      0.104867
     61 H302        9.9870    7.4630    2.2210 hx        1 TXF      0.104867
     62 H303        9.1310    8.7420    3.2190 hx        1 TXF      0.104867
     63 H11         7.8750    6.6620    3.0100 hn        1 TXF      0.473800
@<TRIPOS>BOND
     1    1    2 1   
     2    1   32 1   
     3    2    3 ar  
     4    2    5 ar  
     5    3    4 ar  
     6    3   33 1   
     7    4    7 ar  
     8    4   34 1   
     9    5    6 ar  
    10    5   35 1   
    11    6    7 ar  
    12    6   36 1   
    13    7    8 1   
    14    8    9 2   
    15    8   20 1   
    16    9   10 1   
    17    9   16 1   
    18   10   11 ar  
    19   10   15 ar  
    20   11   12 ar  
    21   11   37 1   
    22   12   13 ar  
    23   12   38 1   
    24   13   14 ar  
    25   13   39 1   
    26   14   15 ar  
    27   14   40 1   
    28   15   41 1   
    29   16   17 1   
    30   16   42 1   
    31   16   43 1   
    32   17   18 1   
    33   17   44 1   
    34   17   45 1   
    35   18   19 1   
    36   18   46 1   
    37   18   47 1   
    38   19   48 1   
    39   20   21 ar  
    40   20   23 ar  
    41   21   22 ar  
    42   21   49 1   
    43   22   25 ar  
    44   22   50 1   
    45   23   24 ar  
    46   23   51 1   
    47   24   25 ar  
    48   24   52 1   
    49   25   26 1   
    50   26   27 1   
    51   27   28 1   
    52   27   53 1   
    53   27   54 1   
    54   28   29 1   
    55   28   55 1   
    56   28   56 1   
    57   29   30 1   
    58   29   31 1   
    59   29   63 1   
    60   30   57 1   
    61   30   58 1   
    62   30   59 1   
    63   31   60 1   
    64   31   61 1   
    65   31   62 1   
@<TRIPOS>SUBSTRUCTURE
     1 TXF         1 TEMP              0 ****  ****    0 ROOT
