@<TRIPOS>MOLECULE
TXI
   34    33     1     0     0
SMALL
bcc


@<TRIPOS>ATOM
      1 N1          0.1360    0.1190    1.3140 n         1 TXI     -0.567900
      2 O1         -4.0010   -0.5620    1.3130 o         1 TXI     -0.506100
      3 C1         -4.4860    0.9070   -0.5050 c3        1 TXI     -0.083000
      4 O2          0.8980   -1.3850   -0.2280 o         1 TXI     -0.600100
      5 C2          3.8280   -1.6070   -0.5320 c3        1 TXI     -0.095600
      6 C3         -3.5610    0.2230    0.4700 c         1 TXI      0.567100
      7 O3          2.4960    1.5160    1.0780 oh        1 TXI     -0.600800
      8 C4         -2.1160    0.6040    0.3600 c3        1 TXI     -0.211400
      9 O4          5.7050    0.4140   -1.2290 oh        1 TXI     -0.597800
     10 C5          2.9140    0.3570   -1.7580 c3        1 TXI     -0.095600
     11 C6         -1.2330   -0.2960    1.2310 c3        1 TXI      0.097000
     12 C7          2.5530    0.1400    0.7380 c3        1 TXI      0.074100
     13 C8          1.1350   -0.4300    0.5350 c         1 TXI      0.629100
     14 C9          3.5060   -0.1230   -0.4450 c3        1 TXI     -0.061000
     15 C10         4.8080    0.6480   -0.1550 c3        1 TXI      0.133400
     16 CL1        -4.2390    0.3230   -2.1330 cl        1 TXI     -0.150400
     17 H1          0.3440    0.9330    1.8450 hn        1 TXI      0.319500
     18 H2         -5.5540    0.7060   -0.2400 h1        1 TXI      0.088200
     19 H3         -4.2950    2.0070   -0.5120 h1        1 TXI      0.088200
     20 H4          4.6050   -1.7690   -1.3190 hc        1 TXI      0.050533
     21 H5          4.2250   -1.9770    0.4430 hc        1 TXI      0.050533
     22 H6          2.9140   -2.1920   -0.7980 hc        1 TXI      0.050533
     23 H7          2.3020    2.0090    0.2700 ho        1 TXI      0.409000
     24 H8         -1.7970    0.5290   -0.7150 hc        1 TXI      0.077700
     25 H9         -2.0180    1.6790    0.6700 hc        1 TXI      0.077700
     26 H10         6.5300    0.8530   -0.9920 ho        1 TXI      0.402000
     27 H11         1.9900   -0.2220   -2.0010 hc        1 TXI      0.050533
     28 H12         2.6630    1.4440   -1.7080 hc        1 TXI      0.050533
     29 H13         3.6610    0.2080   -2.5760 hc        1 TXI      0.050533
     30 H14        -1.2740   -1.3450    0.8170 h1        1 TXI      0.076700
     31 H15        -1.6620   -0.3140    2.2750 h1        1 TXI      0.076700
     32 H16         2.9730   -0.3530    1.6650 h1        1 TXI      0.097700
     33 H17         5.2550    0.2860    0.8090 h1        1 TXI      0.027200
     34 H18         4.5970    1.7480   -0.0730 h1        1 TXI      0.027200
@<TRIPOS>BOND
     1    1   11 1   
     2    1   13 1   
     3    1   17 1   
     4    2    6 2   
     5    3    6 1   
     6    3   16 1   
     7    3   18 1   
     8    3   19 1   
     9    4   13 2   
    10    5   14 1   
    11    5   20 1   
    12    5   21 1   
    13    5   22 1   
    14    6    8 1   
    15    7   12 1   
    16    7   23 1   
    17    8   11 1   
    18    8   24 1   
    19    8   25 1   
    20    9   15 1   
    21    9   26 1   
    22   10   14 1   
    23   10   27 1   
    24   10   28 1   
    25   10   29 1   
    26   11   30 1   
    27   11   31 1   
    28   12   13 1   
    29   12   14 1   
    30   12   32 1   
    31   14   15 1   
    32   15   33 1   
    33   15   34 1   
@<TRIPOS>SUBSTRUCTURE
     1 TXI         1 TEMP              0 ****  ****    0 ROOT
