@<TRIPOS>MOLECULE
TXI
   35    34     1     0     0
SMALL
bcc


@<TRIPOS>ATOM
      1 N1         -0.0810    0.0590   -0.1850 n4        1 TXI     -0.667800
      2 O1          4.0870    0.0000   -0.1380 o         1 TXI     -0.489100
      3 C1          4.4180   -0.0500   -2.5040 c3        1 TXI     -0.086000
      4 O2         -0.1910   -0.7990    1.9920 o         1 TXI     -0.390100
      5 C2         -2.0650    1.3900    3.2250 c3        1 TXI     -0.109100
      6 C3          3.5800    0.0130   -1.2610 c         1 TXI      0.570100
      7 O3         -2.7490    0.0450   -0.2410 oh        1 TXI     -0.630800
      8 C4          2.0820    0.0690   -1.4480 c3        1 TXI     -0.220400
      9 O4         -4.2430    2.9620    2.4360 oh        1 TXI     -0.587800
     10 C5         -1.7960    2.5490    1.0320 c3        1 TXI     -0.109100
     11 C6          1.3810   -0.2120   -0.1260 c3        1 TXI      0.104800
     12 C7         -2.3080    0.0770    1.1070 c3        1 TXI      0.086100
     13 C8         -0.8220   -0.2780    1.0900 c         1 TXI      0.549100
     14 C9         -2.5290    1.4500    1.7790 c3        1 TXI     -0.081000
     15 C10        -4.0440    1.7410    1.7510 c3        1 TXI      0.138400
     16 CL1         3.7300    0.8000   -3.8610 cl        1 TXI     -0.137400
     17 H1         -0.2530    1.0540   -0.3910 hn        1 TXI      0.469300
     18 H2          5.4280    0.3940   -2.3060 h1        1 TXI      0.117200
     19 H3          4.5440   -1.1230   -2.8050 h1        1 TXI      0.117200
     20 H4         -2.2860    2.3690    3.7210 hc        1 TXI      0.060533
     21 H5         -0.9680    1.1960    3.2870 hc        1 TXI      0.060533
     22 H6         -2.6070    0.5860    3.7800 hc        1 TXI      0.060533
     23 H7         -3.7160    0.0840   -0.2350 ho        1 TXI      0.464000
     24 H8          1.7820   -0.6810   -2.2280 hc        1 TXI      0.097700
     25 H9          1.8280    1.0930   -1.8370 hc        1 TXI      0.097700
     26 H10        -5.1980    3.0890    2.5130 ho        1 TXI      0.428000
     27 H11        -1.9970    2.4810   -0.0650 hc        1 TXI      0.060533
     28 H12        -2.1600    3.5460    1.3940 hc        1 TXI      0.060533
     29 H13        -0.6970    2.4970    1.2220 hc        1 TXI      0.060533
     30 H14         1.5280   -1.2920    0.1720 hx        1 TXI      0.127700
     31 H15         1.8270    0.4270    0.6950 hx        1 TXI      0.127700
     32 H16        -2.8220   -0.7310    1.7100 h1        1 TXI      0.114700
     33 H17        -4.3970    1.8450    0.6890 h1        1 TXI      0.032700
     34 H18        -4.6020    0.9080    2.2560 h1        1 TXI      0.032700
     35 H121       -0.5140   -0.4870   -0.9440 hn        1 TXI      0.469300
@<TRIPOS>BOND
     1    1   11 1   
     2    1   13 1   
     3    1   17 1   
     4    1   35 1   
     5    2    6 2   
     6    3    6 1   
     7    3   16 1   
     8    3   18 1   
     9    3   19 1   
    10    4   13 2   
    11    5   14 1   
    12    5   20 1   
    13    5   21 1   
    14    5   22 1   
    15    6    8 1   
    16    7   12 1   
    17    7   23 1   
    18    8   11 1   
    19    8   24 1   
    20    8   25 1   
    21    9   15 1   
    22    9   26 1   
    23   10   14 1   
    24   10   27 1   
    25   10   28 1   
    26   10   29 1   
    27   11   30 1   
    28   11   31 1   
    29   12   13 1   
    30   12   14 1   
    31   12   32 1   
    32   14   15 1   
    33   15   33 1   
    34   15   34 1   
@<TRIPOS>SUBSTRUCTURE
     1 TXI         1 TEMP              0 ****  ****    0 ROOT
