@<TRIPOS>MOLECULE
TXI
   35    34     1     0     0
SMALL
bcc


@<TRIPOS>ATOM
      1 N1         -0.0770    0.0540   -0.1840 ny        1 TXI     -0.667800
      2 O1          4.0900    0.0560   -0.1290 o         1 TXI     -0.489100
      3 C1          4.4270   -0.0200   -2.4930 c3        1 TXI     -0.086000
      4 O2         -0.1820   -0.7940    1.9970 o         1 TXI     -0.390100
      5 C2         -2.0700    1.3890    3.2200 c3        1 TXI     -0.109100
      6 C3          3.5860    0.0470   -1.2530 c         1 TXI      0.570100
      7 O3         -2.7450    0.0240   -0.2400 oh        1 TXI     -0.630800
      8 C4          2.0880    0.0780   -1.4430 c3        1 TXI     -0.220400
      9 O4         -4.2580    2.9430    2.4250 oh        1 TXI     -0.587800
     10 C5         -1.8090    2.5390    1.0210 c3        1 TXI     -0.109100
     11 C6          1.3880   -0.1990   -0.1190 c3        1 TXI      0.104800
     12 C7         -2.3050    0.0640    1.1080 c3        1 TXI      0.086100
     13 C8         -0.8170   -0.2810    1.0930 c         1 TXI      0.549100
     14 C9         -2.5350    1.4390    1.7740 c3        1 TXI     -0.081000
     15 C10        -4.0510    1.7200    1.7450 c3        1 TXI      0.138400
     16 Cl1         3.7300    0.8040   -3.8610 cl        1 TXI     -0.137400
     17 H1         -0.5030   -0.5030   -0.9390 hn        1 TXI      0.469300
     18 H2          5.4310    0.4410   -2.2990 h1        1 TXI      0.117200
     19 H3          4.5690   -1.0940   -2.7810 h1        1 TXI      0.117200
     20 H4         -0.9710    1.2020    3.2820 hc        1 TXI      0.060533
     21 H5         -2.2970    2.3690    3.7110 hc        1 TXI      0.060533
     22 H6         -2.6050    0.5830    3.7780 hc        1 TXI      0.060533
     23 H7         -3.7120    0.0570   -0.2350 ho        1 TXI      0.464000
     24 H8          1.8010   -0.6840   -2.2150 hc        1 TXI      0.097700
     25 H9          1.8190    1.0940   -1.8440 hc        1 TXI      0.097700
     26 H10        -5.2140    3.0640    2.5010 ho        1 TXI      0.428000
     27 H11        -2.1790    3.5350    1.3790 hc        1 TXI      0.060533
     28 H12        -2.0100    2.4650   -0.0760 hc        1 TXI      0.060533
     29 H13        -0.7090    2.4950    1.2100 hc        1 TXI      0.060533
     30 H14         1.5470   -1.2730    0.1890 hx        1 TXI      0.127700
     31 H15         1.8240    0.4540    0.6960 hx        1 TXI      0.127700
     32 H16        -2.8140   -0.7440    1.7140 h1        1 TXI      0.114700
     33 H17        -4.4060    1.8170    0.6820 h1        1 TXI      0.032700
     34 H18        -4.6040    0.8860    2.2550 h1        1 TXI      0.032700
     35 H121       -0.2600    1.0450   -0.3970 hn        1 TXI      0.469300
@<TRIPOS>BOND
     1    1   11 1   
     2    1   13 1   
     3    1   17 1   
     4    1   35 1   
     5    2    6 2   
     6    3    6 1   
     7    3   16 1   
     8    3   18 1   
     9    3   19 1   
    10    4   13 2   
    11    5   14 1   
    12    5   20 1   
    13    5   21 1   
    14    5   22 1   
    15    6    8 1   
    16    7   12 1   
    17    7   23 1   
    18    8   11 1   
    19    8   24 1   
    20    8   25 1   
    21    9   15 1   
    22    9   26 1   
    23   10   14 1   
    24   10   27 1   
    25   10   28 1   
    26   10   29 1   
    27   11   30 1   
    28   11   31 1   
    29   12   13 1   
    30   12   14 1   
    31   12   32 1   
    32   14   15 1   
    33   15   33 1   
    34   15   34 1   
@<TRIPOS>SUBSTRUCTURE
     1 TXI         1 TEMP              0 ****  ****    0 ROOT
