@<TRIPOS>MOLECULE
TXI
   35    34     1     0     0
SMALL
bcc


@<TRIPOS>ATOM
      1 N1         -0.0830    0.0460   -0.1810 n4        1 TXI     -0.667800
      2 O1          4.0850    0.0280   -0.1130 o         1 TXI     -0.489100
      3 C1          4.4280   -0.0690   -2.4750 c3        1 TXI     -0.086000
      4 O2         -0.2010   -0.7940    2.0030 o         1 TXI     -0.390100
      5 C2         -2.0710    1.4110    3.2130 c3        1 TXI     -0.109100
      6 C3          3.5840    0.0120   -1.2380 c         1 TXI      0.570100
      7 O3         -2.7500    0.0400   -0.2440 oh        1 TXI     -0.630800
      8 C4          2.0860    0.0490   -1.4340 c3        1 TXI     -0.220400
      9 O4         -4.2430    2.9820    2.4070 oh        1 TXI     -0.587800
     10 C5         -1.7950    2.5510    1.0100 c3        1 TXI     -0.109100
     11 C6          1.3810   -0.2150   -0.1110 c3        1 TXI      0.104800
     12 C7         -2.3130    0.0810    1.1050 c3        1 TXI      0.086100
     13 C8         -0.8280   -0.2780    1.0950 c         1 TXI      0.549100
     14 C9         -2.5320    1.4610    1.7650 c3        1 TXI     -0.081000
     15 C10        -4.0460    1.7540    1.7320 c3        1 TXI      0.138400
     16 CL1         3.7410    0.7500   -3.8520 cl        1 TXI     -0.137400
     17 H1         -0.2590    1.0380   -0.4000 hn        1 TXI      0.469300
     18 H2          4.5650   -1.1450   -2.7550 h1        1 TXI      0.117200
     19 H3          5.4340    0.3880   -2.2810 h1        1 TXI      0.117200
     20 H4         -2.6140    0.6120    3.7720 hc        1 TXI      0.060533
     21 H5         -2.2910    2.3940    3.7000 hc        1 TXI      0.060533
     22 H6         -0.9740    1.2150    3.2780 hc        1 TXI      0.060533
     23 H7         -3.7170    0.0830   -0.2410 ho        1 TXI      0.464000
     24 H8          1.7980   -0.7170   -2.2020 hc        1 TXI      0.097700
     25 H9          1.8240    1.0640   -1.8430 hc        1 TXI      0.097700
     26 H10        -5.1980    3.1120    2.4810 ho        1 TXI      0.428000
     27 H11        -2.1570    3.5520    1.3640 hc        1 TXI      0.060533
     28 H12        -1.9950    2.4750   -0.0860 hc        1 TXI      0.060533
     29 H13        -0.6960    2.4980    1.2030 hc        1 TXI      0.060533
     30 H14         1.8190    0.4390    0.7020 hx        1 TXI      0.127700
     31 H15         1.5320   -1.2890    0.2040 hx        1 TXI      0.127700
     32 H16        -2.8310   -0.7200    1.7130 h1        1 TXI      0.114700
     33 H17        -4.6070    0.9270    2.2440 h1        1 TXI      0.032700
     34 H18        -4.3980    1.8510    0.6690 h1        1 TXI      0.032700
     35 H121       -0.5090   -0.5110   -0.9350 hn        1 TXI      0.469300
@<TRIPOS>BOND
     1    1   11 1   
     2    1   13 1   
     3    1   17 1   
     4    1   35 1   
     5    2    6 2   
     6    3    6 1   
     7    3   16 1   
     8    3   18 1   
     9    3   19 1   
    10    4   13 2   
    11    5   14 1   
    12    5   20 1   
    13    5   21 1   
    14    5   22 1   
    15    6    8 1   
    16    7   12 1   
    17    7   23 1   
    18    8   11 1   
    19    8   24 1   
    20    8   25 1   
    21    9   15 1   
    22    9   26 1   
    23   10   14 1   
    24   10   27 1   
    25   10   28 1   
    26   10   29 1   
    27   11   30 1   
    28   11   31 1   
    29   12   13 1   
    30   12   14 1   
    31   12   32 1   
    32   14   15 1   
    33   15   33 1   
    34   15   34 1   
@<TRIPOS>SUBSTRUCTURE
     1 TXI         1 TEMP              0 ****  ****    0 ROOT
