@<TRIPOS>MOLECULE
TXQ
   28    30     1     0     0
SMALL
bcc


@<TRIPOS>ATOM
      1 O18         0.7430   -2.8240    0.4340 o         1 TXQ     -0.565100
      2 C9          0.5030   -1.6300    0.1770 c         1 TXQ      0.603300
      3 C8          1.5800   -0.6480   -0.0300 ca        1 TXQ     -0.194600
      4 C13         2.9020   -1.0610   -0.2220 ca        1 TXQ      0.170100
      5 O17         3.3560   -2.3500   -0.2360 oh        1 TXQ     -0.500100
      6 C12         3.9380   -0.1090   -0.4460 ca        1 TXQ     -0.109000
      7 C11         3.6470    1.2280   -0.4490 ca        1 TXQ     -0.116000
      8 C14         2.3100    1.6670   -0.2270 ca        1 TXQ      0.175100
      9 O16         2.1950    3.0280   -0.2480 oh        1 TXQ     -0.499100
     10 C7          1.2760    0.7440   -0.0310 ca        1 TXQ     -0.196600
     11 C10        -0.1080    1.1940    0.1780 c         1 TXQ      0.620300
     12 O19        -0.3650    2.3870    0.4440 o         1 TXQ     -0.604100
     13 C2         -0.8910   -1.1670    0.0450 ca        1 TXQ     -0.136600
     14 C1         -1.1960    0.2100    0.0490 ca        1 TXQ     -0.172600
     15 C3         -1.9000   -2.1210   -0.0760 ca        1 TXQ     -0.075000
     16 C4         -3.2350   -1.7390   -0.2080 ca        1 TXQ     -0.128000
     17 C5         -3.5590   -0.3830   -0.2030 ca        1 TXQ      0.124100
     18 O20        -4.8810   -0.0480   -0.3360 oh        1 TXQ     -0.486100
     19 C6         -2.5380    0.6000   -0.0620 ca        1 TXQ      0.114100
     20 O15        -3.0110    1.8860   -0.0830 oh        1 TXQ     -0.524100
     21 HO17        2.6390   -2.9750   -0.0420 ho        1 TXQ      0.462000
     22 H12         4.9630   -0.4800   -0.6080 ha        1 TXQ      0.165000
     23 H11         4.4260    1.9900   -0.6130 ha        1 TXQ      0.165000
     24 HO16        1.2860    3.3070   -0.0560 ho        1 TXQ      0.460000
     25 H3         -1.6330   -3.1920   -0.0620 ha        1 TXQ      0.166000
     26 H4         -4.0340   -2.4890   -0.3110 ha        1 TXQ      0.165000
     27 HO20       -4.9630    0.9190   -0.2830 ho        1 TXQ      0.446000
     28 HO15       -2.3240    2.5050    0.2140 ho        1 TXQ      0.471000
@<TRIPOS>BOND
     1    1    2 2   
     2    2    3 1   
     3    2   13 1   
     4    3    4 ar  
     5    3   10 ar  
     6    4    5 1   
     7    4    6 ar  
     8    5   21 1   
     9    6    7 ar  
    10    6   22 1   
    11    7    8 ar  
    12    7   23 1   
    13    8    9 1   
    14    8   10 ar  
    15    9   24 1   
    16   10   11 1   
    17   11   12 2   
    18   11   14 1   
    19   13   14 ar  
    20   13   15 ar  
    21   14   19 ar  
    22   15   16 ar  
    23   15   25 1   
    24   16   17 ar  
    25   16   26 1   
    26   17   18 1   
    27   17   19 ar  
    28   18   27 1   
    29   19   20 1   
    30   20   28 1   
@<TRIPOS>SUBSTRUCTURE
     1 TXQ         1 TEMP              0 ****  ****    0 ROOT
