@<TRIPOS>MOLECULE
TXQ
   28    30     1     0     0
SMALL
bcc


@<TRIPOS>ATOM
      1 O18        -0.0360    0.4610   -0.0090 o         1 TXQ     -0.493100
      2 C9          1.1810    0.2520    0.0080 c         1 TXQ      0.593300
      3 C8          1.9520    0.0670    1.2570 ca        1 TXQ     -0.131600
      4 C13         1.3270   -0.3960    2.4290 ca        1 TXQ      0.135100
      5 O17        -0.0120   -0.6910    2.3570 oh        1 TXQ     -0.467100
      6 C12         2.0630   -0.5710    3.6160 ca        1 TXQ     -0.167000
      7 C11         3.4190   -0.2940    3.6330 ca        1 TXQ     -0.162000
      8 C14         4.0560    0.1630    2.4640 ca        1 TXQ      0.132100
      9 O16         5.4050    0.4180    2.4260 oh        1 TXQ     -0.465100
     10 C7          3.3290    0.3510    1.2760 ca        1 TXQ     -0.124600
     11 C10         3.9920    0.8560    0.0490 c         1 TXQ      0.597300
     12 O19         4.9710    1.6040    0.0830 o         1 TXQ     -0.465100
     13 C2          1.9740    0.1530   -1.2400 ca        1 TXQ     -0.131600
     14 C1          3.3570    0.4180   -1.2140 ca        1 TXQ     -0.138600
     15 C3          1.3370   -0.2030   -2.4280 ca        1 TXQ     -0.086000
     16 C4          2.0660   -0.3300   -3.6110 ca        1 TXQ     -0.165000
     17 C5          3.4390   -0.0940   -3.5960 ca        1 TXQ      0.051100
     18 O20         4.2450   -0.2060   -4.7080 oh        1 TXQ     -0.512100
     19 C6          4.0990    0.2860   -2.3980 ca        1 TXQ      0.157100
     20 O15         5.4490    0.5040   -2.3480 oh        1 TXQ     -0.463100
     21 HO17       -0.3140   -0.9310    3.2460 ho        1 TXQ      0.420000
     22 H12         1.5570   -0.9270    4.5260 ha        1 TXQ      0.143000
     23 H11         4.0020   -0.4290    4.5560 ha        1 TXQ      0.143000
     24 HO16        5.7550    0.3130    3.3240 ho        1 TXQ      0.420000
     25 H3          0.2490   -0.3800   -2.4250 ha        1 TXQ      0.161000
     26 H4          1.5620   -0.6130   -4.5460 ha        1 TXQ      0.143000
     27 HO20        3.6790   -0.3990   -5.4690 ho        1 TXQ      0.435000
     28 HO15        5.7980    0.4560   -3.2530 ho        1 TXQ      0.440000
@<TRIPOS>BOND
     1    1    2 2   
     2    2    3 1   
     3    2   13 1   
     4    3    4 ar  
     5    3   10 ar  
     6    4    5 1   
     7    4    6 ar  
     8    5   21 1   
     9    6    7 ar  
    10    6   22 1   
    11    7    8 ar  
    12    7   23 1   
    13    8    9 1   
    14    8   10 ar  
    15    9   24 1   
    16   10   11 1   
    17   11   12 2   
    18   11   14 1   
    19   13   14 ar  
    20   13   15 ar  
    21   14   19 ar  
    22   15   16 ar  
    23   15   25 1   
    24   16   17 ar  
    25   16   26 1   
    26   17   18 1   
    27   17   19 ar  
    28   18   27 1   
    29   19   20 1   
    30   20   28 1   
@<TRIPOS>SUBSTRUCTURE
     1 TXQ         1 TEMP              0 ****  ****    0 ROOT
