@<TRIPOS>MOLECULE
TXQ
   28    30     1     0     0
SMALL
bcc


@<TRIPOS>ATOM
      1 O18        -0.0350    0.4630   -0.0120 o         1 TXQ     -0.493100
      2 C9          1.1810    0.2530    0.0060 c         1 TXQ      0.593300
      3 C8          1.9510    0.0700    1.2560 ca        1 TXQ     -0.131600
      4 C13         1.3250   -0.3890    2.4290 ca        1 TXQ      0.135100
      5 O17        -0.0140   -0.6840    2.3570 oh        1 TXQ     -0.467100
      6 C12         2.0600   -0.5610    3.6170 ca        1 TXQ     -0.167000
      7 C11         3.4160   -0.2850    3.6340 ca        1 TXQ     -0.162000
      8 C14         4.0540    0.1680    2.4640 ca        1 TXQ      0.132100
      9 O16         5.4030    0.4230    2.4260 oh        1 TXQ     -0.465100
     10 C7          3.3280    0.3540    1.2750 ca        1 TXQ     -0.124600
     11 C10         3.9920    0.8560    0.0480 c         1 TXQ      0.597300
     12 O19         4.9710    1.6030    0.0810 o         1 TXQ     -0.465100
     13 C2          1.9750    0.1510   -1.2410 ca        1 TXQ     -0.131600
     14 C1          3.3570    0.4150   -1.2150 ca        1 TXQ     -0.138600
     15 C3          1.3380   -0.2070   -2.4280 ca        1 TXQ     -0.086000
     16 C4          2.0680   -0.3380   -3.6110 ca        1 TXQ     -0.165000
     17 C5          3.4410   -0.1030   -3.5950 ca        1 TXQ      0.051100
     18 O20         4.2480   -0.2180   -4.7070 oh        1 TXQ     -0.512100
     19 C6          4.1000    0.2800   -2.3970 ca        1 TXQ      0.157100
     20 O15         5.4510    0.4970   -2.3480 oh        1 TXQ     -0.463100
     21 HO17       -0.3160   -0.9220    3.2460 ho        1 TXQ      0.420000
     22 H12         1.5540   -0.9150    4.5270 ha        1 TXQ      0.143000
     23 H11         3.9980   -0.4190    4.5580 ha        1 TXQ      0.143000
     24 HO16        5.7530    0.3200    3.3250 ho        1 TXQ      0.420000
     25 H3          0.2500   -0.3840   -2.4260 ha        1 TXQ      0.161000
     26 H4          1.5650   -0.6240   -4.5450 ha        1 TXQ      0.143000
     27 HO20        3.6820   -0.4130   -5.4680 ho        1 TXQ      0.435000
     28 HO15        5.8010    0.4460   -3.2520 ho        1 TXQ      0.440000
@<TRIPOS>BOND
     1    1    2 2   
     2    2    3 1   
     3    2   13 1   
     4    3    4 ar  
     5    3   10 ar  
     6    4    5 1   
     7    4    6 ar  
     8    5   21 1   
     9    6    7 ar  
    10    6   22 1   
    11    7    8 ar  
    12    7   23 1   
    13    8    9 1   
    14    8   10 ar  
    15    9   24 1   
    16   10   11 1   
    17   11   12 2   
    18   11   14 1   
    19   13   14 ar  
    20   13   15 ar  
    21   14   19 ar  
    22   15   16 ar  
    23   15   25 1   
    24   16   17 ar  
    25   16   26 1   
    26   17   18 1   
    27   17   19 ar  
    28   18   27 1   
    29   19   20 1   
    30   20   28 1   
@<TRIPOS>SUBSTRUCTURE
     1 TXQ         1 TEMP              0 ****  ****    0 ROOT
