@<TRIPOS>MOLECULE
TXS
   42    44     1     0     0
SMALL
bcc


@<TRIPOS>ATOM
      1 C21        -3.9910   -1.1990    0.9470 c3        1 TXS      0.148300
      2 C22        -3.7320   -2.6560    0.5240 c3        1 TXS     -0.101900
      3 C23        -3.0000   -2.5780   -0.8090 c3        1 TXS     -0.101900
      4 C24        -2.9560   -1.0840   -1.1720 c3        1 TXS      0.148300
      5 N25        -3.3570   -0.2850   -0.0110 n3        1 TXS     -0.712600
      6 C5'        -2.3000    0.5100    0.5910 c3        1 TXS      0.149800
      7 C4'        -1.7250    1.5890   -0.3380 c3        1 TXS      0.133100
      8 O4'        -0.7100    1.0250   -1.1870 os        1 TXS     -0.421600
      9 C3'        -1.0710    2.7310    0.4700 c3        1 TXS      0.117100
     10 O3'        -1.7600    3.9210    0.1270 oh        1 TXS     -0.586800
     11 C2'         0.3940    2.7670    0.0290 c3        1 TXS     -0.149400
     12 C1'         0.5910    1.5160   -0.8530 c3        1 TXS      0.324500
     13 N1          1.4010    0.4580   -0.2290 n         1 TXS     -0.400000
     14 C6          0.9610   -0.8510   -0.1330 cc        1 TXS      0.045600
     15 C5          1.7360   -1.8520    0.3720 cd        1 TXS     -0.265400
     16 C5M         1.2690   -3.2480    0.4850 c3        1 TXS     -0.027900
     17 C4          3.1070   -1.5620    0.8250 c         1 TXS      0.716700
     18 O4          3.8940   -2.3890    1.3150 o         1 TXS     -0.609500
     19 N3          3.5400   -0.2310    0.6760 n         1 TXS     -0.584500
     20 C2          2.7330    0.7820    0.1400 c         1 TXS      0.805500
     21 O2          3.1810    1.9420    0.0010 o         1 TXS     -0.652500
     22 H21        -5.0940   -0.9790    0.9170 h1        1 TXS      0.054450
     23 H21A       -3.6350   -1.0270    1.9980 h1        1 TXS      0.054450
     24 H22        -3.1160   -3.1850    1.2920 hc        1 TXS      0.047450
     25 H22A       -4.6980   -3.2070    0.4230 hc        1 TXS      0.047450
     26 H23        -1.9640   -2.9900   -0.7210 hc        1 TXS      0.047450
     27 H23A       -3.5310   -3.1580   -1.6020 hc        1 TXS      0.047450
     28 H24        -1.9430   -0.7940   -1.5580 h1        1 TXS      0.054450
     29 H24A       -3.7060   -0.8680   -1.9820 h1        1 TXS      0.054450
     30 H5'        -2.7640    1.0400    1.4740 h1        1 TXS      0.040700
     31 H5'A       -1.4430   -0.1180    0.9730 h1        1 TXS      0.040700
     32 H4'        -2.5060    1.9950   -1.0410 h1        1 TXS      0.116700
     33 H3'        -1.1530    2.5560    1.5760 h1        1 TXS      0.052700
     34 HO3'       -1.3360    4.6390    0.6130 ho        1 TXS      0.409000
     35 H2'         0.5960    3.6750   -0.5950 hc        1 TXS      0.087200
     36 H2'A        1.0900    2.7910    0.9020 hc        1 TXS      0.087200
     37 H1'         1.0840    1.7720   -1.8390 h2        1 TXS      0.097700
     38 H6         -0.0710   -1.0370   -0.4970 h4        1 TXS      0.183000
     39 H5M         1.9060   -3.9160   -0.1480 hc        1 TXS      0.050033
     40 H5MA        1.3570   -3.5960    1.5450 hc        1 TXS      0.050033
     41 H5MB        0.2050   -3.3470    0.1570 hc        1 TXS      0.050033
     42 HN3         4.4680    0.0210    0.9400 hn        1 TXS      0.352500
@<TRIPOS>BOND
     1    1    2 1   
     2    1    5 1   
     3    1   22 1   
     4    1   23 1   
     5    2    3 1   
     6    2   24 1   
     7    2   25 1   
     8    3    4 1   
     9    3   26 1   
    10    3   27 1   
    11    4    5 1   
    12    4   28 1   
    13    4   29 1   
    14    5    6 1   
    15    6    7 1   
    16    6   30 1   
    17    6   31 1   
    18    7    8 1   
    19    7    9 1   
    20    7   32 1   
    21    8   12 1   
    22    9   10 1   
    23    9   11 1   
    24    9   33 1   
    25   10   34 1   
    26   11   12 1   
    27   11   35 1   
    28   11   36 1   
    29   12   13 1   
    30   12   37 1   
    31   13   14 1   
    32   13   20 1   
    33   14   15 2   
    34   14   38 1   
    35   15   16 1   
    36   15   17 1   
    37   16   39 1   
    38   16   40 1   
    39   16   41 1   
    40   17   18 2   
    41   17   19 1   
    42   19   20 1   
    43   19   42 1   
    44   20   21 2   
@<TRIPOS>SUBSTRUCTURE
     1 TXS         1 TEMP              0 ****  ****    0 ROOT
