@<TRIPOS>MOLECULE
TXS
   42    44     1     0     0
SMALL
bcc


@<TRIPOS>ATOM
      1 C21         0.2460   -1.0070    0.4340 c3        1 TXS      0.148300
      2 C22         1.7390   -1.0120    0.8080 c3        1 TXS     -0.101900
      3 C23         1.8630   -0.1240    2.0390 c3        1 TXS     -0.101900
      4 C24         0.4580    0.4570    2.2750 c3        1 TXS      0.148300
      5 N25        -0.5140   -0.2550    1.4410 n3        1 TXS     -0.712600
      6 C5'        -1.4610   -1.0870    2.1630 c3        1 TXS      0.149800
      7 C4'        -2.3840   -0.3050    3.1090 c3        1 TXS      0.133100
      8 O4'        -1.7320   -0.0860    4.3720 os        1 TXS     -0.421600
      9 C3'        -3.6870   -1.0860    3.3890 c3        1 TXS      0.117100
     10 O3'        -4.7560   -0.2690    2.9450 oh        1 TXS     -0.586800
     11 C2'        -3.7210   -1.3060    4.9040 c3        1 TXS     -0.149400
     12 C1'        -2.3450   -0.8400    5.4210 c3        1 TXS      0.324500
     13 N1         -1.4620   -1.9330    5.8590 n         1 TXS     -0.400000
     14 C6         -0.1700   -2.0750    5.3840 cc        1 TXS      0.045600
     15 C5          0.6810   -3.0370    5.8430 cd        1 TXS     -0.265400
     16 C5M         2.0560   -3.1990    5.3330 c3        1 TXS     -0.027900
     17 C4          0.2400   -3.9630    6.8990 c         1 TXS      0.716700
     18 O4          0.9210   -4.8850    7.3790 o         1 TXS     -0.609500
     19 N3         -1.0640   -3.7670    7.3910 n         1 TXS     -0.584500
     20 C2         -1.9190   -2.7620    6.9170 c         1 TXS      0.805500
     21 O2         -3.0570   -2.6120    7.4140 o         1 TXS     -0.652500
     22 H21        -0.1310   -2.0580    0.3150 h1        1 TXS      0.054450
     23 H21A        0.0950   -0.4740   -0.5440 h1        1 TXS      0.054450
     24 H22         2.0870   -2.0520    1.0240 hc        1 TXS      0.047450
     25 H22A        2.3510   -0.6170   -0.0390 hc        1 TXS      0.047450
     26 H23         2.1960   -0.7170    2.9270 hc        1 TXS      0.047450
     27 H23A        2.6040    0.6960    1.8790 hc        1 TXS      0.047450
     28 H24         0.1890    0.4260    3.3640 h1        1 TXS      0.054450
     29 H24A        0.4320    1.5320    1.9460 h1        1 TXS      0.054450
     30 H5'        -2.1140   -1.5770    1.3840 h1        1 TXS      0.040700
     31 H5'A       -0.9580   -1.9050    2.7590 h1        1 TXS      0.040700
     32 H4'        -2.6140    0.7230    2.7120 h1        1 TXS      0.116700
     33 H3'        -3.7090   -2.0660    2.8400 h1        1 TXS      0.052700
     34 HO3'       -5.5720   -0.7460    3.1420 ho        1 TXS      0.409000
     35 H2'        -4.5120   -0.6700    5.3770 hc        1 TXS      0.087200
     36 H2'A       -3.9400   -2.3700    5.1620 hc        1 TXS      0.087200
     37 H1'        -2.4460   -0.1260    6.2930 h2        1 TXS      0.097700
     38 H6          0.1350   -1.3510    4.6000 h4        1 TXS      0.183000
     39 H5M         2.7920   -3.0310    6.1600 hc        1 TXS      0.050033
     40 H5MA        2.2700   -2.4770    4.5070 hc        1 TXS      0.050033
     41 H5MB        2.2020   -4.2420    4.9520 hc        1 TXS      0.050033
     42 HN3        -1.4100   -4.3460    8.1260 hn        1 TXS      0.352500
@<TRIPOS>BOND
     1    1    2 1   
     2    1    5 1   
     3    1   22 1   
     4    1   23 1   
     5    2    3 1   
     6    2   24 1   
     7    2   25 1   
     8    3    4 1   
     9    3   26 1   
    10    3   27 1   
    11    4    5 1   
    12    4   28 1   
    13    4   29 1   
    14    5    6 1   
    15    6    7 1   
    16    6   30 1   
    17    6   31 1   
    18    7    8 1   
    19    7    9 1   
    20    7   32 1   
    21    8   12 1   
    22    9   10 1   
    23    9   11 1   
    24    9   33 1   
    25   10   34 1   
    26   11   12 1   
    27   11   35 1   
    28   11   36 1   
    29   12   13 1   
    30   12   37 1   
    31   13   14 1   
    32   13   20 1   
    33   14   15 2   
    34   14   38 1   
    35   15   16 1   
    36   15   17 1   
    37   16   39 1   
    38   16   40 1   
    39   16   41 1   
    40   17   18 2   
    41   17   19 1   
    42   19   20 1   
    43   19   42 1   
    44   20   21 2   
@<TRIPOS>SUBSTRUCTURE
     1 TXS         1 TEMP              0 ****  ****    0 ROOT
