@<TRIPOS>MOLECULE
TXS
   42    44     1     0     0
SMALL
bcc


@<TRIPOS>ATOM
      1 C21         0.2460   -1.0890    0.4220 c3        1 TXS      0.148300
      2 C22         1.7390   -1.0970    0.7940 c3        1 TXS     -0.101900
      3 C23         1.8720   -0.1820    2.0050 c3        1 TXS     -0.101900
      4 C24         0.4710    0.4140    2.2290 c3        1 TXS      0.148300
      5 N25        -0.5070   -0.3080    1.4120 n3        1 TXS     -0.712600
      6 C5'        -1.4590   -1.1180    2.1540 c3        1 TXS      0.149800
      7 C4'        -2.3760   -0.3080    3.0830 c3        1 TXS      0.133100
      8 O4'        -1.7200   -0.0660    4.3410 os        1 TXS     -0.421600
      9 C3'        -3.6840   -1.0720    3.3820 c3        1 TXS      0.117100
     10 O3'        -4.7480   -0.2580    2.9210 oh        1 TXS     -0.586800
     11 C2'        -3.7180   -1.2600    4.9010 c3        1 TXS     -0.149400
     12 C1'        -2.3370   -0.7930    5.4060 c3        1 TXS      0.324500
     13 N1         -1.4620   -1.8820    5.8670 n         1 TXS     -0.400000
     14 C6         -0.1710   -2.0440    5.3940 cc        1 TXS      0.045600
     15 C5          0.6730   -3.0020    5.8730 cd        1 TXS     -0.265400
     16 C5M         2.0460   -3.1850    5.3660 c3        1 TXS     -0.027900
     17 C4          0.2260   -3.9020    6.9490 c         1 TXS      0.716700
     18 O4          0.9010   -4.8170    7.4490 o         1 TXS     -0.609500
     19 N3         -1.0760   -3.6850    7.4380 ns        1 TXS     -0.584500
     20 C2         -1.9230   -2.6840    6.9430 c         1 TXS      0.805500
     21 O2         -3.0600   -2.5150    7.4380 o         1 TXS     -0.652500
     22 H21         0.0980   -0.5760   -0.5680 h1        1 TXS      0.054450
     23 H21A       -0.1390   -2.1390    0.3260 h1        1 TXS      0.054450
     24 H22         2.3530   -0.7250   -0.0620 hc        1 TXS      0.047450
     25 H22A        2.0800   -2.1330    1.0330 hc        1 TXS      0.047450
     26 H23         2.6180    0.6280    1.8260 hc        1 TXS      0.047450
     27 H23A        2.2010   -0.7570    2.9050 hc        1 TXS      0.047450
     28 H24         0.4530    1.4830    1.8760 h1        1 TXS      0.054450
     29 H24A        0.2030    0.4090    3.3190 h1        1 TXS      0.054450
     30 H5'        -2.1170   -1.6190    1.3860 h1        1 TXS      0.040700
     31 H5'A       -0.9620   -1.9260    2.7670 h1        1 TXS      0.040700
     32 H4'        -2.5980    0.7130    2.6640 h1        1 TXS      0.116700
     33 H3'        -3.7140   -2.0640    2.8540 h1        1 TXS      0.052700
     34 HO3'       -5.5670   -0.7240    3.1290 ho        1 TXS      0.409000
     35 H2'        -4.5030   -0.6080    5.3610 hc        1 TXS      0.087200
     36 H2'A       -3.9440   -2.3160    5.1830 hc        1 TXS      0.087200
     37 H1'        -2.4320   -0.0590    6.2630 h2        1 TXS      0.097700
     38 H6          0.1370   -1.3390    4.5940 h4        1 TXS      0.183000
     39 H5M         2.1850   -4.2370    5.0090 hc        1 TXS      0.050033
     40 H5MA        2.2640   -2.4840    4.5220 hc        1 TXS      0.050033
     41 H5MB        2.7850   -3.0020    6.1870 hc        1 TXS      0.050033
     42 HN3        -1.4250   -4.2450    8.1860 hn        1 TXS      0.352500
@<TRIPOS>BOND
     1    1    2 1   
     2    1    5 1   
     3    1   22 1   
     4    1   23 1   
     5    2    3 1   
     6    2   24 1   
     7    2   25 1   
     8    3    4 1   
     9    3   26 1   
    10    3   27 1   
    11    4    5 1   
    12    4   28 1   
    13    4   29 1   
    14    5    6 1   
    15    6    7 1   
    16    6   30 1   
    17    6   31 1   
    18    7    8 1   
    19    7    9 1   
    20    7   32 1   
    21    8   12 1   
    22    9   10 1   
    23    9   11 1   
    24    9   33 1   
    25   10   34 1   
    26   11   12 1   
    27   11   35 1   
    28   11   36 1   
    29   12   13 1   
    30   12   37 1   
    31   13   14 1   
    32   13   20 1   
    33   14   15 2   
    34   14   38 1   
    35   15   16 1   
    36   15   17 1   
    37   16   39 1   
    38   16   40 1   
    39   16   41 1   
    40   17   18 2   
    41   17   19 1   
    42   19   20 1   
    43   19   42 1   
    44   20   21 2   
@<TRIPOS>SUBSTRUCTURE
     1 TXS         1 TEMP              0 ****  ****    0 ROOT
