@<TRIPOS>MOLECULE
TXS
   42    44     1     0     0
SMALL
bcc


@<TRIPOS>ATOM
      1 C21         0.2500   -1.0070    0.4350 c3        1 TXS      0.148300
      2 C22         1.7420   -1.0010    0.8150 c3        1 TXS     -0.101900
      3 C23         1.8550   -0.1100    2.0450 c3        1 TXS     -0.101900
      4 C24         0.4450    0.4600    2.2750 c3        1 TXS      0.148300
      5 N25        -0.5190   -0.2600    1.4390 n3        1 TXS     -0.712600
      6 C5'        -1.4610   -1.0990    2.1590 c3        1 TXS      0.149800
      7 C4'        -2.3940   -0.3240    3.1010 c3        1 TXS      0.133100
      8 O4'        -1.7480   -0.0980    4.3660 os        1 TXS     -0.421600
      9 C3'        -3.6910   -1.1150    3.3780 c3        1 TXS      0.117100
     10 O3'        -4.7660   -0.3080    2.9290 oh        1 TXS     -0.586800
     11 C2'        -3.7290   -1.3340    4.8920 c3        1 TXS     -0.149400
     12 C1'        -2.3580   -0.8560    5.4140 c3        1 TXS      0.324500
     13 N1         -1.4680   -1.9410    5.8560 n         1 TXS     -0.400000
     14 C6         -0.1730   -2.0740    5.3850 cc        1 TXS      0.045600
     15 C5          0.6840   -3.0280    5.8480 cd        1 TXS     -0.265400
     16 C5M         2.0620   -3.1790    5.3430 c3        1 TXS     -0.027900
     17 C4          0.2470   -3.9570    6.9040 c         1 TXS      0.716700
     18 O4          0.9350   -4.8710    7.3870 o         1 TXS     -0.609500
     19 N3         -1.0600   -3.7700    7.3910 n         1 TXS     -0.584500
     20 C2         -1.9210   -2.7730    6.9130 c         1 TXS      0.805500
     21 O2         -3.0620   -2.6320    7.4060 o         1 TXS     -0.652500
     22 H21         0.0990   -0.4750   -0.5430 h1        1 TXS      0.054450
     23 H21A       -0.1190   -2.0610    0.3150 h1        1 TXS      0.054450
     24 H22         2.0970   -2.0370    1.0330 hc        1 TXS      0.047450
     25 H22A        2.3540   -0.6020   -0.0300 hc        1 TXS      0.047450
     26 H23         2.5900    0.7150    1.8860 hc        1 TXS      0.047450
     27 H23A        2.1890   -0.6990    2.9350 hc        1 TXS      0.047450
     28 H24         0.1720    0.4280    3.3630 h1        1 TXS      0.054450
     29 H24A        0.4120    1.5350    1.9450 h1        1 TXS      0.054450
     30 H5'        -2.1080   -1.5950    1.3780 h1        1 TXS      0.040700
     31 H5'A       -0.9540   -1.9120    2.7570 h1        1 TXS      0.040700
     32 H4'        -2.6310    0.7030    2.7030 h1        1 TXS      0.116700
     33 H3'        -3.7040   -2.0950    2.8290 h1        1 TXS      0.052700
     34 HO3'       -5.5790   -0.7900    3.1240 ho        1 TXS      0.409000
     35 H2'        -3.9400   -2.4000    5.1510 hc        1 TXS      0.087200
     36 H2'A       -4.5260   -0.7040    5.3620 hc        1 TXS      0.087200
     37 H1'        -2.4680   -0.1420    6.2850 h2        1 TXS      0.097700
     38 H6          0.1280   -1.3480    4.6010 h4        1 TXS      0.183000
     39 H5M         2.7950   -3.0010    6.1710 hc        1 TXS      0.050033
     40 H5MA        2.2190   -4.2210    4.9660 hc        1 TXS      0.050033
     41 H5MB        2.2720   -2.4580    4.5150 hc        1 TXS      0.050033
     42 HN3        -1.4030   -4.3510    8.1260 hn        1 TXS      0.352500
@<TRIPOS>BOND
     1    1    2 1   
     2    1    5 1   
     3    1   22 1   
     4    1   23 1   
     5    2    3 1   
     6    2   24 1   
     7    2   25 1   
     8    3    4 1   
     9    3   26 1   
    10    3   27 1   
    11    4    5 1   
    12    4   28 1   
    13    4   29 1   
    14    5    6 1   
    15    6    7 1   
    16    6   30 1   
    17    6   31 1   
    18    7    8 1   
    19    7    9 1   
    20    7   32 1   
    21    8   12 1   
    22    9   10 1   
    23    9   11 1   
    24    9   33 1   
    25   10   34 1   
    26   11   12 1   
    27   11   35 1   
    28   11   36 1   
    29   12   13 1   
    30   12   37 1   
    31   13   14 1   
    32   13   20 1   
    33   14   15 2   
    34   14   38 1   
    35   15   16 1   
    36   15   17 1   
    37   16   39 1   
    38   16   40 1   
    39   16   41 1   
    40   17   18 2   
    41   17   19 1   
    42   19   20 1   
    43   19   42 1   
    44   20   21 2   
@<TRIPOS>SUBSTRUCTURE
     1 TXS         1 TEMP              0 ****  ****    0 ROOT
