@<TRIPOS>MOLECULE
TXS
   42    43     1     0     0
SMALL
bcc


@<TRIPOS>ATOM
      1 C21         2.4920   -0.7120   -1.1220 c3        1 TXS     -0.078000
      2 C22         4.0540   -0.5120   -1.3000 c3        1 TXS     -0.172000
      3 C23         4.5630   -0.0150    0.0590 c3        1 TXS     -0.172000
      4 C24         3.4600    0.2940    0.7510 c3        1 TXS     -0.078000
      5 N25         2.2810   -0.6320    0.1600 n3        1 TXS     -0.242000
      6 C5'         1.0160    0.0030    0.3900 c3        1 TXS     -0.082000
      7 C4'         0.4640   -0.4440    1.7480 c3        1 TXS      0.031000
      8 O4'        -0.4490   -1.3560    1.5900 os        1 TXS     -0.262000
      9 C3'        -0.2600    0.7400    2.4570 c3        1 TXS      0.004000
     10 O3'         0.1340    0.8220    3.7580 oh        1 TXS     -0.322000
     11 C2'        -1.7370    0.4230    2.3760 c3        1 TXS     -0.215000
     12 C1'        -1.8280   -0.5880    1.5190 c3        1 TXS      0.162000
     13 N1         -2.0510   -0.1030    0.2150 n         1 TXS     -0.272000
     14 C6         -2.3350   -1.0120   -0.8320 c2        1 TXS      0.040000
     15 C5         -2.9350   -0.5220   -2.0880 c1        1 TXS     -0.226000
     16 C5M        -3.4900   -1.5230   -3.1140 c2        1 TXS     -0.154000
     17 C4         -3.0830    0.9270   -2.3120 c2        1 TXS      0.355000
     18 O4         -3.5800    1.3390   -3.3490 o         1 TXS     -0.333000
     19 N3         -2.6770    1.8490   -1.2990 n         1 TXS     -0.365000
     20 C2         -2.1980    1.3540   -0.0120 c2        1 TXS      0.402000
     21 O2         -1.9030    2.1280    0.8550 o         1 TXS     -0.389000
     22 H21         2.2220   -1.5920   -1.4560 h1        1 TXS      0.082750
     23 H21A        1.9880    0.0160   -1.6040 h1        1 TXS      0.082750
     24 H22         4.4740   -1.3500   -1.5270 hc        1 TXS      0.086000
     25 H22A        4.2380    0.1730   -2.0110 hc        1 TXS      0.086000
     26 H23         5.1150    0.7680   -0.0560 hc        1 TXS      0.086000
     27 H23A        5.0800   -0.7430    0.5280 hc        1 TXS      0.086000
     28 H24         3.2360    1.2500    0.6260 h1        1 TXS      0.082750
     29 H24A        3.5950    0.1020    1.7040 h1        1 TXS      0.082750
     30 H5'         1.1350    0.9920    0.3880 h1        1 TXS      0.086500
     31 H5'A        0.3920   -0.2510   -0.3170 h1        1 TXS      0.086500
     32 H4'         1.1960   -0.7880    2.3200 h1        1 TXS      0.132000
     33 H3'        -0.0740    1.5550    2.0050 h1        1 TXS      0.116000
     34 HO3'        0.1250    1.6360    4.0070 ho        1 TXS      0.205000
     35 H2'        -2.2430    1.2130    2.0370 hc        1 TXS      0.119500
     36 H2'A       -2.0730    0.1560    3.2470 hc        1 TXS      0.119500
     37 H1'        -2.5540   -1.1830    1.7830 h2        1 TXS      0.125000
     38 H6         -2.1960   -1.9760   -0.6970 h4        1 TXS      0.167000
     39 H5M        -3.1550   -1.3000   -3.9980 ha        1 TXS      0.091333
     40 H5MA       -3.2000   -2.4340   -2.8730 ha        1 TXS      0.091333
     41 H5MB       -4.4690   -1.4810   -3.1160 ha        1 TXS      0.091333
     42 HN3        -2.7700    2.7750   -1.4410 hn        1 TXS      0.264000
@<TRIPOS>BOND
     1    1    2 1   
     2    1    5 1   
     3    1   22 1   
     4    1   23 1   
     5    2    3 1   
     6    2   24 1   
     7    2   25 1   
     8    3    4 1   
     9    3   26 1   
    10    3   27 1   
    11    4    5 1   
    12    4   28 1   
    13    4   29 1   
    14    5    6 1   
    15    6    7 1   
    16    6   30 1   
    17    6   31 1   
    18    7    8 1   
    19    7    9 1   
    20    7   32 1   
    21    8   12 1   
    22    9   10 1   
    23    9   11 1   
    24    9   33 1   
    25   10   34 1   
    26   11   12 1   
    27   11   35 1   
    28   11   36 1   
    29   12   13 1   
    30   12   37 1   
    31   13   14 1   
    32   13   20 1   
    33   14   15 1   
    34   14   38 1   
    35   15   17 1   
    36   16   39 1   
    37   16   40 1   
    38   16   41 1   
    39   17   18 1   
    40   17   19 1   
    41   19   20 1   
    42   19   42 1   
    43   20   21 1   
@<TRIPOS>SUBSTRUCTURE
     1 TXS         1 TEMP              0 ****  ****    0 ROOT
