@<TRIPOS>MOLECULE
TXW
   29    30     1     0     0
SMALL
bcc


@<TRIPOS>ATOM
      1 C5         -0.0210    0.0080   -0.0820 ca        1 TXW     -0.312300
      2 C7          2.1040   -0.0230   -1.2830 ca        1 TXW     -0.268100
      3 C6          1.3960    0.0160   -0.0460 ca        1 TXW      0.132600
      4 C4         -0.6660   -0.0370   -1.3230 ca        1 TXW      0.465600
      5 C13         1.3470   -0.0680   -2.4890 ca        1 TXW      0.483600
      6 C8          3.5420   -0.0150   -1.2500 cc        1 TXW     -0.019200
      7 C9          4.2080    0.0280   -0.0750 cd        1 TXW     -0.239200
      8 C10         3.4920    0.0690    1.2060 c         1 TXW      0.694700
      9 C15         2.0830   -0.1100   -3.7920 c3        1 TXW     -0.158400
     10 C1         -4.2380    1.2230   -1.9020 c3        1 TXW     -0.095100
     11 C3         -2.1700   -0.0530   -1.3540 c3        1 TXW     -0.132700
     12 C2         -2.7320    1.2240   -1.9470 c3        1 TXW     -0.076400
     13 N14         0.0030   -0.0760   -2.5090 nb        1 TXW     -0.697000
     14 N12         2.0880    0.0600    1.1530 ns        1 TXW     -0.444100
     15 O11         4.0390    0.1100    2.3240 o         1 TXW     -0.625500
     16 H5         -0.6070    0.0380    0.8470 ha        1 TXW      0.149000
     17 H8          4.0860   -0.0450   -2.2080 ha        1 TXW      0.144000
     18 H12         1.5760    0.0870    2.0070 hn        1 TXW      0.335500
     19 H31C       -2.5570   -0.1850   -0.3080 hc        1 TXW      0.057700
     20 H32C       -2.5220   -0.9330   -1.9560 hc        1 TXW      0.057700
     21 H151        2.7240    0.8020   -3.8860 hc        1 TXW      0.059367
     22 H152        1.3880   -0.1440   -4.6680 hc        1 TXW      0.059367
     23 H153        2.7330   -1.0190   -3.8220 hc        1 TXW      0.059367
     24 H9          5.3050    0.0360   -0.0020 ha        1 TXW      0.166000
     25 H11C       -4.6040    1.1470   -0.8500 hc        1 TXW      0.034700
     26 H12C       -4.6500    0.3600   -2.4790 hc        1 TXW      0.034700
     27 H13C       -4.6370    2.1670   -2.3460 hc        1 TXW      0.034700
     28 H21C       -2.3370    2.1070   -1.3790 hc        1 TXW      0.050700
     29 H22C       -2.3860    1.3290   -3.0090 hc        1 TXW      0.050700
@<TRIPOS>BOND
     1    1    3 ar  
     2    1    4 ar  
     3    1   16 1   
     4    2    3 ar  
     5    2    5 ar  
     6    2    6 1   
     7    3   14 1   
     8    4   11 1   
     9    4   13 ar  
    10    5    9 1   
    11    5   13 ar  
    12    6    7 2   
    13    6   17 1   
    14    7    8 1   
    15    7   24 1   
    16    8   14 1   
    17    8   15 2   
    18    9   21 1   
    19    9   22 1   
    20    9   23 1   
    21   10   12 1   
    22   10   25 1   
    23   10   26 1   
    24   10   27 1   
    25   11   12 1   
    26   11   19 1   
    27   11   20 1   
    28   12   28 1   
    29   12   29 1   
    30   14   18 1   
@<TRIPOS>SUBSTRUCTURE
     1 TXW         1 TEMP              0 ****  ****    0 ROOT
