@<TRIPOS>MOLECULE
TXW
   29    30     1     0     0
SMALL
bcc


@<TRIPOS>ATOM
      1 C5         -0.0210    0.0130   -0.0810 ca        1 TXW     -0.312300
      2 C7          2.1030   -0.0250   -1.2820 ca        1 TXW     -0.268100
      3 C6          1.3970    0.0190   -0.0460 ca        1 TXW      0.132600
      4 C4         -0.6670   -0.0360   -1.3210 ca        1 TXW      0.465600
      5 C13         1.3450   -0.0730   -2.4880 ca        1 TXW      0.483600
      6 C8          3.5420   -0.0190   -1.2510 cc        1 TXW     -0.019200
      7 C9          4.2090    0.0270   -0.0770 cd        1 TXW     -0.239200
      8 C10         3.4940    0.0720    1.2050 c         1 TXW      0.694700
      9 C15         2.0800   -0.1200   -3.7920 c3        1 TXW     -0.158400
     10 C1         -4.2380    1.2270   -1.9030 c3        1 TXW     -0.095100
     11 C3         -2.1700   -0.0490   -1.3500 c3        1 TXW     -0.132700
     12 C2         -2.7310    1.2250   -1.9500 c3        1 TXW     -0.076400
     13 N14         0.0020   -0.0790   -2.5070 nb        1 TXW     -0.697000
     14 N12         2.0900    0.0660    1.1530 n         1 TXW     -0.444100
     15 O11         4.0420    0.1160    2.3210 o         1 TXW     -0.625500
     16 H5         -0.6050    0.0470    0.8490 ha        1 TXW      0.149000
     17 H8          4.0850   -0.0530   -2.2100 ha        1 TXW      0.144000
     18 H12         1.5780    0.0960    2.0070 hn        1 TXW      0.335500
     19 H31C       -2.5570   -0.1750   -0.3040 hc        1 TXW      0.057700
     20 H32C       -2.5250   -0.9320   -1.9480 hc        1 TXW      0.057700
     21 H151        2.7230    0.7900   -3.8890 hc        1 TXW      0.059367
     22 H152        1.3840   -0.1550   -4.6670 hc        1 TXW      0.059367
     23 H153        2.7290   -1.0300   -3.8200 hc        1 TXW      0.059367
     24 H9          5.3060    0.0330   -0.0050 ha        1 TXW      0.166000
     25 H11C       -4.6360    2.1690   -2.3520 hc        1 TXW      0.034700
     26 H12C       -4.6510    0.3610   -2.4750 hc        1 TXW      0.034700
     27 H13C       -4.6020    1.1570   -0.8500 hc        1 TXW      0.034700
     28 H21C       -2.3350    2.1110   -1.3870 hc        1 TXW      0.050700
     29 H22C       -2.3860    1.3240   -3.0130 hc        1 TXW      0.050700
@<TRIPOS>BOND
     1    1    3 ar  
     2    1    4 ar  
     3    1   16 1   
     4    2    3 ar  
     5    2    5 ar  
     6    2    6 1   
     7    3   14 1   
     8    4   11 1   
     9    4   13 ar  
    10    5    9 1   
    11    5   13 ar  
    12    6    7 2   
    13    6   17 1   
    14    7    8 1   
    15    7   24 1   
    16    8   14 1   
    17    8   15 2   
    18    9   21 1   
    19    9   22 1   
    20    9   23 1   
    21   10   12 1   
    22   10   25 1   
    23   10   26 1   
    24   10   27 1   
    25   11   12 1   
    26   11   19 1   
    27   11   20 1   
    28   12   28 1   
    29   12   29 1   
    30   14   18 1   
@<TRIPOS>SUBSTRUCTURE
     1 TXW         1 TEMP              0 ****  ****    0 ROOT
