@<TRIPOS>MOLECULE
TXZ
   38    37     1     0     0
SMALL
bcc


@<TRIPOS>ATOM
      1 C           0.7630   -1.3510   -0.9700 c         1 TXZ      0.911600
      2 N           2.2850    0.6000   -1.1960 ns        1 TXZ     -0.486900
      3 O           0.8470   -2.6020   -0.7980 o         1 TXZ     -0.851300
      4 P           1.7660    2.4900    1.9640 p5        1 TXZ      1.426800
      5 C1          3.5450    0.8060   -1.6610 c         1 TXZ      0.657100
      6 O1          4.4970   -0.0050   -1.5450 o         1 TXZ     -0.680100
      7 C2          3.7840    2.1160   -2.4150 c3        1 TXZ     -0.163400
      8 C3          3.1420    2.0900   -3.7830 c3        1 TXZ     -0.076400
      9 C4          3.3270    3.4200   -4.4860 c3        1 TXZ     -0.077400
     10 C5          2.7760    3.3810   -5.8970 c3        1 TXZ     -0.075400
     11 C6          2.8350    4.7520   -6.5240 c3        1 TXZ      0.023700
     12 S6          2.4400    4.5890   -8.2490 sh        1 TXZ     -0.401900
     13 CA          1.8790   -0.4680   -0.3090 c3        1 TXZ     -0.038300
     14 CB          1.3360    0.0770    1.0490 c3        1 TXZ      0.189100
     15 CG          1.1120   -1.1000    1.9910 c3        1 TXZ     -0.104100
     16 O1P         1.9370    3.1010    0.4460 oh        1 TXZ     -0.785400
     17 O2P         2.8600    3.1590    2.7060 o         1 TXZ     -0.848500
     18 O3P         0.3430    2.5150    2.3570 o         1 TXZ     -0.848500
     19 O4P         2.2550    0.9610    1.6400 os        1 TXZ     -0.589200
     20 OXT        -0.1560   -0.7960   -1.6350 o         1 TXZ     -0.851300
     21 HN          2.8260    3.4030    0.3070 ho        1 TXZ      0.413000
     22 H2          4.8920    2.2540   -2.5130 hc        1 TXZ      0.054700
     23 H2A         3.3800    2.9730   -1.8120 hc        1 TXZ      0.054700
     24 H3          3.5970    1.2690   -4.3960 hc        1 TXZ      0.056700
     25 H3A         2.0460    1.8650   -3.6880 hc        1 TXZ      0.056700
     26 H4          2.8070    4.2240   -3.9010 hc        1 TXZ      0.035200
     27 H4A         4.4170    3.6830   -4.5170 hc        1 TXZ      0.035200
     28 H5          3.3680    2.6520   -6.5120 hc        1 TXZ      0.058700
     29 H5A         1.7150    3.0160   -5.8770 hc        1 TXZ      0.058700
     30 H6          3.8570    5.1880   -6.4150 h1        1 TXZ      0.056200
     31 H6A         2.1100    5.4380   -6.0250 h1        1 TXZ      0.056200
     32 HS6         2.3740    5.8670   -8.5640 hs        1 TXZ      0.181800
     33 HA          2.7730   -1.1190   -0.1020 h1        1 TXZ      0.075700
     34 HB          0.3610    0.6170    0.8690 h1        1 TXZ      0.057700
     35 HG          0.5580   -1.9090    1.4570 hc        1 TXZ      0.032367
     36 HGA         0.5270   -0.7690    2.8810 hc        1 TXZ      0.032367
     37 HGB         2.0950   -1.4980    2.3390 hc        1 TXZ      0.032367
     38 H21         1.6120    1.3260   -1.3100 hn        1 TXZ      0.321500
@<TRIPOS>BOND
     1    1    3 1   
     2    1   13 1   
     3    1   20 1   
     4    2    5 1   
     5    2   13 1   
     6    2   38 1   
     7    4   16 1   
     8    4   17 1   
     9    4   18 1   
    10    4   19 1   
    11    5    6 2   
    12    5    7 1   
    13    7    8 1   
    14    7   22 1   
    15    7   23 1   
    16    8    9 1   
    17    8   24 1   
    18    8   25 1   
    19    9   10 1   
    20    9   26 1   
    21    9   27 1   
    22   10   11 1   
    23   10   28 1   
    24   10   29 1   
    25   11   12 1   
    26   11   30 1   
    27   11   31 1   
    28   12   32 1   
    29   13   14 1   
    30   13   33 1   
    31   14   15 1   
    32   14   19 1   
    33   14   34 1   
    34   15   35 1   
    35   15   36 1   
    36   15   37 1   
    37   16   21 1   
@<TRIPOS>SUBSTRUCTURE
     1 TXZ         1 TEMP              0 ****  ****    0 ROOT
