@<TRIPOS>MOLECULE
TXZ
   38    37     1     0     0
SMALL
bcc


@<TRIPOS>ATOM
      1 C           0.4350   -1.3050   -0.7630 c         1 TXZ      0.915600
      2 N           2.1410    0.3900   -1.3710 n         1 TXZ     -0.487900
      3 O           0.4040   -2.5550   -0.5720 o         1 TXZ     -0.852800
      4 P           2.0580    2.5960    1.6250 p5        1 TXZ      1.428800
      5 C1          3.4390    0.5980   -1.7580 c         1 TXZ      0.664100
      6 O1          4.3520   -0.2560   -1.6550 o         1 TXZ     -0.669100
      7 C2          3.7460    1.9360   -2.4270 c3        1 TXZ     -0.172400
      8 C3          3.1420    2.0280   -3.8100 c3        1 TXZ     -0.071400
      9 C4          3.4060    3.3910   -4.4150 c3        1 TXZ     -0.078400
     10 C5          2.8750    3.4810   -5.8320 c3        1 TXZ     -0.074400
     11 C6          3.0330    4.8830   -6.3650 c3        1 TXZ      0.025700
     12 S6          2.6170    4.8680   -8.0940 sh        1 TXZ     -0.407900
     13 CA          1.7480   -0.5540   -0.3490 c3        1 TXZ     -0.045300
     14 CB          1.4810    0.1200    1.0350 c3        1 TXZ      0.185100
     15 CG          1.4220   -0.9710    2.0960 c3        1 TXZ     -0.104100
     16 O1P         1.5400    2.9480    0.1050 oh        1 TXZ     -0.797400
     17 O2P         3.2750    3.3790    1.9250 o         1 TXZ     -0.848000
     18 O3P         0.8070    2.6450    2.4160 o         1 TXZ     -0.848000
     19 O4P         2.4920    1.0350    1.3690 os        1 TXZ     -0.585200
     20 OXT        -0.5250   -0.6430   -1.2500 o         1 TXZ     -0.852800
     21 HN          1.5120    1.1600   -1.4660 hn        1 TXZ      0.309500
     22 H2          4.8600    2.0390   -2.4880 hc        1 TXZ      0.070200
     23 H2A         3.3560    2.7640   -1.7740 hc        1 TXZ      0.070200
     24 H3          2.0350    1.8510   -3.7570 hc        1 TXZ      0.048200
     25 H3A         3.5760    1.2290   -4.4670 hc        1 TXZ      0.048200
     26 H4          2.9210    4.1780   -3.7790 hc        1 TXZ      0.039200
     27 H4A         4.5090    3.5970   -4.4150 hc        1 TXZ      0.039200
     28 H5          1.7920    3.1860   -5.8480 hc        1 TXZ      0.055700
     29 H5A         3.4280    2.7570   -6.4880 hc        1 TXZ      0.055700
     30 H6          2.3620    5.5850   -5.8140 h1        1 TXZ      0.057200
     31 H6A         4.0840    5.2340   -6.2370 h1        1 TXZ      0.057200
     32 HS6         2.6620    6.1650   -8.3250 hs        1 TXZ      0.182800
     33 HA          2.5740   -1.3100   -0.2280 h1        1 TXZ      0.074700
     34 HB          0.4900    0.6610    0.9870 h1        1 TXZ      0.045700
     35 HG          0.7810   -1.8100    1.7280 hc        1 TXZ      0.032367
     36 HGA         2.4490   -1.3560    2.3020 hc        1 TXZ      0.032367
     37 HGB         0.9990   -0.5610    3.0430 hc        1 TXZ      0.032367
     38 H21         0.6000    2.8290    0.0200 ho        1 TXZ      0.426000
@<TRIPOS>BOND
     1    1    3 1   
     2    1   13 1   
     3    1   20 1   
     4    2    5 1   
     5    2   13 1   
     6    2   21 1   
     7    4   16 1   
     8    4   17 1   
     9    4   18 1   
    10    4   19 1   
    11    5    6 2   
    12    5    7 1   
    13    7    8 1   
    14    7   22 1   
    15    7   23 1   
    16    8    9 1   
    17    8   24 1   
    18    8   25 1   
    19    9   10 1   
    20    9   26 1   
    21    9   27 1   
    22   10   11 1   
    23   10   28 1   
    24   10   29 1   
    25   11   12 1   
    26   11   30 1   
    27   11   31 1   
    28   12   32 1   
    29   13   14 1   
    30   13   33 1   
    31   14   15 1   
    32   14   19 1   
    33   14   34 1   
    34   15   35 1   
    35   15   36 1   
    36   15   37 1   
    37   16   38 1   
@<TRIPOS>SUBSTRUCTURE
     1 TXZ         1 TEMP              0 ****  ****    0 ROOT
