@<TRIPOS>MOLECULE
TXZ
   37    36     1     0     0
SMALL
bcc


@<TRIPOS>ATOM
      1 C          -0.9310    2.2000   -1.0290 c         1 TXZ      0.912600
      2 N           0.4850    0.1500   -1.4220 n         1 TXZ     -0.472900
      3 O          -0.0060    2.8700   -0.4840 o         1 TXZ     -0.881300
      4 P          -0.3870   -2.2130    1.2100 p5        1 TXZ      1.343900
      5 C1          1.0240    0.0180   -2.6540 c         1 TXZ      0.642100
      6 O1          0.4970    0.4020   -3.7380 o         1 TXZ     -0.740100
      7 C2          2.4030   -0.6460   -2.7640 c3        1 TXZ     -0.151400
      8 C3          3.4340   -0.0990   -1.7980 c3        1 TXZ     -0.061400
      9 C4          3.6380   -1.0260   -0.6200 c3        1 TXZ     -0.126400
     10 C5          4.2120   -0.3130    0.5900 c3        1 TXZ     -0.049400
     11 C6          3.8890   -1.0960    1.8340 c3        1 TXZ      0.024700
     12 S6          4.3070   -0.1950    3.3270 sh        1 TXZ     -0.574900
     13 CA         -0.8520    0.6480   -1.1550 c3        1 TXZ     -0.029300
     14 CB         -1.4170   -0.0360    0.1420 c3        1 TXZ      0.220100
     15 CG         -2.8730    0.3900    0.3140 c3        1 TXZ     -0.101100
     16 O1P         0.9950   -1.6590    0.8860 o         1 TXZ     -0.942167
     17 O2P        -0.5690   -3.6680    0.8740 o         1 TXZ     -0.942167
     18 O3P        -0.9290   -1.7650    2.5390 o         1 TXZ     -0.942167
     19 O4P        -1.3460   -1.4170    0.0450 os        1 TXZ     -0.586200
     20 OXT        -1.9680    2.7690   -1.5000 o         1 TXZ     -0.881300
     21 HN          0.9010   -0.3540   -0.6410 hn        1 TXZ      0.378500
     22 H2          2.2640   -1.7480   -2.6080 hc        1 TXZ      0.035700
     23 H2A         2.7550   -0.4920   -3.8180 hc        1 TXZ      0.035700
     24 H3          4.4100    0.0440   -2.3380 hc        1 TXZ      0.021700
     25 H3A         3.1120    0.9140   -1.4360 hc        1 TXZ      0.021700
     26 H4          2.6350   -1.4770   -0.3180 hc        1 TXZ      0.084700
     27 H4A         4.3130   -1.8710   -0.9150 hc        1 TXZ      0.084700
     28 H5          5.3200   -0.1740    0.4800 hc        1 TXZ      0.019200
     29 H5A         3.7510    0.7080    0.6720 hc        1 TXZ      0.019200
     30 H6          2.7760   -1.3500    1.8250 h1        1 TXZ      0.122700
     31 H6A         4.4760   -2.0400    1.8870 h1        1 TXZ      0.122700
     32 HS6         3.1110    0.3290    3.5880 hs        1 TXZ      0.261800
     33 HA         -1.5170    0.3580   -2.0200 h1        1 TXZ      0.042700
     34 HB         -0.8150    0.3210    1.0280 h1        1 TXZ      0.041700
     35 HG         -3.4980   -0.0500   -0.4990 hc        1 TXZ      0.015367
     36 HGA        -3.2530    0.0160    1.2940 hc        1 TXZ      0.015367
     37 HGB        -2.9580    1.5010    0.2740 hc        1 TXZ      0.015367
@<TRIPOS>BOND
     1    1    3 1   
     2    1   13 1   
     3    1   20 1   
     4    2    5 1   
     5    2   13 1   
     6    2   21 1   
     7    4   16 1   
     8    4   17 1   
     9    4   18 1   
    10    4   19 1   
    11    5    6 2   
    12    5    7 1   
    13    7    8 1   
    14    7   22 1   
    15    7   23 1   
    16    8    9 1   
    17    8   24 1   
    18    8   25 1   
    19    9   10 1   
    20    9   26 1   
    21    9   27 1   
    22   10   11 1   
    23   10   28 1   
    24   10   29 1   
    25   11   12 1   
    26   11   30 1   
    27   11   31 1   
    28   12   32 1   
    29   13   14 1   
    30   13   33 1   
    31   14   15 1   
    32   14   19 1   
    33   14   34 1   
    34   15   35 1   
    35   15   36 1   
    36   15   37 1   
@<TRIPOS>SUBSTRUCTURE
     1 TXZ         1 TEMP              0 ****  ****    0 ROOT
