@<TRIPOS>MOLECULE
TY0
   39    39     1     0     0
SMALL
bcc


@<TRIPOS>ATOM
      1 N          -2.7840    1.9570    0.5550 n3        1 TY0     -0.888800
      2 O          -5.1310    0.3510    0.8860 o         1 TY0     -0.534100
      3 O2          3.4120    0.1860   -1.0180 os        1 TY0     -0.350900
      4 O3         -5.6350   -1.8970   -0.6000 oh        1 TY0     -0.586800
      5 C1         -1.9170   -0.3590    0.8180 c3        1 TY0     -0.022100
      6 C2         -2.8590    0.6000    0.0590 c3        1 TY0      0.081500
      7 C          -4.2600   -0.0130    0.0900 c         1 TY0      0.487100
      8 C4         -4.5440   -1.0730   -0.9450 c3        1 TY0      0.032400
      9 C5         -0.5080   -0.2240    0.3590 ca        1 TY0     -0.095300
     10 C6          2.1450    0.0020   -0.4870 ca        1 TY0      0.103100
     11 C7          4.3530   -1.8960   -0.1570 c3        1 TY0     -0.109100
     12 C8          4.5040   -0.3860   -0.2570 c3        1 TY0      0.156800
     13 C9          0.0520   -1.1970   -0.4790 ca        1 TY0     -0.108500
     14 C10         0.2730    0.8620    0.7710 ca        1 TY0     -0.108500
     15 C11         1.3740   -1.0930   -0.9020 ca        1 TY0     -0.146000
     16 C12         1.5960    0.9810    0.3540 ca        1 TY0     -0.146000
     17 C13         5.7400   -0.0260   -1.0760 c3        1 TY0     -0.109100
     18 C14         4.5800    0.2410    1.1250 c3        1 TY0     -0.109100
     19 H          -3.3980    2.5510    0.0330 hn        1 TY0      0.358300
     20 H1         -6.3170   -1.3350   -0.2060 ho        1 TY0      0.420000
     21 H3         -1.9760   -0.1620    1.9220 hc        1 TY0      0.058200
     22 H4         -2.2710   -1.4120    0.6490 hc        1 TY0      0.058200
     23 H5         -2.5340    0.6260   -1.0260 h1        1 TY0      0.083700
     24 H6         -3.6700   -1.7710   -1.0580 h1        1 TY0      0.070200
     25 H7         -4.7440   -0.5650   -1.9290 h1        1 TY0      0.070200
     26 H8          5.2400   -2.3310    0.3600 hc        1 TY0      0.046144
     27 H9          3.4330   -2.1570    0.4190 hc        1 TY0      0.046144
     28 H10         4.2710   -2.3410   -1.1780 hc        1 TY0      0.046144
     29 H11        -0.5550   -2.0550   -0.8060 ha        1 TY0      0.137000
     30 H12        -0.1670    1.6340    1.4210 ha        1 TY0      0.137000
     31 H13         1.8170   -1.8510   -1.5640 ha        1 TY0      0.143500
     32 H14         2.2110    1.8360    0.6670 ha        1 TY0      0.143500
     33 H15         5.8270    1.0820   -1.1700 hc        1 TY0      0.046144
     34 H16         6.6470   -0.4280   -0.5680 hc        1 TY0      0.046144
     35 H17         5.6630   -0.4650   -2.0990 hc        1 TY0      0.046144
     36 H18         3.6630   -0.0030    1.7140 hc        1 TY0      0.046144
     37 H19         5.4740   -0.1470    1.6680 hc        1 TY0      0.046144
     38 H20         4.6610    1.3510    1.0380 hc        1 TY0      0.046144
     39 H2         -3.0420    1.9940    1.5230 hn        1 TY0      0.358300
@<TRIPOS>BOND
     1    1    6 1   
     2    1   19 1   
     3    1   39 1   
     4    2    7 2   
     5    3   10 1   
     6    3   12 1   
     7    4    8 1   
     8    4   20 1   
     9    5    6 1   
    10    5    9 1   
    11    5   21 1   
    12    5   22 1   
    13    6    7 1   
    14    6   23 1   
    15    7    8 1   
    16    8   24 1   
    17    8   25 1   
    18    9   13 ar  
    19    9   14 ar  
    20   10   15 ar  
    21   10   16 ar  
    22   11   12 1   
    23   11   26 1   
    24   11   27 1   
    25   11   28 1   
    26   12   17 1   
    27   12   18 1   
    28   13   15 ar  
    29   13   29 1   
    30   14   16 ar  
    31   14   30 1   
    32   15   31 1   
    33   16   32 1   
    34   17   33 1   
    35   17   34 1   
    36   17   35 1   
    37   18   36 1   
    38   18   37 1   
    39   18   38 1   
@<TRIPOS>SUBSTRUCTURE
     1 TY0         1 TEMP              0 ****  ****    0 ROOT
