@<TRIPOS>MOLECULE
TY2
   25    25     1     0     0
SMALL
bcc


@<TRIPOS>ATOM
      1 N           1.3760   28.3630   41.7060 n3        1 TY2     -0.890800
      2 CA          2.1550   29.3840   41.0130 c3        1 TY2      0.023500
      3 C           1.9890   29.3170   39.4570 c         1 TY2      0.883600
      4 O           1.8530   28.1790   38.9280 o         1 TY2     -0.842300
      5 CB          3.6520   29.2880   41.3560 c3        1 TY2     -0.021100
      6 CG          4.2870   30.6120   41.6080 ca        1 TY2     -0.049300
      7 CD1         5.1900   30.7660   42.6680 ca        1 TY2     -0.148000
      8 CD2         4.0210   31.6940   40.7660 ca        1 TY2     -0.150000
      9 CE1         5.8160   31.9880   42.8910 ca        1 TY2     -0.145000
     10 CE2         4.6460   32.9400   40.9630 ca        1 TY2      0.036600
     11 CZ          5.5490   33.0710   42.0480 ca        1 TY2      0.055100
     12 OH          6.2550   34.2400   42.2840 oh        1 TY2     -0.529100
     13 NE2         4.3300   34.0620   40.1590 nh        1 TY2     -0.804200
     14 OXT         1.9840   30.4070   38.8150 o         1 TY2     -0.842300
     15 HN1         0.4170   28.4730   41.4270 hn        1 TY2      0.331800
     16 HA2         1.6700   27.4630   41.3630 hn        1 TY2      0.331800
     17 HB          1.7650   30.3850   41.3570 h1        1 TY2      0.049700
     18 HA1         3.8100   28.6310   42.2540 hc        1 TY2      0.047200
     19 HB2         4.1810   28.7980   40.4920 hc        1 TY2      0.047200
     20 HA          5.4030   29.9180   43.3340 ha        1 TY2      0.122000
     21 HC          3.3000   31.5460   39.9300 ha        1 TY2      0.214000
     22 HD          6.5260   32.1170   43.7190 ha        1 TY2      0.127000
     23 HE21        5.1570   34.4410   39.7400 hn        1 TY2      0.369300
     24 HE22        3.6590   33.8250   39.4550 hn        1 TY2      0.369300
     25 HH          5.6280   34.9710   42.1830 ho        1 TY2      0.413000
@<TRIPOS>BOND
     1    1    2 1   
     2    1   15 1   
     3    1   16 1   
     4    2    3 1   
     5    2    5 1   
     6    2   17 1   
     7    3    4 1   
     8    3   14 1   
     9    5    6 1   
    10    5   18 1   
    11    5   19 1   
    12    6    7 ar  
    13    6    8 ar  
    14    7    9 ar  
    15    7   20 1   
    16    8   10 ar  
    17    8   21 1   
    18    9   11 ar  
    19    9   22 1   
    20   10   11 ar  
    21   10   13 1   
    22   11   12 1   
    23   12   25 1   
    24   13   23 1   
    25   13   24 1   
@<TRIPOS>SUBSTRUCTURE
     1 TY2         1 TEMP              0 ****  ****    0 ROOT
