@<TRIPOS>MOLECULE
TY3
   24    24     1     0     0
SMALL
bcc


@<TRIPOS>ATOM
      1 N          14.6110   32.9150   48.2460 n3        1 TY3     -0.890800
      2 CA         13.7410   32.4270   49.3110 c3        1 TY3      0.024500
      3 C          14.3080   32.7310   50.7380 c         1 TY3      0.884600
      4 O          13.4850   33.0420   51.6470 o         1 TY3     -0.842300
      5 CB         13.4880   30.9140   49.1870 c3        1 TY3     -0.021100
      6 CG         12.0700   30.5370   49.4460 ca        1 TY3     -0.050300
      7 CD1        11.4080   29.6370   48.6020 ca        1 TY3     -0.145000
      8 CD2        11.3970   31.0620   50.5550 ca        1 TY3     -0.166000
      9 CE1        10.0920   29.2520   48.8490 ca        1 TY3     -0.150000
     10 CE2        10.0780   30.6820   50.8080 ca        1 TY3      0.036100
     11 CZ          9.4160   29.7730   49.9580 ca        1 TY3      0.076100
     12 OH          8.1140   29.3650   50.1680 oh        1 TY3     -0.517100
     13 OE2         9.3550   31.1630   51.8850 oh        1 TY3     -0.541100
     14 OXT        15.5580   32.6690   50.9010 o         1 TY3     -0.842300
     15 HN1        14.7460   33.9000   48.3920 hn        1 TY3      0.332300
     16 HN2        15.5140   32.4840   48.3600 hn        1 TY3      0.332300
     17 HA         12.7580   32.9700   49.2090 h1        1 TY3      0.049700
     18 HBC1       13.7830   30.5440   48.1680 hc        1 TY3      0.047700
     19 HBC2       14.1420   30.3840   49.9330 hc        1 TY3      0.047700
     20 HD1        11.9310   29.2270   47.7260 ha        1 TY3      0.124000
     21 HD2        11.9210   31.7850   51.2180 ha        1 TY3      0.218000
     22 HE1         9.5730   28.5470   48.1870 ha        1 TY3      0.130000
     23 HE2         9.9280   31.7890   52.3540 ho        1 TY3      0.439000
     24 HH          7.7930   29.8270   50.9560 ho        1 TY3      0.425000
@<TRIPOS>BOND
     1    1    2 1   
     2    1   15 1   
     3    1   16 1   
     4    2    3 1   
     5    2    5 1   
     6    2   17 1   
     7    3    4 1   
     8    3   14 1   
     9    5    6 1   
    10    5   18 1   
    11    5   19 1   
    12    6    7 ar  
    13    6    8 ar  
    14    7    9 ar  
    15    7   20 1   
    16    8   10 ar  
    17    8   21 1   
    18    9   11 ar  
    19    9   22 1   
    20   10   11 ar  
    21   10   13 1   
    22   11   12 1   
    23   12   24 1   
    24   13   23 1   
@<TRIPOS>SUBSTRUCTURE
     1 TY3         1 TEMP              0 ****  ****    0 ROOT
