@<TRIPOS>MOLECULE
TY4
   46    48     1     0     0
SMALL
bcc


@<TRIPOS>ATOM
      1 C1         -0.1350   -0.1550   -0.1680 ca        1 TY4      0.141100
      2 C2          1.2720   -0.0900   -0.1100 ca        1 TY4     -0.051300
      3 C3          1.8840    0.0570    1.1390 ca        1 TY4     -0.063000
      4 C4          1.1210    0.1400    2.3080 ca        1 TY4     -0.022900
      5 C5         -0.2710    0.0700    2.2350 ca        1 TY4     -0.093000
      6 C6         -0.9100   -0.0860    1.0000 ca        1 TY4     -0.169300
      7 C7         -2.3990   -0.1590    0.9660 c3        1 TY4      0.180100
      8 N8         -2.8710   -1.5130    1.3990 n4        1 TY4     -0.682800
      9 C9         -4.3670   -1.7100    1.2380 c         1 TY4      0.583700
     10 O10        -5.0490   -0.7020    1.1650 o         1 TY4     -0.397100
     11 C11        -4.7650   -3.1240    1.1790 ca        1 TY4     -0.211600
     12 C12        -4.2720   -3.9300    0.1410 ca        1 TY4     -0.084000
     13 C13        -4.6980   -5.2500    0.0290 ca        1 TY4     -0.121000
     14 C14        -5.6070   -5.7740    0.9520 ca        1 TY4     -0.057000
     15 C15        -6.0910   -4.9830    1.9920 ca        1 TY4     -0.119000
     16 C16        -5.6730   -3.6530    2.1130 ca        1 TY4      0.069400
     17 CL17       -6.2500   -2.7120    3.3950 cl        1 TY4     -0.036400
     18 C18         2.0900   -0.1470   -1.3420 c3        1 TY4     -0.062800
     19 BR19        1.9580    0.3450    3.9650 br        1 TY4     -0.024100
     20 O20        -0.7030   -0.1350   -1.4410 os        1 TY4     -0.363200
     21 C21        -1.3470   -1.2520   -1.9410 c         1 TY4      0.700700
     22 O22        -1.7060   -2.1080   -1.1270 o         1 TY4     -0.596000
     23 C23        -1.5730   -1.1690   -3.3880 ca        1 TY4     -0.163600
     24 C24        -1.7410    0.0970   -3.9730 ca        1 TY4     -0.051000
     25 C25        -1.9880    0.2250   -5.3340 ca        1 TY4     -0.135000
     26 C26        -2.0590   -0.9230   -6.1340 ca        1 TY4      0.069400
     27 C27        -1.8740   -2.1900   -5.5720 ca        1 TY4     -0.136000
     28 C28        -1.6280   -2.3160   -4.2000 ca        1 TY4      0.079400
     29 CL29       -1.3770   -3.8720   -3.5800 cl        1 TY4     -0.046400
     30 CL30       -2.3620   -0.7790   -7.7890 cl        1 TY4     -0.028400
     31 H3          2.9860    0.1110    1.1900 ha        1 TY4      0.175000
     32 H5         -0.8780    0.1570    3.1520 ha        1 TY4      0.151000
     33 H7         -2.7850    0.0180   -0.0800 hx        1 TY4      0.115200
     34 H7A        -2.8610    0.6090    1.6520 hx        1 TY4      0.115200
     35 HN8        -2.3800   -2.2320    0.8390 hn        1 TY4      0.470300
     36 H12        -3.5660   -3.5200   -0.6030 ha        1 TY4      0.167000
     37 H13        -4.3190   -5.8800   -0.7910 ha        1 TY4      0.167000
     38 H14        -5.9470   -6.8200    0.8580 ha        1 TY4      0.169000
     39 H15        -6.8080   -5.4010    2.7200 ha        1 TY4      0.178000
     40 H18         1.6550   -0.8750   -2.0710 hc        1 TY4      0.066700
     41 H18A        3.1410   -0.4500   -1.1160 hc        1 TY4      0.066700
     42 H18B        2.1070    0.8620   -1.8300 hc        1 TY4      0.066700
     43 H24        -1.6710    1.0000   -3.3420 ha        1 TY4      0.163000
     44 H25        -2.1240    1.2240   -5.7790 ha        1 TY4      0.173000
     45 H27        -1.9160   -3.0910   -6.2080 ha        1 TY4      0.181000
     46 H82        -2.6250   -1.6600    2.3830 hn        1 TY4      0.470300
@<TRIPOS>BOND
     1    1    2 ar  
     2    1    6 ar  
     3    1   20 1   
     4    2    3 ar  
     5    2   18 1   
     6    3    4 ar  
     7    3   31 1   
     8    4    5 ar  
     9    4   19 1   
    10    5    6 ar  
    11    5   32 1   
    12    6    7 1   
    13    7    8 1   
    14    7   33 1   
    15    7   34 1   
    16    8    9 1   
    17    8   35 1   
    18    8   46 1   
    19    9   10 2   
    20    9   11 1   
    21   11   12 ar  
    22   11   16 ar  
    23   12   13 ar  
    24   12   36 1   
    25   13   14 ar  
    26   13   37 1   
    27   14   15 ar  
    28   14   38 1   
    29   15   16 ar  
    30   15   39 1   
    31   16   17 1   
    32   18   40 1   
    33   18   41 1   
    34   18   42 1   
    35   20   21 1   
    36   21   22 2   
    37   21   23 1   
    38   23   24 ar  
    39   23   28 ar  
    40   24   25 ar  
    41   24   43 1   
    42   25   26 ar  
    43   25   44 1   
    44   26   27 ar  
    45   26   30 1   
    46   27   28 ar  
    47   27   45 1   
    48   28   29 1   
@<TRIPOS>SUBSTRUCTURE
     1 TY4         1 TEMP              0 ****  ****    0 ROOT
