@<TRIPOS>MOLECULE
TY4
   46    48     1     0     0
SMALL
bcc


@<TRIPOS>ATOM
      1 C1         -0.1380   -0.1540   -0.1610 ca        1 TY4      0.141100
      2 C2          1.2690   -0.0880   -0.0960 ca        1 TY4     -0.051300
      3 C3          1.8750    0.0590    1.1560 ca        1 TY4     -0.063000
      4 C4          1.1070    0.1420    2.3210 ca        1 TY4     -0.022900
      5 C5         -0.2850    0.0720    2.2420 ca        1 TY4     -0.093000
      6 C6         -0.9180   -0.0850    1.0040 ca        1 TY4     -0.169300
      7 C7         -2.4060   -0.1580    0.9630 c3        1 TY4      0.180100
      8 N8         -2.8800   -1.5130    1.3950 n4        1 TY4     -0.682800
      9 C9         -4.3750   -1.7100    1.2270 c         1 TY4      0.583700
     10 O10        -5.0570   -0.7030    1.1510 o         1 TY4     -0.397100
     11 C11        -4.7720   -3.1240    1.1670 ca        1 TY4     -0.211600
     12 C12        -4.2740   -3.9310    0.1310 ca        1 TY4     -0.084000
     13 C13        -4.6990   -5.2520    0.0190 ca        1 TY4     -0.121000
     14 C14        -5.6120   -5.7750    0.9370 ca        1 TY4     -0.057000
     15 C15        -6.1010   -4.9840    1.9750 ca        1 TY4     -0.119000
     16 C16        -5.6840   -3.6540    2.0980 ca        1 TY4      0.069400
     17 CL17       -6.2670   -2.7130    3.3760 cl        1 TY4     -0.036400
     18 C18         2.0920   -0.1450   -1.3250 c3        1 TY4     -0.062800
     19 BR19        1.9360    0.3480    3.9810 br        1 TY4     -0.024100
     20 O20        -0.7000   -0.1340   -1.4360 os        1 TY4     -0.363200
     21 C21        -1.3420   -1.2520   -1.9380 c         1 TY4      0.700700
     22 O22        -1.7030   -2.1090   -1.1250 o         1 TY4     -0.596000
     23 C23        -1.5610   -1.1690   -3.3860 ca        1 TY4     -0.163600
     24 C24        -1.7270    0.0970   -3.9720 ca        1 TY4     -0.051000
     25 C25        -1.9700    0.2240   -5.3340 ca        1 TY4     -0.135000
     26 C26        -2.0360   -0.9250   -6.1340 ca        1 TY4      0.069400
     27 C27        -1.8530   -2.1920   -5.5710 ca        1 TY4     -0.136000
     28 C28        -1.6130   -2.3170   -4.1980 ca        1 TY4      0.079400
     29 CL29       -1.3640   -3.8730   -3.5770 cl        1 TY4     -0.046400
     30 CL30       -2.3320   -0.7820   -7.7910 cl        1 TY4     -0.028400
     31 H3          2.9770    0.1140    1.2120 ha        1 TY4      0.175000
     32 H5         -0.8950    0.1590    3.1560 ha        1 TY4      0.151000
     33 H7         -2.8720    0.6090    1.6480 hx        1 TY4      0.115200
     34 H7A        -2.7890    0.0180   -0.0840 hx        1 TY4      0.115200
     35 HN8        -2.6390   -1.6590    2.3810 hn        1 TY4      0.470300
     36 H12        -3.5640   -3.5210   -0.6100 ha        1 TY4      0.167000
     37 H13        -4.3160   -5.8820   -0.8000 ha        1 TY4      0.167000
     38 H14        -5.9510   -6.8210    0.8420 ha        1 TY4      0.169000
     39 H15        -6.8200   -5.4020    2.7000 ha        1 TY4      0.178000
     40 H18         1.6600   -0.8730   -2.0560 hc        1 TY4      0.066700
     41 H18A        2.1120    0.8640   -1.8130 hc        1 TY4      0.066700
     42 H18B        3.1430   -0.4480   -1.0940 hc        1 TY4      0.066700
     43 H24        -1.6610    0.9990   -3.3410 ha        1 TY4      0.163000
     44 H25        -2.1040    1.2230   -5.7810 ha        1 TY4      0.173000
     45 H27        -1.8920   -3.0920   -6.2070 ha        1 TY4      0.181000
     46 H82        -2.3860   -2.2320    0.8380 hn        1 TY4      0.470300
@<TRIPOS>BOND
     1    1    2 ar  
     2    1    6 ar  
     3    1   20 1   
     4    2    3 ar  
     5    2   18 1   
     6    3    4 ar  
     7    3   31 1   
     8    4    5 ar  
     9    4   19 1   
    10    5    6 ar  
    11    5   32 1   
    12    6    7 1   
    13    7    8 1   
    14    7   33 1   
    15    7   34 1   
    16    8    9 1   
    17    8   35 1   
    18    8   46 1   
    19    9   10 2   
    20    9   11 1   
    21   11   12 ar  
    22   11   16 ar  
    23   12   13 ar  
    24   12   36 1   
    25   13   14 ar  
    26   13   37 1   
    27   14   15 ar  
    28   14   38 1   
    29   15   16 ar  
    30   15   39 1   
    31   16   17 1   
    32   18   40 1   
    33   18   41 1   
    34   18   42 1   
    35   20   21 1   
    36   21   22 2   
    37   21   23 1   
    38   23   24 ar  
    39   23   28 ar  
    40   24   25 ar  
    41   24   43 1   
    42   25   26 ar  
    43   25   44 1   
    44   26   27 ar  
    45   26   30 1   
    46   27   28 ar  
    47   27   45 1   
    48   28   29 1   
@<TRIPOS>SUBSTRUCTURE
     1 TY4         1 TEMP              0 ****  ****    0 ROOT
