@<TRIPOS>MOLECULE
TY4
   45    40     1     0     0
SMALL
bcc


@<TRIPOS>ATOM
      1 C1          1.8030   -1.8720    0.0630 c1        1 TY4      0.084000
      2 C2          3.1910   -1.9090    0.0220 c1        1 TY4     -0.060000
      3 C3          3.9140   -1.9820    1.1960 c1        1 TY4     -0.092000
      4 C4          3.2510   -2.0180    2.4230 c1        1 TY4     -0.166000
      5 C5          1.8670   -1.9820    2.4650 c1        1 TY4     -0.096000
      6 C6          1.1400   -1.9090    1.2950 c1        1 TY4     -0.105000
      7 C7         -0.4100   -1.9170    1.3480 c3        1 TY4      0.007000
      8 N8         -0.8590   -0.8560    2.2090 n         1 TY4     -0.361000
      9 C9         -2.0770   -0.1940    1.9380 c2        1 TY4      0.358000
     10 O10        -3.0060   -0.8110    1.4690 o         1 TY4     -0.371000
     11 C11        -2.1940    1.3840    2.1490 c2        1 TY4     -0.120000
     12 C12        -1.3560    2.2430    1.4570 c2        1 TY4     -0.090000
     13 C13        -1.4450    3.6410    1.6660 c1        1 TY4     -0.132000
     14 C14        -2.3640    4.1450    2.5580 c1        1 TY4     -0.119500
     15 C15        -3.2040    3.2800    3.2520 c1        1 TY4     -0.119500
     16 C16        -3.1150    1.8900    3.0430 c1        1 TY4     -0.031000
     17 CL17       -4.3200    0.8250    3.7500 cl        1 TY4      0.002000
     18 C18         3.9380   -1.8940   -1.3650 c3        1 TY4     -0.184000
     19 BR19        4.2450   -1.9870    4.0360 br        1 TY4      0.061000
     20 O20         1.0610   -1.7890   -1.1480 os        1 TY4     -0.224000
     21 C21         1.0210   -0.4420   -1.7240 c2        1 TY4      0.367000
     22 O22         1.7990    0.4110   -1.3310 o         1 TY4     -0.318000
     23 C23        -0.0160   -0.0920   -2.8170 c2        1 TY4     -0.101000
     24 C24        -0.7590   -1.0820   -3.4010 c2        1 TY4     -0.059000
     25 C25        -1.6600   -0.7730   -4.4130 c1        1 TY4     -0.129000
     26 C26        -1.8080    0.5440   -4.8360 c1        1 TY4     -0.033000
     27 C27        -1.0560    1.5460   -4.2460 c1        1 TY4     -0.134000
     28 C28        -0.1610    1.2350   -3.2390 c1        1 TY4     -0.017000
     29 CL29        0.7590    2.5030   -2.4560 cl        1 TY4      0.010000
     30 CL30       -3.0070    0.9490   -6.0990 cl        1 TY4      0.005000
     31 H3          4.8740   -2.0080    1.1700 ha        1 TY4      0.153000
     32 H5          1.3960   -2.0070    3.3470 ha        1 TY4      0.152000
     33 H7         -0.7330   -2.8080    1.7130 h1        1 TY4      0.115000
     34 H7A        -0.7730   -1.7810    0.4390 h1        1 TY4      0.115000
     35 HN8        -0.4110   -0.6610    2.9240 hn        1 TY4      0.230000
     36 H12        -0.7030    1.8810    0.8190 ha        1 TY4      0.166000
     37 H13        -0.8610    4.2400    1.1840 ha        1 TY4      0.143000
     38 H14        -2.4260    5.1050    2.7030 ha        1 TY4      0.145500
     39 H15        -3.8320    3.6250    3.8610 ha        1 TY4      0.145500
     40 H18         4.7620   -1.3180   -1.2950 hc        1 TY4      0.094667
     41 H18A        4.1920   -2.7950   -1.6030 hc        1 TY4      0.094667
     42 H18B        3.3290   -1.5210   -2.0710 hc        1 TY4      0.094667
     43 H24        -0.6560   -2.0070   -3.1070 ha        1 TY4      0.188000
     44 H25        -2.1760   -1.4630   -4.8180 ha        1 TY4      0.163000
     45 H27        -1.1540    2.4320   -4.5280 ha        1 TY4      0.167000
@<TRIPOS>BOND
     1    1    6 1   
     2    1   20 1   
     3    2    3 1   
     4    2   18 1   
     5    3   31 1   
     6    4    5 1   
     7    4   19 1   
     8    5   32 1   
     9    6    7 1   
    10    7    8 1   
    11    7   33 1   
    12    7   34 1   
    13    8    9 1   
    14    8   35 1   
    15    9   10 1   
    16    9   11 1   
    17   11   12 1   
    18   11   16 1   
    19   12   13 1   
    20   12   36 1   
    21   13   37 1   
    22   14   15 1   
    23   14   38 1   
    24   15   39 1   
    25   16   17 1   
    26   18   40 1   
    27   18   41 1   
    28   18   42 1   
    29   20   21 1   
    30   21   22 1   
    31   21   23 1   
    32   23   24 1   
    33   23   28 1   
    34   24   25 1   
    35   24   43 1   
    36   25   44 1   
    37   26   27 1   
    38   26   30 1   
    39   27   45 1   
    40   28   29 1   
@<TRIPOS>SUBSTRUCTURE
     1 TY4         1 TEMP              0 ****  ****    0 ROOT
