@<TRIPOS>MOLECULE
TY4
   46    48     1     0     0
SMALL
bcc


@<TRIPOS>ATOM
      1 C1         -0.1460   -0.1440   -0.1600 ca        1 TY4      0.141100
      2 C2          1.2600   -0.0720   -0.0900 ca        1 TY4     -0.051300
      3 C3          1.8610    0.0840    1.1630 ca        1 TY4     -0.063000
      4 C4          1.0890    0.1680    2.3250 ca        1 TY4     -0.022900
      5 C5         -0.3020    0.0910    2.2420 ca        1 TY4     -0.093000
      6 C6         -0.9310   -0.0740    1.0020 ca        1 TY4     -0.169300
      7 C7         -2.4180   -0.1540    0.9560 c3        1 TY4      0.180100
      8 N8         -2.8880   -1.5090    1.3910 ny        1 TY4     -0.682800
      9 C9         -4.3810   -1.7140    1.2200 c         1 TY4      0.583700
     10 O10        -5.0670   -0.7090    1.1370 o         1 TY4     -0.397100
     11 C11        -4.7720   -3.1300    1.1630 ca        1 TY4     -0.211600
     12 C12        -4.2670   -3.9380    0.1320 ca        1 TY4     -0.084000
     13 C13        -4.6860   -5.2600    0.0230 ca        1 TY4     -0.121000
     14 C14        -5.5990   -5.7850    0.9400 ca        1 TY4     -0.057000
     15 C15        -6.0950   -4.9920    1.9740 ca        1 TY4     -0.119000
     16 C16        -5.6840   -3.6590    2.0930 ca        1 TY4      0.069400
     17 Cl17       -6.2760   -2.7170    3.3660 cl        1 TY4     -0.036400
     18 C18         2.0880   -0.1300   -1.3160 c3        1 TY4     -0.062800
     19 Br19        1.9110    0.3840    3.9880 br        1 TY4     -0.024100
     20 O20        -0.7030   -0.1320   -1.4370 os        1 TY4     -0.363200
     21 C21        -1.3390   -1.2540   -1.9370 c         1 TY4      0.700700
     22 O22        -1.6990   -2.1090   -1.1220 o         1 TY4     -0.596000
     23 C23        -1.5530   -1.1780   -3.3860 ca        1 TY4     -0.163600
     24 C24        -1.7230    0.0850   -3.9780 ca        1 TY4     -0.051000
     25 C25        -1.9610    0.2060   -5.3410 ca        1 TY4     -0.135000
     26 C26        -2.0190   -0.9460   -6.1370 ca        1 TY4      0.069400
     27 C27        -1.8320   -2.2100   -5.5680 ca        1 TY4     -0.136000
     28 C28        -1.5970   -2.3290   -4.1940 ca        1 TY4      0.079400
     29 Cl29       -1.3430   -3.8820   -3.5660 cl        1 TY4     -0.046400
     30 Cl30       -2.3100   -0.8110   -7.7950 cl        1 TY4     -0.028400
     31 H3          2.9630    0.1430    1.2230 ha        1 TY4      0.175000
     32 H5         -0.9170    0.1790    3.1530 ha        1 TY4      0.151000
     33 H7         -2.8900    0.6140    1.6360 hx        1 TY4      0.115200
     34 H7A        -2.7980    0.0160   -0.0930 hx        1 TY4      0.115200
     35 HN8        -2.6490   -1.6500    2.3780 hn        1 TY4      0.470300
     36 H12        -3.5570   -3.5270   -0.6080 ha        1 TY4      0.167000
     37 H13        -4.2970   -5.8920   -0.7930 ha        1 TY4      0.167000
     38 H14        -5.9330   -6.8330    0.8480 ha        1 TY4      0.169000
     39 H15        -6.8150   -5.4110    2.6980 ha        1 TY4      0.178000
     40 H18         1.6630   -0.8650   -2.0450 hc        1 TY4      0.066700
     41 H18A        2.1030    0.8760   -1.8090 hc        1 TY4      0.066700
     42 H18B        3.1400   -0.4260   -1.0800 hc        1 TY4      0.066700
     43 H24        -1.6630    0.9900   -3.3500 ha        1 TY4      0.163000
     44 H25        -2.0980    1.2020   -5.7920 ha        1 TY4      0.173000
     45 H27        -1.8660   -3.1140   -6.2010 ha        1 TY4      0.181000
     46 H82        -2.3890   -2.2280    0.8390 hn        1 TY4      0.470300
@<TRIPOS>BOND
     1    1    2 ar  
     2    1    6 ar  
     3    1   20 1   
     4    2    3 ar  
     5    2   18 1   
     6    3    4 ar  
     7    3   31 1   
     8    4    5 ar  
     9    4   19 1   
    10    5    6 ar  
    11    5   32 1   
    12    6    7 1   
    13    7    8 1   
    14    7   33 1   
    15    7   34 1   
    16    8    9 1   
    17    8   35 1   
    18    8   46 1   
    19    9   10 2   
    20    9   11 1   
    21   11   12 ar  
    22   11   16 ar  
    23   12   13 ar  
    24   12   36 1   
    25   13   14 ar  
    26   13   37 1   
    27   14   15 ar  
    28   14   38 1   
    29   15   16 ar  
    30   15   39 1   
    31   16   17 1   
    32   18   40 1   
    33   18   41 1   
    34   18   42 1   
    35   20   21 1   
    36   21   22 2   
    37   21   23 1   
    38   23   24 ar  
    39   23   28 ar  
    40   24   25 ar  
    41   24   43 1   
    42   25   26 ar  
    43   25   44 1   
    44   26   27 ar  
    45   26   30 1   
    46   27   28 ar  
    47   27   45 1   
    48   28   29 1   
@<TRIPOS>SUBSTRUCTURE
     1 TY4         1 TEMP              0 ****  ****    0 ROOT
