@<TRIPOS>MOLECULE
TY4
   45    47     1     0     0
SMALL
bcc


@<TRIPOS>ATOM
      1 C1          1.6760    1.2200    0.3870 ca        1 TY4      0.129100
      2 C2          2.6130    1.9680   -0.3510 ca        1 TY4     -0.067300
      3 C3          3.9170    1.4770   -0.4680 ca        1 TY4     -0.092000
      4 C4          4.2780    0.2710    0.1360 ca        1 TY4     -0.025900
      5 C5          3.3370   -0.4620    0.8620 ca        1 TY4     -0.096000
      6 C6          2.0270    0.0050    0.9940 ca        1 TY4     -0.112300
      7 C7          1.0370   -0.8010    1.7900 c3        1 TY4      0.130300
      8 N8          0.4210   -1.8530    1.0260 n         1 TY4     -0.551900
      9 C9         -0.9480   -1.9300    0.8550 c         1 TY4      0.684700
     10 O10        -1.7330   -1.2400    1.5340 o         1 TY4     -0.610100
     11 C11        -1.4290   -2.8870   -0.1880 ca        1 TY4     -0.140600
     12 C12        -1.5990   -2.4100   -1.4920 ca        1 TY4     -0.090000
     13 C13        -2.0830   -3.2600   -2.4850 ca        1 TY4     -0.132000
     14 C14        -2.3960   -4.5850   -2.1800 ca        1 TY4     -0.107000
     15 C15        -2.2240   -5.0690   -0.8840 ca        1 TY4     -0.132000
     16 C16        -1.7360   -4.2180    0.1150 ca        1 TY4      0.047400
     17 CL17       -1.5230   -4.8220    1.6880 cl        1 TY4     -0.076400
     18 C18         2.2310    3.2500   -0.9840 c3        1 TY4     -0.058800
     19 BR19        6.0300   -0.3680   -0.0320 br        1 TY4     -0.079100
     20 O20         0.4150    1.7660    0.6310 os        1 TY4     -0.359200
     21 C21        -0.5840    1.5950   -0.3090 c         1 TY4      0.666700
     22 O22        -0.3630    0.8920   -1.2910 o         1 TY4     -0.507000
     23 C23        -1.8230    2.2960    0.0810 ca        1 TY4     -0.121600
     24 C24        -2.5520    1.8220    1.1770 ca        1 TY4     -0.059000
     25 C25        -3.7420    2.4410    1.5510 ca        1 TY4     -0.129000
     26 C26        -4.2010    3.5470    0.8270 ca        1 TY4      0.045400
     27 C27        -3.4800    4.0360   -0.2670 ca        1 TY4     -0.134000
     28 C28        -2.2880    3.4080   -0.6380 ca        1 TY4      0.061400
     29 CL29       -1.4220    4.0180   -1.9640 cl        1 TY4     -0.068400
     30 CL30       -5.6490    4.3090    1.2770 cl        1 TY4     -0.073400
     31 H3          4.6570    2.0560   -1.0440 ha        1 TY4      0.153000
     32 H5          3.6190   -1.4130    1.3420 ha        1 TY4      0.152000
     33 H7          1.5750   -1.2700    2.6660 h1        1 TY4      0.075700
     34 H7A         0.2350   -0.1180    2.2000 h1        1 TY4      0.075700
     35 HN8         1.0060   -2.3570    0.4000 hn        1 TY4      0.316500
     36 H12        -1.3510   -1.3600   -1.7260 ha        1 TY4      0.166000
     37 H13        -2.2190   -2.8820   -3.5090 ha        1 TY4      0.143000
     38 H14        -2.7810   -5.2550   -2.9640 ha        1 TY4      0.140000
     39 H15        -2.4710   -6.1140   -0.6460 ha        1 TY4      0.151000
     40 H18         2.1150    4.0420   -0.2010 hc        1 TY4      0.055367
     41 H18A        3.0010    3.5850   -1.7200 hc        1 TY4      0.055367
     42 H18B        1.2500    3.1390   -1.5150 hc        1 TY4      0.055367
     43 H24        -2.1850    0.9410    1.7380 ha        1 TY4      0.188000
     44 H25        -4.3140    2.0570    2.4090 ha        1 TY4      0.163000
     45 H27        -3.8460    4.9080   -0.8320 ha        1 TY4      0.167000
@<TRIPOS>BOND
     1    1    2 ar  
     2    1    6 ar  
     3    1   20 1   
     4    2    3 ar  
     5    2   18 1   
     6    3    4 ar  
     7    3   31 1   
     8    4    5 ar  
     9    4   19 1   
    10    5    6 ar  
    11    5   32 1   
    12    6    7 1   
    13    7    8 1   
    14    7   33 1   
    15    7   34 1   
    16    8    9 1   
    17    8   35 1   
    18    9   10 2   
    19    9   11 1   
    20   11   12 ar  
    21   11   16 ar  
    22   12   13 ar  
    23   12   36 1   
    24   13   14 ar  
    25   13   37 1   
    26   14   15 ar  
    27   14   38 1   
    28   15   16 ar  
    29   15   39 1   
    30   16   17 1   
    31   18   40 1   
    32   18   41 1   
    33   18   42 1   
    34   20   21 1   
    35   21   22 2   
    36   21   23 1   
    37   23   24 ar  
    38   23   28 ar  
    39   24   25 ar  
    40   24   43 1   
    41   25   26 ar  
    42   25   44 1   
    43   26   27 ar  
    44   26   30 1   
    45   27   28 ar  
    46   27   45 1   
    47   28   29 1   
@<TRIPOS>SUBSTRUCTURE
     1 TY4         1 TEMP              0 ****  ****    0 ROOT
