@<TRIPOS>MOLECULE
TY5
   36    37     1     0     0
SMALL
bcc


@<TRIPOS>ATOM
      1 O          -6.5730   -0.7880    0.6370 o         1 TY5     -0.840800
      2 C          -5.6960    0.1210    0.5850 c         1 TY5      0.887600
      3 CA         -4.1950   -0.3160    0.4690 c3        1 TY5      0.020500
      4 N          -3.9960   -1.7550    0.3550 n3        1 TY5     -0.889800
      5 CB         -3.5620    0.4700   -0.6860 c3        1 TY5     -0.033100
      6 CG         -2.0750    0.4690   -0.6460 ca        1 TY5     -0.056300
      7 CD2        -1.3810    1.5790   -0.1440 ca        1 TY5     -0.101500
      8 CE2         0.0100    1.5970   -0.1050 ca        1 TY5     -0.175000
      9 CZ          0.7200    0.4870   -0.5860 ca        1 TY5      0.081100
     10 CE1         0.0460   -0.6310   -1.0900 ca        1 TY5     -0.175000
     11 CD1        -1.3470   -0.6320   -1.1140 ca        1 TY5     -0.101500
     12 OH          2.1060    0.6100   -0.5770 os        1 TY5     -0.344900
     13 C49         2.8070   -0.6330   -0.4710 c3        1 TY5      0.173700
     14 C50         4.2130   -0.3590   -0.0460 ca        1 TY5     -0.080300
     15 C51         4.7560    0.9290   -0.0670 ca        1 TY5     -0.117000
     16 C52         6.0800    1.1360    0.3200 ca        1 TY5     -0.135000
     17 C53         6.8690    0.0600    0.7260 ca        1 TY5     -0.137000
     18 C54         6.3300   -1.2260    0.7490 ca        1 TY5     -0.135000
     19 C55         5.0070   -1.4370    0.3660 ca        1 TY5     -0.117000
     20 H32        -3.6960    0.0080    1.4280 h1        1 TY5      0.046700
     21 H          -4.5300   -2.1860    1.0920 hn        1 TY5      0.330800
     22 H41        -3.9090    0.0500   -1.6680 hc        1 TY5      0.059700
     23 H41A       -3.9530    1.5230   -0.6120 hc        1 TY5      0.059700
     24 H43        -1.9480    2.4430    0.2360 ha        1 TY5      0.142000
     25 H44         0.5560    2.4630    0.2900 ha        1 TY5      0.126000
     26 H46         0.6020   -1.5030   -1.4610 ha        1 TY5      0.126000
     27 H47        -1.8870   -1.5150   -1.4880 ha        1 TY5      0.142000
     28 H49         2.2960   -1.3040    0.2710 h1        1 TY5      0.048200
     29 H49A        2.8080   -1.1290   -1.4810 h1        1 TY5      0.048200
     30 H51         4.1280    1.7770   -0.3850 ha        1 TY5      0.142500
     31 H52         6.5010    2.1510    0.3040 ha        1 TY5      0.125500
     32 H53         7.9120    0.2250    1.0300 ha        1 TY5      0.123000
     33 H54         6.9480   -2.0760    1.0720 ha        1 TY5      0.125500
     34 H55         4.5810   -2.4510    0.3900 ha        1 TY5      0.142500
     35 OXT        -5.9390    1.3570    0.6400 o         1 TY5     -0.840800
     36 H2         -4.4150   -2.0620   -0.5060 hn        1 TY5      0.330800
@<TRIPOS>BOND
     1    1    2 1   
     2    2    3 1   
     3    2   35 1   
     4    3    4 1   
     5    3    5 1   
     6    3   20 1   
     7    4   21 1   
     8    4   36 1   
     9    5    6 1   
    10    5   22 1   
    11    5   23 1   
    12    6    7 ar  
    13    6   11 ar  
    14    7    8 ar  
    15    7   24 1   
    16    8    9 ar  
    17    8   25 1   
    18    9   10 ar  
    19    9   12 1   
    20   10   11 ar  
    21   10   26 1   
    22   11   27 1   
    23   12   13 1   
    24   13   14 1   
    25   13   28 1   
    26   13   29 1   
    27   14   15 ar  
    28   14   19 ar  
    29   15   16 ar  
    30   15   30 1   
    31   16   17 ar  
    32   16   31 1   
    33   17   18 ar  
    34   17   32 1   
    35   18   19 ar  
    36   18   33 1   
    37   19   34 1   
@<TRIPOS>SUBSTRUCTURE
     1 TY5         1 TEMP              0 ****  ****    0 ROOT
