@<TRIPOS>MOLECULE
TY8
   27    27     1     0     0
SMALL
bcc


@<TRIPOS>ATOM
      1 C           3.6900   -0.3460    0.2160 c         1 TY8      0.883600
      2 N           1.9170   -0.1790   -1.5560 n3        1 TY8     -0.894800
      3 C1         -0.0320    0.2710    0.4280 ca        1 TY8      0.008700
      4 C2         -0.6070   -0.9620    0.0530 ca        1 TY8      0.055100
      5 O2          0.1060   -2.1660   -0.1200 os        1 TY8     -0.132100
      6 C3         -1.9620   -1.0660   -0.2810 ca        1 TY8     -0.099000
      7 C4         -2.7480    0.0870   -0.2690 ca        1 TY8     -0.072900
      8 O4         -4.0810    0.0090   -0.7240 os        1 TY8     -0.133100
      9 C5         -2.2000    1.3260    0.0990 ca        1 TY8      0.129100
     10 O5         -2.9470    2.4780    0.1540 oh        1 TY8     -0.502100
     11 C6         -0.8450    1.4090    0.4500 ca        1 TY8     -0.156000
     12 CA          2.4160    0.3910   -0.3140 c3        1 TY8      0.028500
     13 CB          1.3930    0.4020    0.8340 c3        1 TY8     -0.043100
     14 O2A         0.8730   -2.4900    0.8650 oh        1 TY8     -0.444000
     15 O4A        -4.9490    0.1920    0.2240 oh        1 TY8     -0.416000
     16 O           3.6040   -1.6020    0.3810 o         1 TY8     -0.833300
     17 OXT         4.7240    0.3340    0.4320 o         1 TY8     -0.833300
     18 HN          2.6680   -0.1730   -2.2220 hn        1 TY8      0.337800
     19 HNA         1.6680   -1.1410   -1.3980 hn        1 TY8      0.337800
     20 H3         -2.3890   -2.0340   -0.5750 ha        1 TY8      0.149000
     21 H4         -3.8400    2.2600   -0.1570 ho        1 TY8      0.430000
     22 H6         -0.4250    2.3860    0.7290 ha        1 TY8      0.152000
     23 HA          2.6990    1.4600   -0.5400 h1        1 TY8      0.052700
     24 HB          1.5350    1.3650    1.3950 hc        1 TY8      0.060200
     25 HBA         1.6400   -0.4290    1.5510 hc        1 TY8      0.060200
     26 HO2A        1.8150   -2.2590    0.6130 ho        1 TY8      0.477000
     27 HO4A       -5.0860   -0.6650    0.6850 ho        1 TY8      0.398000
@<TRIPOS>BOND
     1    1   12 1   
     2    1   16 1   
     3    1   17 1   
     4    2   12 1   
     5    2   18 1   
     6    2   19 1   
     7    3    4 ar  
     8    3   11 ar  
     9    3   13 1   
    10    4    5 1   
    11    4    6 ar  
    12    5   14 1   
    13    6    7 ar  
    14    6   20 1   
    15    7    8 1   
    16    7    9 ar  
    17    8   15 1   
    18    9   10 1   
    19    9   11 ar  
    20   10   21 1   
    21   11   22 1   
    22   12   13 1   
    23   12   23 1   
    24   13   24 1   
    25   13   25 1   
    26   14   26 1   
    27   15   27 1   
@<TRIPOS>SUBSTRUCTURE
     1 TY8         1 TEMP              0 ****  ****    0 ROOT
