@<TRIPOS>MOLECULE
TY9
   27    27     1     0     0
SMALL
bcc


@<TRIPOS>ATOM
      1 C           3.9290   -0.8000    0.1320 c         1 TY9      0.887600
      2 N           2.7840    1.0740    1.4220 n3        1 TY9     -0.886800
      3 O           5.0070   -0.4020    0.6540 o         1 TY9     -0.837800
      4 C1          0.3780    0.4060   -0.5460 ca        1 TY9      0.037700
      5 C2         -0.3580   -0.7460   -0.2150 ca        1 TY9     -0.192000
      6 C3         -1.7370   -0.6610   -0.0680 ca        1 TY9      0.087100
      7 O3         -2.5660   -1.7690    0.2020 os        1 TY9     -0.137100
      8 C4         -2.4080    0.5610   -0.2330 ca        1 TY9     -0.088900
      9 O4         -3.8100    0.6500   -0.1920 os        1 TY9     -0.126100
     10 C5         -1.6640    1.7130   -0.5350 ca        1 TY9      0.163100
     11 O5         -2.2640    2.9370   -0.7060 oh        1 TY9     -0.499100
     12 C6         -0.2730    1.6310   -0.7060 ca        1 TY9     -0.176000
     13 CA          2.6030   -0.0670    0.5350 c3        1 TY9      0.021500
     14 CB          1.8470    0.2890   -0.7520 c3        1 TY9     -0.044100
     15 O3A        -1.9780   -2.7320    0.8290 oh        1 TY9     -0.382000
     16 O4A        -4.3060    0.4250    0.9840 oh        1 TY9     -0.405000
     17 OXT         3.8300   -1.7640   -0.6770 o         1 TY9     -0.837800
     18 HN          3.3910    0.7750    2.1670 hn        1 TY9      0.333300
     19 HNA         3.2850    1.7880    0.9230 hn        1 TY9      0.333300
     20 H2          0.1690   -1.6990   -0.0580 ha        1 TY9      0.162000
     21 H61        -3.1940    2.8440   -0.4420 ho        1 TY9      0.431000
     22 H6          0.2930    2.5430   -0.9440 ha        1 TY9      0.155000
     23 HA          1.9920   -0.8260    1.1060 h1        1 TY9      0.044700
     24 HB          2.0460   -0.5450   -1.4850 hc        1 TY9      0.068200
     25 HBA         2.2530    1.2360   -1.1940 hc        1 TY9      0.068200
     26 HO3A       -1.4880   -3.2770    0.1700 ho        1 TY9      0.406000
     27 HO4A       -4.2880   -0.5470    1.1450 ho        1 TY9      0.412000
@<TRIPOS>BOND
     1    1    3 1   
     2    1   13 1   
     3    1   17 1   
     4    2   13 1   
     5    2   18 1   
     6    2   19 1   
     7    4    5 ar  
     8    4   12 ar  
     9    4   14 1   
    10    5    6 ar  
    11    5   20 1   
    12    6    7 1   
    13    6    8 ar  
    14    7   15 1   
    15    8    9 1   
    16    8   10 ar  
    17    9   16 1   
    18   10   11 1   
    19   10   12 ar  
    20   11   21 1   
    21   12   22 1   
    22   13   14 1   
    23   13   23 1   
    24   14   24 1   
    25   14   25 1   
    26   15   26 1   
    27   16   27 1   
@<TRIPOS>SUBSTRUCTURE
     1 TY9         1 TEMP              0 ****  ****    0 ROOT
