@<TRIPOS>MOLECULE
TYA
   60    63     1     0     0
SMALL
bcc


@<TRIPOS>ATOM
      1 OPP         0.4720    1.3410    0.6950 os        1 TYA     -0.582200
      2 P           1.8250    0.8740   -0.1370 p5        1 TYA      1.484800
      3 O1P         3.0470    1.3760    0.5120 o         1 TYA     -0.834000
      4 O2P         1.4830   -0.5350   -0.4490 o         1 TYA     -0.834000
      5 O5'         1.5980    1.7700   -1.4780 os        1 TYA     -0.567200
      6 C5'         2.1300    3.0620   -1.4930 c3        1 TYA      0.175400
      7 C4'         3.3090    3.1780   -2.4740 c3        1 TYA      0.106100
      8 O4'         4.0410    4.3760   -2.1550 os        1 TYA     -0.405600
      9 C3'         4.2960    2.0000   -2.4120 c3        1 TYA      0.095100
     10 O3'         4.5750    1.5990   -3.7390 oh        1 TYA     -0.587800
     11 C2'         5.5780    2.5500   -1.7480 c3        1 TYA      0.092100
     12 O2'         6.7260    2.3720   -2.5350 oh        1 TYA     -0.576800
     13 C1'         5.3000    4.0770   -1.5560 c3        1 TYA      0.208800
     14 N9          5.3260    4.5070   -0.1650 na        1 TYA     -0.263000
     15 C8          4.8270    3.8510    0.9820 cc        1 TYA      0.523700
     16 N7          4.9640    4.5610    2.1240 nd        1 TYA     -0.616100
     17 C5          5.5660    5.7570    1.7360 ca        1 TYA     -0.122200
     18 C6          5.9850    6.9100    2.4140 ca        1 TYA      0.491200
     19 N6          5.7930    6.9680    3.8750 n4        1 TYA     -0.811300
     20 N1          6.5590    7.9620    1.7720 nb        1 TYA     -0.686000
     21 C2          6.7150    7.8380    0.4260 ca        1 TYA      0.660900
     22 N3          6.3750    6.7950   -0.3810 nb        1 TYA     -0.617000
     23 C4          5.8000    5.7580    0.2680 ca        1 TYA      0.459800
     24 NH2        -1.0940   -1.1710   -0.0000 n4        1 TYA     -0.861600
     25 CA         -1.3730   -0.1760    1.0790 c3        1 TYA      0.088500
     26 C          -0.0590    0.4540    1.6190 c3        1 TYA      0.194400
     27 CB         -2.1590   -0.7970    2.2380 c3        1 TYA     -0.049100
     28 CG         -3.3190   -1.5960    1.7630 ca        1 TYA     -0.182300
     29 CD1        -3.2140   -2.9900    1.6470 ca        1 TYA     -0.093000
     30 CD2        -4.5330   -0.9710    1.4600 ca        1 TYA     -0.093000
     31 CE1        -4.2920   -3.7530    1.2210 ca        1 TYA     -0.179500
     32 CE2        -5.6270   -1.7160    1.0300 ca        1 TYA     -0.179500
     33 CZ         -5.5050   -3.1090    0.9090 ca        1 TYA      0.150100
     34 OH         -6.5290   -3.9150    0.4860 oh        1 TYA     -0.481100
     35 H5'1        2.4670    3.3610   -0.4610 h1        1 TYA      0.051200
     36 H5'2        1.3180    3.7610   -1.8410 h1        1 TYA      0.051200
     37 H4'         2.9370    3.3310   -3.5240 h1        1 TYA      0.113700
     38 H3'         3.8660    1.1560   -1.8050 h1        1 TYA      0.082700
     39 HO'3        4.9390    0.7050   -3.6930 ho        1 TYA      0.425000
     40 H2'         5.7970    2.0190   -0.7820 h1        1 TYA      0.113700
     41 HO'2        6.4990    2.5800   -3.4560 ho        1 TYA      0.429000
     42 H1'         6.0620    4.7030   -2.1140 h2        1 TYA      0.126700
     43 H8          4.3660    2.8300    0.9320 h5        1 TYA      0.180800
     44 H61         6.3430    6.2130    4.3030 hn        1 TYA      0.473133
     45 H62         4.7980    6.8140    4.0760 hn        1 TYA      0.473133
     46 H2          7.1870    8.7100   -0.0820 h5        1 TYA      0.093100
     47 HA         -1.9800    0.6520    0.6050 hx        1 TYA      0.107700
     48 H1         -0.3360    1.0370    2.5430 h1        1 TYA      0.058200
     49 H2A         0.6840   -0.3500    1.8790 h1        1 TYA      0.058200
     50 HB1        -2.5130    0.0450    2.8930 hc        1 TYA      0.078700
     51 HB2        -1.4740   -1.4370    2.8570 hc        1 TYA      0.078700
     52 HD1        -2.2730   -3.4950    1.9210 ha        1 TYA      0.137000
     53 HD2        -4.6300    0.1210    1.5700 ha        1 TYA      0.137000
     54 HE1        -4.2230   -4.8480    1.1330 ha        1 TYA      0.158500
     55 HE2        -6.5810   -1.2200    0.7970 ha        1 TYA      0.158500
     56 HH         -7.3170   -3.3660    0.3520 ho        1 TYA      0.432000
     57 HN1        -0.8650   -2.0770    0.4120 hn        1 TYA      0.466467
     58 H63         6.0910    7.8740    4.2550 hn        1 TYA      0.473133
     59 HH22       -0.2420   -0.8480   -0.5520 hn        1 TYA      0.466467
     60 HN2        -1.9060   -1.2770   -0.6020 hn        1 TYA      0.466467
@<TRIPOS>BOND
     1    1    2 1   
     2    1   26 1   
     3    2    3 1   
     4    2    4 1   
     5    2    5 1   
     6    5    6 1   
     7    6    7 1   
     8    6   35 1   
     9    6   36 1   
    10    7    8 1   
    11    7    9 1   
    12    7   37 1   
    13    8   13 1   
    14    9   10 1   
    15    9   11 1   
    16    9   38 1   
    17   10   39 1   
    18   11   12 1   
    19   11   13 1   
    20   11   40 1   
    21   12   41 1   
    22   13   14 1   
    23   13   42 1   
    24   14   15 1   
    25   14   23 1   
    26   15   16 2   
    27   15   43 1   
    28   16   17 1   
    29   17   18 ar  
    30   17   23 ar  
    31   18   19 1   
    32   18   20 ar  
    33   19   44 1   
    34   19   45 1   
    35   19   58 1   
    36   20   21 ar  
    37   21   22 ar  
    38   21   46 1   
    39   22   23 ar  
    40   24   25 1   
    41   24   57 1   
    42   24   59 1   
    43   24   60 1   
    44   25   26 1   
    45   25   27 1   
    46   25   47 1   
    47   26   48 1   
    48   26   49 1   
    49   27   28 1   
    50   27   50 1   
    51   27   51 1   
    52   28   29 ar  
    53   28   30 ar  
    54   29   31 ar  
    55   29   52 1   
    56   30   32 ar  
    57   30   53 1   
    58   31   33 ar  
    59   31   54 1   
    60   32   33 ar  
    61   32   55 1   
    62   33   34 1   
    63   34   56 1   
@<TRIPOS>SUBSTRUCTURE
     1 TYA         1 TEMP              0 ****  ****    0 ROOT
