@<TRIPOS>MOLECULE
TYA
   58    61     1     0     0
SMALL
bcc


@<TRIPOS>ATOM
      1 OPP        -1.4470    0.4750    0.0550 os        1 TYA     -0.582200
      2 P          -0.7720    1.9570   -0.2220 p5        1 TYA      1.440800
      3 O1P         0.4220    1.7710   -1.0790 o         1 TYA     -0.839000
      4 O2P        -1.9070    2.8620   -0.4700 o         1 TYA     -0.839000
      5 O5'        -0.1540    2.2060    1.2860 os        1 TYA     -0.560200
      6 C5'         0.9550    1.4360    1.6310 c3        1 TYA      0.185400
      7 C4'         2.2230    2.2980    1.7600 c3        1 TYA      0.080100
      8 O4'         3.3780    1.4430    1.7500 os        1 TYA     -0.426600
      9 C3'         2.4020    3.3060    0.6140 c3        1 TYA      0.090100
     10 O3'         2.8680    4.5640    1.0540 oh        1 TYA     -0.595800
     11 C2'         3.4220    2.6480   -0.3400 c3        1 TYA      0.076100
     12 O2'         4.5110    3.5100   -0.6230 oh        1 TYA     -0.609800
     13 C1'         4.0160    1.4490    0.4620 c3        1 TYA      0.250800
     14 N9          3.8810    0.1760   -0.2050 na        1 TYA     -0.276000
     15 C8          2.8080   -0.3010   -1.0070 cc        1 TYA      0.438700
     16 N7          2.9610   -1.5740   -1.3980 nd        1 TYA     -0.576100
     17 C5          4.1710   -1.9970   -0.8250 ca        1 TYA     -0.211200
     18 C6          4.8820   -3.2370   -0.8620 ca        1 TYA      0.717200
     19 N6          4.4150   -4.2800   -1.6490 nh        1 TYA     -0.938500
     20 N1          6.0550   -3.3550   -0.1580 nb        1 TYA     -0.797000
     21 C2          6.4940   -2.2520    0.5100 ca        1 TYA      0.658900
     22 N3          5.9460   -1.0220    0.6210 nb        1 TYA     -0.719000
     23 C4          4.7630   -0.9070   -0.0540 ca        1 TYA      0.451800
     24 NH2        -4.3290    1.2400    0.3050 n3        1 TYA     -0.910800
     25 CA         -3.8170   -0.0120   -0.2180 c3        1 TYA      0.148500
     26 C          -2.4090    0.0660   -0.8660 c3        1 TYA      0.165400
     27 CB         -4.7610   -0.6180   -1.2760 c3        1 TYA     -0.032100
     28 CG         -6.0350   -1.1150   -0.6910 ca        1 TYA     -0.084300
     29 CD1        -7.0580   -0.2200   -0.3520 ca        1 TYA     -0.086000
     30 CD2        -6.2310   -2.4860   -0.4840 ca        1 TYA     -0.086000
     31 CE1        -8.2580   -0.6830    0.1810 ca        1 TYA     -0.190000
     32 CE2        -7.4230   -2.9690    0.0460 ca        1 TYA     -0.190000
     33 CZ         -8.4370   -2.0590    0.3770 ca        1 TYA      0.102100
     34 OH         -9.6040   -2.5890    0.8920 oh        1 TYA     -0.511100
     35 H5'1        0.7550    0.9640    2.6330 h1        1 TYA      0.041200
     36 H5'2        1.1310    0.6280    0.8670 h1        1 TYA      0.041200
     37 H4'         2.2460    2.8120    2.7580 h1        1 TYA      0.076700
     38 H3'         1.4210    3.5040    0.0940 h1        1 TYA      0.136700
     39 HO'3        3.6880    4.4090    1.5410 ho        1 TYA      0.400000
     40 H2'         2.9110    2.3390   -1.2930 h1        1 TYA      0.112700
     41 HO'2        4.1270    4.3710   -0.8430 ho        1 TYA      0.420000
     42 H1'         5.1160    1.6090    0.6780 h2        1 TYA      0.113700
     43 H8          1.9490    0.3570   -1.2730 h5        1 TYA      0.154800
     44 H61         3.4590   -4.2220   -1.9130 hn        1 TYA      0.421800
     45 H62         4.7710   -5.1890   -1.4670 hn        1 TYA      0.421800
     46 H2          7.4520   -2.3950    1.0530 h5        1 TYA      0.038100
     47 HN2        -4.1760    1.9830   -0.3560 hn        1 TYA      0.365300
     48 HA         -3.7450   -0.7370    0.6460 h1        1 TYA      0.056700
     49 H1         -2.1250   -0.9660   -1.2220 h1        1 TYA      0.022200
     50 H2A        -2.4340    0.7680   -1.7460 h1        1 TYA      0.022200
     51 HB1        -4.9840    0.1490   -2.0650 hc        1 TYA      0.043700
     52 HB2        -4.2240   -1.4680   -1.7780 hc        1 TYA      0.043700
     53 HD1        -6.9020    0.8610   -0.4940 ha        1 TYA      0.142000
     54 HD2        -5.4290   -3.1950   -0.7400 ha        1 TYA      0.142000
     55 HE1        -9.0540    0.0240    0.4520 ha        1 TYA      0.131000
     56 HE2        -7.5800   -4.0430    0.2110 ha        1 TYA      0.131000
     57 HH        -10.1810   -1.8480    1.1230 ho        1 TYA      0.410000
     58 HN1        -3.8350    1.4740    1.1450 hn        1 TYA      0.365300
@<TRIPOS>BOND
     1    1    2 1   
     2    1   26 1   
     3    2    3 1   
     4    2    4 1   
     5    2    5 1   
     6    5    6 1   
     7    6    7 1   
     8    6   35 1   
     9    6   36 1   
    10    7    8 1   
    11    7    9 1   
    12    7   37 1   
    13    8   13 1   
    14    9   10 1   
    15    9   11 1   
    16    9   38 1   
    17   10   39 1   
    18   11   12 1   
    19   11   13 1   
    20   11   40 1   
    21   12   41 1   
    22   13   14 1   
    23   13   42 1   
    24   14   15 1   
    25   14   23 1   
    26   15   16 2   
    27   15   43 1   
    28   16   17 1   
    29   17   18 ar  
    30   17   23 ar  
    31   18   19 1   
    32   18   20 ar  
    33   19   44 1   
    34   19   45 1   
    35   20   21 ar  
    36   21   22 ar  
    37   21   46 1   
    38   22   23 ar  
    39   24   25 1   
    40   24   47 1   
    41   24   58 1   
    42   25   26 1   
    43   25   27 1   
    44   25   48 1   
    45   26   49 1   
    46   26   50 1   
    47   27   28 1   
    48   27   51 1   
    49   27   52 1   
    50   28   29 ar  
    51   28   30 ar  
    52   29   31 ar  
    53   29   53 1   
    54   30   32 ar  
    55   30   54 1   
    56   31   33 ar  
    57   31   55 1   
    58   32   33 ar  
    59   32   56 1   
    60   33   34 1   
    61   34   57 1   
@<TRIPOS>SUBSTRUCTURE
     1 TYA         1 TEMP              0 ****  ****    0 ROOT
