@<TRIPOS>MOLECULE
TYA
   59    62     1     0     0
SMALL
bcc


@<TRIPOS>ATOM
      1 OPP         0.4780    0.5740    0.5170 os        1 TYA     -0.579200
      2 P           1.5260    0.2720   -0.6580 p5        1 TYA      1.634500
      3 O1P         2.2680   -0.9730   -0.5380 o         1 TYA     -0.813300
      4 O2P         0.6060    0.5010   -1.9270 oh        1 TYA     -0.750400
      5 O5'         2.4420    1.5890   -0.6350 os        1 TYA     -0.558200
      6 C5'         3.8290    1.4350   -0.8320 c3        1 TYA      0.143400
      7 C4'         4.2650    2.1410   -2.1190 c3        1 TYA      0.071100
      8 O4'         3.7970    3.4960   -2.1380 os        1 TYA     -0.384600
      9 C3'         5.8070    2.1710   -2.2240 c3        1 TYA      0.130100
     10 O3'         6.2500    1.6900   -3.4670 oh        1 TYA     -0.571800
     11 C2'         6.1970    3.6410   -1.9460 c3        1 TYA      0.080100
     12 O2'         6.8440    4.1540   -3.0900 oh        1 TYA     -0.591800
     13 C1'         4.8380    4.3940   -1.7500 c3        1 TYA      0.220800
     14 N9          4.6250    4.8630   -0.3990 na        1 TYA     -0.297000
     15 C8          3.5500    4.5730    0.4780 cc        1 TYA      0.427700
     16 N7          3.6060    5.2580    1.6300 nd        1 TYA     -0.554100
     17 C5          4.7590    6.0530    1.5320 ca        1 TYA     -0.226200
     18 C6          5.3720    7.0020    2.4170 ca        1 TYA      0.761200
     19 N6          4.8310    7.2430    3.6520 nv        1 TYA     -0.957500
     20 N1          6.5220    7.6410    2.0100 nb        1 TYA     -0.795000
     21 C2          7.0220    7.3210    0.7880 ca        1 TYA      0.687900
     22 N3          6.5650    6.4500   -0.1430 nb        1 TYA     -0.758000
     23 C4          5.4160    5.8210    0.2510 ca        1 TYA      0.446800
     24 NH2        -1.6770   -1.2700   -0.3310 n8        1 TYA     -0.921800
     25 CA         -1.4700   -0.7750    1.0160 c3        1 TYA      0.134500
     26 C           0.0260   -0.5050    1.3030 c3        1 TYA      0.169400
     27 CB         -1.9970   -1.6870    2.1400 c3        1 TYA     -0.068100
     28 CG         -3.4440   -1.9810    1.9760 ca        1 TYA     -0.127300
     29 CD1        -3.8600   -3.0850    1.2190 ca        1 TYA     -0.092500
     30 CD2        -4.4050   -1.1630    2.5800 ca        1 TYA     -0.092500
     31 CE1        -5.2100   -3.3750    1.0600 ca        1 TYA     -0.181000
     32 CE2        -5.7630   -1.4350    2.4340 ca        1 TYA     -0.181000
     33 CZ         -6.1620   -2.5420    1.6720 ca        1 TYA      0.127100
     34 OH         -7.4820   -2.8770    1.4800 oh        1 TYA     -0.495100
     35 H5'1        4.3360    1.9220    0.0500 h1        1 TYA      0.072200
     36 H5'2        4.1000    0.3430   -0.8820 h1        1 TYA      0.072200
     37 H4'         3.7970    1.6660   -3.0240 h1        1 TYA      0.102700
     38 H3'         6.2820    1.4840   -1.4700 h1        1 TYA      0.094700
     39 HO'3        6.0800    2.3700   -4.1340 ho        1 TYA      0.426000
     40 H2'         6.8620    3.7160   -1.0460 h1        1 TYA      0.082700
     41 HO'2        7.2710    4.9790   -2.8240 ho        1 TYA      0.433000
     42 H1'         4.7590    5.2740   -2.4580 h2        1 TYA      0.106700
     43 H8          2.7800    3.8400    0.1860 h5        1 TYA      0.106800
     44 H61         3.9570    6.8360    3.8730 hn        1 TYA      0.448300
     45 H62         5.2050    7.9490    4.2360 hn        1 TYA      0.448300
     46 H2          7.9530    7.8640    0.5140 h5        1 TYA      0.050100
     47 HA         -2.0070    0.2180    1.0860 h1        1 TYA      0.078700
     48 H1          0.1280   -0.1880    2.3780 h1        1 TYA      0.063700
     49 H2A         0.6600   -1.4130    1.1080 h1        1 TYA      0.063700
     50 HB1        -1.8220   -1.1760    3.1240 hc        1 TYA      0.056200
     51 HB2        -1.4100   -2.6440    2.1510 hc        1 TYA      0.056200
     52 HD1        -3.1080   -3.7380    0.7500 ha        1 TYA      0.134500
     53 HD2        -4.0870   -0.2960    3.1790 ha        1 TYA      0.134500
     54 HE1        -5.5440   -4.2400    0.4710 ha        1 TYA      0.145500
     55 HE2        -6.5140   -0.7900    2.9110 ha        1 TYA      0.145500
     56 HH         -8.0270   -2.2330    1.9560 ho        1 TYA      0.421000
     57 HN1        -0.3260    0.6520   -1.7700 ho        1 TYA      0.499000
     58 HH22       -2.6580   -1.3020   -0.5360 hn        1 TYA      0.358300
     59 HN2        -1.2990   -2.1920   -0.4320 hn        1 TYA      0.358300
@<TRIPOS>BOND
     1    1    2 1   
     2    1   26 1   
     3    2    3 2   
     4    2    4 1   
     5    2    5 1   
     6    4   57 1   
     7    5    6 1   
     8    6    7 1   
     9    6   35 1   
    10    6   36 1   
    11    7    8 1   
    12    7    9 1   
    13    7   37 1   
    14    8   13 1   
    15    9   10 1   
    16    9   11 1   
    17    9   38 1   
    18   10   39 1   
    19   11   12 1   
    20   11   13 1   
    21   11   40 1   
    22   12   41 1   
    23   13   14 1   
    24   13   42 1   
    25   14   15 1   
    26   14   23 1   
    27   15   16 2   
    28   15   43 1   
    29   16   17 1   
    30   17   18 ar  
    31   17   23 ar  
    32   18   19 1   
    33   18   20 ar  
    34   19   44 1   
    35   19   45 1   
    36   20   21 ar  
    37   21   22 ar  
    38   21   46 1   
    39   22   23 ar  
    40   24   25 1   
    41   24   58 1   
    42   24   59 1   
    43   25   26 1   
    44   25   27 1   
    45   25   47 1   
    46   26   48 1   
    47   26   49 1   
    48   27   28 1   
    49   27   50 1   
    50   27   51 1   
    51   28   29 ar  
    52   28   30 ar  
    53   29   31 ar  
    54   29   52 1   
    55   30   32 ar  
    56   30   53 1   
    57   31   33 ar  
    58   31   54 1   
    59   32   33 ar  
    60   32   55 1   
    61   33   34 1   
    62   34   56 1   
@<TRIPOS>SUBSTRUCTURE
     1 TYA         1 TEMP              0 ****  ****    0 ROOT
