@<TRIPOS>MOLECULE
TYA
   58    55     1     0     0
SMALL
bcc


@<TRIPOS>ATOM
      1 OPP        -1.8820   -1.5810    0.3220 os        1 TYA     -0.731000
      2 P          -0.3630   -1.4570    0.6380 p5        1 TYA      1.909000
      3 O1P        -0.1250   -1.7700    2.0980 o         1 TYA     -0.834500
      4 O2P         0.4110   -2.4350   -0.2190 o         1 TYA     -0.834500
      5 O5'         0.1310    0.0510    0.3210 os        1 TYA     -0.736000
      6 C5'         1.5410    0.3390    0.3680 c3        1 TYA      0.048000
      7 C4'         1.8920    1.4070   -0.7320 c3        1 TYA     -0.049000
      8 O4'         2.4340    2.6960   -0.0780 os        1 TYA     -0.274000
      9 C3'         2.8380    0.9890   -1.4730 c3        1 TYA      0.001000
     10 O3'         2.6900    1.5180   -2.8160 oh        1 TYA     -0.363000
     11 C2'         4.2260    1.5460   -0.7990 c3        1 TYA      0.000000
     12 O2'         5.3000    1.6020   -1.8190 oh        1 TYA     -0.315000
     13 C1'         3.9710    2.7010   -0.3770 c3        1 TYA      0.121000
     14 N9          4.7190    2.9680    0.8340 n3        1 TYA     -0.184000
     15 C8          4.9010    2.3700    2.0420 c1        1 TYA     -0.027000
     16 N7          5.7230    3.1500    2.7720 n2        1 TYA     -0.137000
     17 C5          6.0550    4.2380    2.0170 c1        1 TYA     -0.230000
     18 C6          6.8530    5.3420    2.2760 c1        1 TYA      0.212000
     19 N6          7.5930    5.7220    3.4180 n3        1 TYA     -0.343000
     20 N1          7.0060    6.2960    1.3370 n1        1 TYA     -0.273000
     21 C2          6.3760    6.1760    0.1290 c1        1 TYA      0.005000
     22 N3          5.5920    5.0920   -0.1260 n1        1 TYA     -0.192000
     23 C4          5.4330    4.1220    0.8240 c1        1 TYA      0.064000
     24 NH2        -3.9700   -2.1660   -1.6530 n3        1 TYA     -0.322000
     25 CA         -3.8460   -2.7120   -0.3450 c3        1 TYA     -0.065000
     26 C          -2.3900   -2.8360    0.0080 c3        1 TYA     -0.006000
     27 CB         -4.4970   -4.0800   -0.3070 c3        1 TYA     -0.115000
     28 CG         -6.0470   -3.9210   -0.4230 c2        1 TYA     -0.080000
     29 CD1        -6.6800   -4.1890   -1.6300 c2        1 TYA     -0.071000
     30 CD2        -6.8000   -3.6220    0.7040 c1        1 TYA     -0.099000
     31 CE1        -8.0700   -4.1580   -1.7120 c1        1 TYA     -0.217000
     32 CE2        -8.1910   -3.5910    0.6240 c1        1 TYA     -0.161000
     33 CZ         -8.8240   -3.8610   -0.5890 c1        1 TYA      0.060000
     34 OH        -10.2170   -3.9390   -0.6460 oh        1 TYA     -0.263000
     35 H5'1        1.7760    0.6950    1.2600 h1        1 TYA      0.065500
     36 H5'2        2.0420   -0.4720    0.2020 h1        1 TYA      0.065500
     37 H4'         1.1040    1.6080   -1.2720 h1        1 TYA      0.136000
     38 H3'         2.8430    0.0190   -1.4940 h1        1 TYA      0.128000
     39 HO'3        2.5280    0.8480   -3.3830 ho        1 TYA      0.281000
     40 H2'         4.4980    0.9640   -0.0510 h1        1 TYA      0.127000
     41 HO'2        5.7570    0.8270   -1.8160 ho        1 TYA      0.227000
     42 H1'         4.1820    3.3680   -1.0620 h2        1 TYA      0.155000
     43 H8          4.4950    1.5310    2.3340 DU        1 TYA      0.218000
     44 H61         7.6200    5.1710    4.1500 hn        1 TYA      0.224000
     45 H62         8.0610    6.5100    3.4190 hn        1 TYA      0.224000
     46 H2          6.4880    6.8710   -0.5540 ha        1 TYA      0.179000
     47 HN1        -4.7330   -1.6820   -1.7070 hn        1 TYA      0.139000
     48 HN2        -3.2440   -1.6200   -1.8300 hn        1 TYA      0.139000
     49 HA         -4.2890   -2.1210    0.2990 h1        1 TYA      0.118000
     50 H1         -2.2910   -3.4300    0.7770 h1        1 TYA      0.078500
     51 H2A        -1.8970   -3.2080   -0.7600 h1        1 TYA      0.078500
     52 HB1        -4.2780   -4.5200    0.5270 hc        1 TYA      0.083000
     53 HB2        -4.1670   -4.6190   -1.0570 hc        1 TYA      0.083000
     54 HD1        -6.1600   -4.3940   -2.4070 ha        1 TYA      0.145000
     55 HD2        -6.3490   -3.4300    1.5630 ha        1 TYA      0.136000
     56 HE1        -8.5170   -4.3490   -2.5720 ha        1 TYA      0.123000
     57 HE2        -8.7160   -3.3830    1.4080 ha        1 TYA      0.140000
     58 HH        -10.5400   -3.1870   -0.9620 ho        1 TYA      0.209000
@<TRIPOS>BOND
     1    1    2 1   
     2    1   26 1   
     3    2    3 1   
     4    2    4 1   
     5    2    5 1   
     6    5    6 1   
     7    6    7 1   
     8    6   35 1   
     9    6   36 1   
    10    7    8 1   
    11    7    9 1   
    12    7   37 1   
    13    8   13 1   
    14    9   10 1   
    15    9   11 1   
    16    9   38 1   
    17   10   39 1   
    18   11   12 1   
    19   11   13 1   
    20   11   40 1   
    21   12   41 1   
    22   13   14 1   
    23   13   42 1   
    24   14   15 1   
    25   14   23 1   
    26   15   16 1   
    27   16   17 1   
    28   17   23 1   
    29   18   19 1   
    30   18   20 1   
    31   19   44 1   
    32   19   45 1   
    33   21   22 1   
    34   21   46 1   
    35   24   25 1   
    36   24   47 1   
    37   24   48 1   
    38   25   26 1   
    39   25   27 1   
    40   25   49 1   
    41   26   50 1   
    42   26   51 1   
    43   27   28 1   
    44   27   52 1   
    45   27   53 1   
    46   28   29 1   
    47   28   30 1   
    48   29   31 1   
    49   29   54 1   
    50   30   55 1   
    51   31   56 1   
    52   32   33 1   
    53   32   57 1   
    54   33   34 1   
    55   34   58 1   
@<TRIPOS>SUBSTRUCTURE
     1 TYA         1 TEMP              0 ****  ****    0 ROOT
