@<TRIPOS>MOLECULE
TYA
   59    62     1     0     0
SMALL
bcc


@<TRIPOS>ATOM
      1 OPP         0.9450    0.1090    1.0100 os        1 TYA     -0.576200
      2 P           2.0820   -0.0620   -0.1030 p5        1 TYA      1.639500
      3 O1P         3.4360   -0.2340    0.3980 o         1 TYA     -0.802300
      4 O2P         1.5040   -1.1600   -1.0880 oh        1 TYA     -0.756400
      5 O5'         1.9050    1.2640   -0.9890 os        1 TYA     -0.579200
      6 C5'         2.7600    2.3530   -0.7200 c3        1 TYA      0.162400
      7 C4'         3.6520    2.6320   -1.9350 c3        1 TYA      0.075100
      8 O4'         3.9820    4.0260   -1.9440 os        1 TYA     -0.404600
      9 C3'         4.9730    1.8390   -1.9520 c3        1 TYA      0.072100
     10 O3'         5.1790    1.1830   -3.1830 oh        1 TYA     -0.583800
     11 C2'         6.0850    2.8850   -1.6990 c3        1 TYA      0.076100
     12 O2'         6.9140    3.0320   -2.8360 oh        1 TYA     -0.589800
     13 C1'         5.3420    4.2470   -1.5330 c3        1 TYA      0.248800
     14 N9          5.4120    4.7760   -0.1950 na        1 TYA     -0.287000
     15 C8          5.2940    4.0760    1.0370 cc        1 TYA      0.397700
     16 N7          5.2570    4.8760    2.1090 nd        1 TYA     -0.536100
     17 C5          5.3250    6.1810    1.5970 ca        1 TYA     -0.239200
     18 C6          5.3290    7.4730    2.2210 ca        1 TYA      0.764200
     19 N6          5.2320    7.5820    3.5830 nh        1 TYA     -0.961500
     20 N1          5.4180    8.5920    1.4250 nb        1 TYA     -0.796000
     21 C2          5.4910    8.4030    0.0820 ca        1 TYA      0.688900
     22 N3          5.4950    7.2570   -0.6420 nb        1 TYA     -0.732000
     23 C4          5.4090    6.1420    0.1410 ca        1 TYA      0.476800
     24 NH2        -1.3940   -1.2310   -0.3500 n3        1 TYA     -0.917800
     25 CA         -1.2250   -0.9590    1.0630 c3        1 TYA      0.138500
     26 C           0.2610   -1.0240    1.4860 c3        1 TYA      0.190400
     27 CB         -2.0170   -1.8840    2.0080 c3        1 TYA     -0.069100
     28 CG         -3.4700   -1.8780    1.6950 ca        1 TYA     -0.127300
     29 CD1        -3.9990   -2.7950    0.7770 ca        1 TYA     -0.092500
     30 CD2        -4.3240   -0.9610    2.3180 ca        1 TYA     -0.092500
     31 CE1        -5.3560   -2.8040    0.4770 ca        1 TYA     -0.181000
     32 CE2        -5.6860   -0.9520    2.0320 ca        1 TYA     -0.181000
     33 CZ         -6.2000   -1.8750    1.1100 ca        1 TYA      0.128100
     34 OH         -7.5320   -1.9300    0.7750 oh        1 TYA     -0.495100
     35 H5'1        3.3770    2.1390    0.1950 h1        1 TYA      0.066700
     36 H5'2        2.1060    3.2550   -0.5460 h1        1 TYA      0.066700
     37 H4'         3.0620    2.4580   -2.8770 h1        1 TYA      0.101700
     38 H3'         5.0010    1.0190   -1.1820 h1        1 TYA      0.128700
     39 HO'3        5.1560    1.8550   -3.8810 ho        1 TYA      0.415000
     40 H2'         6.7060    2.6120   -0.8060 h1        1 TYA      0.073700
     41 HO'2        7.3080    2.1640   -3.0050 ho        1 TYA      0.426000
     42 H1'         5.7400    5.0290   -2.2510 h2        1 TYA      0.143700
     43 H8          5.2670    2.9790    1.0670 h5        1 TYA      0.077800
     44 H61         5.2870    8.4660    4.0240 hn        1 TYA      0.449300
     45 H62         5.2290    6.7580    4.1290 hn        1 TYA      0.449300
     46 H2          5.5580    9.3390   -0.5150 h5        1 TYA      0.053100
     47 HA         -1.5740    0.1040    1.2350 h1        1 TYA      0.085700
     48 H1          0.3160   -0.9860    2.6110 h1        1 TYA      0.050700
     49 H2A         0.7580   -1.9580    1.1100 h1        1 TYA      0.050700
     50 HB1        -1.8550   -1.5370    3.0630 hc        1 TYA      0.055200
     51 HB2        -1.6130   -2.9290    1.9330 hc        1 TYA      0.055200
     52 HD1        -3.3330   -3.5250    0.2900 ha        1 TYA      0.134500
     53 HD2        -3.9160   -0.2390    3.0420 ha        1 TYA      0.134500
     54 HE1        -5.7800   -3.5210   -0.2390 ha        1 TYA      0.145500
     55 HE2        -6.3520   -0.2300    2.5250 ha        1 TYA      0.145500
     56 HH         -7.9970   -1.2470    1.2810 ho        1 TYA      0.422000
     57 HN1        -2.3500   -1.0880   -0.6140 hn        1 TYA      0.356800
     58 HH22       -1.1380   -2.1770   -0.5610 hn        1 TYA      0.356800
     59 HN2         0.8020   -0.8890   -1.6800 ho        1 TYA      0.500000
@<TRIPOS>BOND
     1    1    2 1   
     2    1   26 1   
     3    2    3 2   
     4    2    4 1   
     5    2    5 1   
     6    4   59 1   
     7    5    6 1   
     8    6    7 1   
     9    6   35 1   
    10    6   36 1   
    11    7    8 1   
    12    7    9 1   
    13    7   37 1   
    14    8   13 1   
    15    9   10 1   
    16    9   11 1   
    17    9   38 1   
    18   10   39 1   
    19   11   12 1   
    20   11   13 1   
    21   11   40 1   
    22   12   41 1   
    23   13   14 1   
    24   13   42 1   
    25   14   15 1   
    26   14   23 1   
    27   15   16 2   
    28   15   43 1   
    29   16   17 1   
    30   17   18 ar  
    31   17   23 ar  
    32   18   19 1   
    33   18   20 ar  
    34   19   44 1   
    35   19   45 1   
    36   20   21 ar  
    37   21   22 ar  
    38   21   46 1   
    39   22   23 ar  
    40   24   25 1   
    41   24   57 1   
    42   24   58 1   
    43   25   26 1   
    44   25   27 1   
    45   25   47 1   
    46   26   48 1   
    47   26   49 1   
    48   27   28 1   
    49   27   50 1   
    50   27   51 1   
    51   28   29 ar  
    52   28   30 ar  
    53   29   31 ar  
    54   29   52 1   
    55   30   32 ar  
    56   30   53 1   
    57   31   33 ar  
    58   31   54 1   
    59   32   33 ar  
    60   32   55 1   
    61   33   34 1   
    62   34   56 1   
@<TRIPOS>SUBSTRUCTURE
     1 TYA         1 TEMP              0 ****  ****    0 ROOT
