@<TRIPOS>MOLECULE
TYB
   23    21     1     0     0
SMALL
bcc


@<TRIPOS>ATOM
      1 N          -3.0830    1.3550    0.0130 n3        1 TYB     -0.321000
      2 CA         -1.9560    0.7160   -0.5830 c3        1 TYB     -0.096000
      3 C          -2.3550    0.1280   -1.8530 c2        1 TYB      0.144000
      4 O          -3.2720   -0.6610   -1.8900 o         1 TYB     -0.294000
      5 CB         -1.4250   -0.4040    0.3650 c3        1 TYB     -0.114000
      6 CG          0.2000   -0.3870    0.3630 c2        1 TYB     -0.122000
      7 CD1         0.8980   -1.4230   -0.2280 c1        1 TYB     -0.097000
      8 CD2         0.9000    0.6600    1.0180 c2        1 TYB     -0.086000
      9 CE1         2.2600   -1.4380   -0.1820 c1        1 TYB     -0.154000
     10 CE2         2.2490    0.6480    1.0650 c1        1 TYB     -0.210000
     11 CZ          2.9580   -0.3930    0.4720 c1        1 TYB      0.082000
     12 OH          4.4370   -0.3640    0.4580 oh        1 TYB     -0.249000
     13 H          -3.5050    1.7970   -0.5860 hn        1 TYB      0.151500
     14 H2         -2.7860    1.9550    0.7060 hn        1 TYB      0.151500
     15 HA         -1.2350    1.3890   -0.7400 h1        1 TYB      0.124000
     16 HC         -1.8030    0.2650   -2.6430 h4        1 TYB      0.104000
     17 HB2        -1.7320   -1.2480    0.0630 hc        1 TYB      0.101500
     18 HB3        -1.7620   -0.2410    1.2890 hc        1 TYB      0.101500
     19 HD1         0.3910   -2.1770   -0.6980 ha        1 TYB      0.135000
     20 HD2         0.4060    1.3920    1.4350 ha        1 TYB      0.139000
     21 HE1         2.7290   -2.1340   -0.5790 ha        1 TYB      0.153000
     22 HE2         2.7170    1.3540    1.5060 ha        1 TYB      0.136000
     23 HH          4.7660   -0.7890    1.2290 ho        1 TYB      0.220000
@<TRIPOS>BOND
     1    1    2 1   
     2    1   13 1   
     3    1   14 1   
     4    2    3 1   
     5    2    5 1   
     6    2   15 1   
     7    3    4 1   
     8    3   16 1   
     9    5    6 1   
    10    5   17 1   
    11    5   18 1   
    12    6    7 1   
    13    6    8 1   
    14    7   19 1   
    15    8   10 1   
    16    8   20 1   
    17    9   11 1   
    18    9   21 1   
    19   10   22 1   
    20   11   12 1   
    21   12   23 1   
@<TRIPOS>SUBSTRUCTURE
     1 TYB         1 TEMP              0 ****  ****    0 ROOT
