@<TRIPOS>MOLECULE
TYB
   23    23     1     0     0
SMALL
bcc


@<TRIPOS>ATOM
      1 N           1.1570    0.9210    1.9660 n3        1 TYB     -0.897800
      2 CA         -0.1900    0.4080    2.0910 c3        1 TYB      0.056500
      3 C          -0.5480    0.0320    3.5230 c         1 TYB      0.568900
      4 O           0.2540   -0.4360    4.3270 o         1 TYB     -0.518100
      5 CB         -0.5290   -0.8220    1.2190 c3        1 TYB     -0.067100
      6 CG         -0.3620   -0.5290   -0.2280 ca        1 TYB     -0.122300
      7 CD1         0.8400   -0.8280   -0.8770 ca        1 TYB     -0.091500
      8 CD2        -1.4130    0.0470   -0.9570 ca        1 TYB     -0.091500
      9 CE1         1.0010   -0.5590   -2.2340 ca        1 TYB     -0.181000
     10 CE2        -1.2730    0.3230   -2.3110 ca        1 TYB     -0.181000
     11 CZ         -0.0590    0.0170   -2.9490 ca        1 TYB      0.127100
     12 OH          0.0210    0.3110   -4.2900 oh        1 TYB     -0.495100
     13 H           1.7990    0.3690    2.5020 hn        1 TYB      0.360300
     14 H2          1.4380    0.9190    1.0040 hn        1 TYB      0.360300
     15 HA         -0.8770    1.2500    1.7740 h1        1 TYB      0.076700
     16 HC         -1.6180    0.1950    3.7810 h4        1 TYB      0.001200
     17 HB2         0.1280   -1.6810    1.5180 hc        1 TYB      0.057200
     18 HB3        -1.5910   -1.1200    1.4260 hc        1 TYB      0.057200
     19 HD1         1.6670   -1.2870   -0.3150 ha        1 TYB      0.134000
     20 HD2        -2.3610    0.2830   -0.4500 ha        1 TYB      0.134000
     21 HE1         1.9470   -0.7970   -2.7400 ha        1 TYB      0.144500
     22 HE2        -2.0910    0.7730   -2.8910 ha        1 TYB      0.144500
     23 HH          0.9020    0.0550   -4.6010 ho        1 TYB      0.421000
@<TRIPOS>BOND
     1    1    2 1   
     2    1   13 1   
     3    1   14 1   
     4    2    3 1   
     5    2    5 1   
     6    2   15 1   
     7    3    4 2   
     8    3   16 1   
     9    5    6 1   
    10    5   17 1   
    11    5   18 1   
    12    6    7 ar  
    13    6    8 ar  
    14    7    9 ar  
    15    7   19 1   
    16    8   10 ar  
    17    8   20 1   
    18    9   11 ar  
    19    9   21 1   
    20   10   11 ar  
    21   10   22 1   
    22   11   12 1   
    23   12   23 1   
@<TRIPOS>SUBSTRUCTURE
     1 TYB         1 TEMP              0 ****  ****    0 ROOT
