@<TRIPOS>MOLECULE
TYC
   25    25     1     0     0
SMALL
bcc


@<TRIPOS>ATOM
      1 N           0.8560    1.0910    1.6040 n3        1 TYC     -0.906800
      2 CA         -0.3080    0.2370    1.7270 c3        1 TYC      0.097500
      3 C          -0.5260   -0.2170    3.1860 c         1 TYC      0.654100
      4 O          -0.7610   -1.4100    3.4670 o         1 TYC     -0.621100
      5 CB         -0.3070   -1.0140    0.8290 c3        1 TYC     -0.064100
      6 CG         -0.2210   -0.6490   -0.6090 ca        1 TYC     -0.124300
      7 CD1         1.0240   -0.5100   -1.2320 ca        1 TYC     -0.094500
      8 CD2        -1.3890   -0.4520   -1.3590 ca        1 TYC     -0.094500
      9 CE1         1.1120   -0.1750   -2.5800 ca        1 TYC     -0.182000
     10 CE2        -1.3250   -0.1170   -2.7050 ca        1 TYC     -0.182000
     11 CZ         -0.0660    0.0220   -3.3150 ca        1 TYC      0.125100
     12 NXT        -0.5170    0.7400    4.1640 n         1 TYC     -0.658000
     13 H0          1.6910    0.5820    1.8250 hn        1 TYC      0.357300
     14 H           0.9260    1.4300    0.6630 hn        1 TYC      0.357300
     15 HA         -1.2100    0.8630    1.4450 h1        1 TYC      0.079700
     16 HB1         0.5500   -1.6790    1.1180 hc        1 TYC      0.072700
     17 HB2        -1.2480   -1.5920    1.0320 hc        1 TYC      0.072700
     18 HD1         1.9460   -0.6760   -0.6540 ha        1 TYC      0.134500
     19 HD2        -2.3710   -0.5690   -0.8750 ha        1 TYC      0.134500
     20 HE1         2.0920   -0.0700   -3.0650 ha        1 TYC      0.144000
     21 HE2        -2.2350    0.0380   -3.3010 ha        1 TYC      0.144000
     22 HH          0.8580    0.4010   -4.9440 ho        1 TYC      0.420000
     23 HT21       -0.6230    0.4680    5.1100 hn        1 TYC      0.316000
     24 HT22       -0.2360    1.6660    3.9640 hn        1 TYC      0.316000
     25 OH         -0.0640    0.3570   -4.6490 oh        1 TYC     -0.496100
@<TRIPOS>BOND
     1    1    2 1   
     2    1   13 1   
     3    1   14 1   
     4    2    3 1   
     5    2    5 1   
     6    2   15 1   
     7    3    4 2   
     8    3   12 1   
     9    5    6 1   
    10    5   16 1   
    11    5   17 1   
    12    6    7 ar  
    13    6    8 ar  
    14    7    9 ar  
    15    7   18 1   
    16    8   10 ar  
    17    8   19 1   
    18    9   11 ar  
    19    9   20 1   
    20   10   11 ar  
    21   10   21 1   
    22   11   25 1   
    23   12   23 1   
    24   12   24 1   
    25   22   25 1   
@<TRIPOS>SUBSTRUCTURE
     1 TYC         1 TEMP              0 ****  ****    0 ROOT
