@<TRIPOS>MOLECULE
TYC
   27    25     1     0     0
SMALL
bcc


@<TRIPOS>ATOM
      1 N           0.6390   -0.0020   -1.5620 n4        1 TYC     -0.843600
      2 CA          1.9670   -0.3520   -0.9520 c3        1 TYC      0.141700
      3 C           1.8540   -0.3910    0.5790 c         1 TYC      0.510100
      4 O           0.8230   -0.3680    1.2300 o         1 TYC     -0.358100
      5 CB          3.0240    0.6110   -1.3640 c2        1 TYC     -0.399200
      6 CG          3.9840    0.3190   -2.2680 ce        1 TYC      0.204300
      7 CD1        -2.8100    3.4090   -1.3590 c3        1 TYC     -0.044000
      8 CD2         4.1650   -0.9090   -2.9070 cg        1 TYC     -0.352300
      9 CE1        -1.8350    2.7860   -2.1880 c1        1 TYC     -0.041100
     10 CE2         4.4140   -1.9070   -3.5310 c1        1 TYC      0.090500
     11 CZ         -0.9990    2.2270   -2.8400 c1        1 TYC     -0.180400
     12 NXT         3.1440   -0.4730    1.3280 n4        1 TYC     -0.737400
     13 H0         -3.4870    2.6490   -0.8870 hc        1 TYC      0.087367
     14 H          -0.1040   -0.6250   -1.2250 hn        1 TYC      0.493467
     15 HA          0.3740    0.9780   -1.3580 hn        1 TYC      0.493467
     16 HB1         2.2250   -1.4070   -1.3030 hx        1 TYC      0.157700
     17 HB2         2.9450    1.6330   -0.9550 ha        1 TYC      0.179000
     18 HD1        -3.4420    4.0990   -1.9840 hc        1 TYC      0.087367
     19 HD2         4.7250    1.1090   -2.5430 ha        1 TYC      0.205000
     20 HE1        -2.3250    4.0170   -0.5500 hc        1 TYC      0.087367
     21 HE2         4.6350   -2.7970   -4.0850 ha        1 TYC      0.215500
     22 HH         -0.2480    2.0250   -4.5350 ho        1 TYC      0.481000
     23 HT21        3.8250    0.1950    0.9360 hn        1 TYC      0.497467
     24 HT22        2.9860   -0.2560    2.3280 hn        1 TYC      0.497467
     25 OH         -0.1000    1.6570   -3.6390 oh        1 TYC     -0.466600
     26 HN3         0.7120   -0.0750   -2.5940 hn        1 TYC      0.493467
     27 HXT3        3.5350   -1.4240    1.2620 hn        1 TYC      0.497467
@<TRIPOS>BOND
     1    1    2 1   
     2    1   14 1   
     3    1   15 1   
     4    1   26 1   
     5    2    3 1   
     6    2    5 1   
     7    2   16 1   
     8    3    4 2   
     9    3   12 1   
    10    5    6 2   
    11    5   17 1   
    12    6    8 1   
    13    6   19 1   
    14    7    9 1   
    15    7   13 1   
    16    7   18 1   
    17    7   20 1   
    18    8   10 3   
    19    9   11 3   
    20   10   21 1   
    21   11   25 1   
    22   12   23 1   
    23   12   24 1   
    24   12   27 1   
    25   22   25 1   
@<TRIPOS>SUBSTRUCTURE
     1 TYC         1 TEMP              0 ****  ****    0 ROOT
