@<TRIPOS>MOLECULE
TYC
   27    24     1     0     0
SMALL
bcc


@<TRIPOS>ATOM
      1 N          71.9950  -67.8960  107.4570 nz        1 TYC      0.056000
      2 CA         73.0800  -66.9470  107.6070 c2        1 TYC     -0.462000
      3 C          74.1730  -67.3500  108.3810 c2        1 TYC      0.287000
      4 O          74.3720  -68.4130  108.9930 o         1 TYC     -0.339000
      5 CB         72.9560  -65.6500  106.9770 c2        1 TYC     -0.144000
      6 CG         72.6110  -65.4720  105.6880 c2        1 TYC      0.002000
      7 CD1      -182.6330  170.4200 -279.5260 c2        1 TYC      0.226000
      8 CD2        72.4650  -64.2120  105.0950 c1        1 TYC     -0.204000
      9 CE1      -183.4520  169.4240 -279.8230 c1        1 TYC     -0.213000
     10 CE2        72.3310  -63.1480  104.5580 c1        1 TYC     -0.099000
     11 CZ       -184.2200  168.4920 -280.1010 c1        1 TYC      0.265000
     12 NXT        75.3120  -66.3540  108.4920 nz        1 TYC     -0.113000
     13 H0       -182.4420  171.2500 -280.2400 ha        1 TYC      0.203500
     14 H          71.1370  -67.4940  107.8490 hn        1 TYC      0.246333
     15 HA         71.8470  -68.0890  106.4610 hn        1 TYC      0.246333
     16 HB1        72.4230  -66.3290  105.0120 ha        1 TYC      0.134000
     17 HB2        73.1360  -64.7810  107.6340 ha        1 TYC      0.134000
     18 HD1      -182.1070  170.4600 -278.5480 ha        1 TYC      0.203500
     19 HD2         0.6400   11.6980   -2.1020 ha        1 TYC      0.000000
     20 HE1         0.2980   12.0670   -2.5550 ha        1 TYC      0.000000
     21 HE2        72.2100  -62.2060  104.0780 ha        1 TYC      0.244000
     22 HH       -185.4210  167.4860 -281.1320 ho        1 TYC      0.318000
     23 HT21       75.0000  -65.5290  109.0080 hn        1 TYC      0.255333
     24 HT22       75.6120  -66.0660  107.5580 hn        1 TYC      0.255333
     25 OH       -184.9730  167.4740 -280.2400 oh        1 TYC     -0.003000
     26 HN3        72.2200  -68.7700  107.9480 hn        1 TYC      0.246333
     27 HXT3       76.0920  -66.7980  108.9900 hn        1 TYC      0.255333
@<TRIPOS>BOND
     1    1    2 1   
     2    1   14 1   
     3    1   15 1   
     4    1   26 1   
     5    2    3 1   
     6    2    5 1   
     7    3    4 1   
     8    3   12 1   
     9    5    6 1   
    10    5   17 1   
    11    6    8 1   
    12    6   16 1   
    13    7    9 1   
    14    7   13 1   
    15    7   18 1   
    16    8   10 1   
    17    9   11 1   
    18   10   21 1   
    19   11   25 1   
    20   12   23 1   
    21   12   24 1   
    22   12   27 1   
    23   19   20 1   
    24   22   25 1   
@<TRIPOS>SUBSTRUCTURE
     1 TYC         1 TEMP              0 ****  ****    0 ROOT
