@<TRIPOS>MOLECULE
TYC
   27    24     1     0     0
SMALL
bcc


@<TRIPOS>ATOM
      1 N         103.6220  -84.6370  122.5780 n3        1 TYC     -0.402000
      2 CA         99.7470  -86.9970  124.1980 c2        1 TYC     -0.280000
      3 C         100.8760  -86.1600  123.8190 c2        1 TYC      0.303000
      4 O         101.3160  -85.1940  124.4380 o         1 TYC     -0.205000
      5 CB         99.1760  -87.9530  123.4470 c2        1 TYC     -0.002000
      6 CG         98.0020  -88.7310  123.9240 c3        1 TYC     -0.040000
      7 CD1      -281.2290  252.2750 -358.4910 c2        1 TYC      0.226000
      8 CD2        97.8570  -89.9810  123.2430 c1        1 TYC     -0.233000
      9 CE1      -281.7030  251.5870 -357.4660 c1        1 TYC     -0.213000
     10 CE2        97.7010  -91.0370  122.7020 c1        1 TYC     -0.125000
     11 CZ       -282.1490  250.9410 -356.5060 c1        1 TYC      0.265000
     12 NXT       101.6270  -86.4760  122.5630 n4        1 TYC     -0.225000
     13 H0         98.0760  -88.9110  125.0370 hc        1 TYC      0.143500
     14 H         103.5990  -84.0200  121.7890 hn        1 TYC      0.184333
     15 HA        104.5350  -85.0420  122.6530 hn        1 TYC      0.184333
     16 HB1        99.3680  -86.7580  125.2120 ha        1 TYC      0.201000
     17 HB2        99.5260  -88.2090  122.4310 ha        1 TYC      0.129000
     18 HD1      -280.4160  253.0220 -358.3570 ha        1 TYC      0.203500
     19 HD2        97.0740  -88.1020  123.7590 hc        1 TYC      0.143500
     20 HE1      -281.6230  252.1340 -359.5200 ha        1 TYC      0.203500
     21 HE2        97.5560  -91.9750  122.2240 ha        1 TYC      0.242000
     22 HH       -283.2300  249.7010 -355.6050 ho        1 TYC      0.318000
     23 HT21      101.9780  -87.4300  122.5940 hn        1 TYC      0.265667
     24 HT22      101.0210  -86.3720  121.7540 hn        1 TYC      0.265667
     25 OH       -282.5000  250.3590 -355.4290 oh        1 TYC     -0.003000
     26 HN3       103.4190  -84.1170  123.4130 hn        1 TYC      0.184333
     27 HXT3      102.4890  -85.7570  122.4800 hn        1 TYC      0.265667
@<TRIPOS>BOND
     1    1   14 1   
     2    1   15 1   
     3    1   26 1   
     4    2    3 1   
     5    2    5 1   
     6    2   16 1   
     7    3    4 1   
     8    3   12 1   
     9    5    6 1   
    10    5   17 1   
    11    6    8 1   
    12    6   13 1   
    13    6   19 1   
    14    7    9 1   
    15    7   18 1   
    16    7   20 1   
    17    8   10 1   
    18    9   11 1   
    19   10   21 1   
    20   11   25 1   
    21   12   23 1   
    22   12   24 1   
    23   12   27 1   
    24   22   25 1   
@<TRIPOS>SUBSTRUCTURE
     1 TYC         1 TEMP              0 ****  ****    0 ROOT
