@<TRIPOS>MOLECULE
TYD
   38    39     1     0     0
SMALL
bcc


@<TRIPOS>ATOM
      1 PA          0.0000    0.0000    0.0000 p5        1 TYD      0.878800
      2 O1A         1.4790    0.0000    0.0000 o         1 TYD     -0.669000
      3 O2A        -0.5370    0.0000    1.5180 o         1 TYD     -0.669000
      4 O3A        -0.5380    1.3140   -0.7580 os        1 TYD     -0.464800
      5 PB          0.0330    2.5840    0.0500 p5        1 TYD      0.790900
      6 O1B         1.5120    2.5450    0.0480 o         1 TYD     -0.626500
      7 O2B        -0.4690    3.9410   -0.6580 o         1 TYD     -0.626500
      8 O3B        -0.5040    2.5410    1.5660 o         1 TYD     -0.626500
      9 O5'        -0.5360   -1.3150   -0.7580 os        1 TYD     -0.476200
     10 C5'        -0.0300   -2.4410   -0.0420 c3        1 TYD      0.243400
     11 C4'        -0.5040   -3.7300   -0.7130 c3        1 TYD      0.164100
     12 O4'         0.0720   -3.8620   -2.0330 os        1 TYD     -0.353600
     13 C3'         0.0320   -4.9710    0.0430 c3        1 TYD      0.149100
     14 O3'        -0.8370   -5.3260    1.1210 oh        1 TYD     -0.589800
     15 C2'         0.0160   -6.0570   -1.0600 c3        1 TYD     -0.112400
     16 C1'         0.0120   -5.2570   -2.3760 c3        1 TYD      0.226500
     17 N1          1.1790   -5.6220   -3.1850 n         1 TYD      0.101000
     18 C2          2.4140   -5.4350   -2.6910 c         1 TYD      0.580500
     19 O2          2.5520   -4.9640   -1.5780 o         1 TYD     -0.731500
     20 N3          3.5040   -5.7620   -3.4110 ns        1 TYD     -0.150500
     21 C4          3.3690   -6.2890   -4.6440 c         1 TYD      0.598700
     22 O4          4.3540   -6.5840   -5.2980 o         1 TYD     -0.804500
     23 C5          2.0740   -6.4860   -5.1780 cc        1 TYD     -0.368400
     24 C5M         1.8960   -7.0690   -6.5560 c3        1 TYD      0.133100
     25 C6          0.9980   -6.1500   -4.4330 cd        1 TYD     -0.320400
     26 H5'1        1.0530   -2.4120   -0.0420 h1        1 TYD      0.019200
     27 H5'2       -0.3910   -2.4120    0.9790 h1        1 TYD      0.019200
     28 H4'        -1.5860   -3.7600   -0.7690 h1        1 TYD      0.007700
     29 H3'         1.0420   -4.7980    0.3950 h1        1 TYD      0.050700
     30 HO3'       -0.3360   -5.7370    1.8070 ho        1 TYD      0.368000
     31 H2'1        0.9050   -6.6730   -0.9950 hc        1 TYD      0.016200
     32 H2'2       -0.8790   -6.6610   -0.9820 hc        1 TYD      0.016200
     33 H1'        -0.9000   -5.4600   -2.9250 h2        1 TYD      0.007700
     34 HN3         4.4170   -5.6170   -3.0270 hn        1 TYD      0.175500
     35 H51         1.8980   -6.2710   -7.2890 hc        1 TYD     -0.023633
     36 H52         2.7080   -7.7540   -6.7650 hc        1 TYD     -0.023633
     37 H53         0.9530   -7.6010   -6.6040 hc        1 TYD     -0.023633
     38 H6          0.0060   -6.1930   -4.8650 h4        1 TYD      0.115000
@<TRIPOS>BOND
     1    1    2 1   
     2    1    3 1   
     3    1    4 1   
     4    1    9 1   
     5    4    5 1   
     6    5    6 1   
     7    5    7 1   
     8    5    8 1   
     9    9   10 1   
    10   10   11 1   
    11   10   26 1   
    12   10   27 1   
    13   11   12 1   
    14   11   13 1   
    15   11   28 1   
    16   12   16 1   
    17   13   14 1   
    18   13   15 1   
    19   13   29 1   
    20   14   30 1   
    21   15   16 1   
    22   15   31 1   
    23   15   32 1   
    24   16   17 1   
    25   16   33 1   
    26   17   18 1   
    27   17   25 1   
    28   18   19 2   
    29   18   20 1   
    30   20   21 1   
    31   20   34 1   
    32   21   22 2   
    33   21   23 1   
    34   23   24 1   
    35   23   25 2   
    36   24   35 1   
    37   24   36 1   
    38   24   37 1   
    39   25   38 1   
@<TRIPOS>SUBSTRUCTURE
     1 TYD         1 TEMP              0 ****  ****    0 ROOT
