@<TRIPOS>MOLECULE
TYE
   26    22     1     0     0
SMALL
bcc


@<TRIPOS>ATOM
      1 C           0.9590    1.2170   -2.0930 c1        1 TYE     -0.059000
      2 N           2.3410    0.0390   -0.1200 n4        1 TYE     -0.163000
      3 O           1.5040    0.9200   -3.2110 oh        1 TYE     -0.104000
      4 CA          1.5270   -0.7830    0.7780 c3        1 TYE     -0.196000
      5 CB          2.8860   -2.8360    3.5010 c1        1 TYE     -0.186000
      6 CG          3.9500   -2.3590    3.2310 c1        1 TYE     -0.188000
      7 CZ          5.2690   -0.3770    0.7410 c1        1 TYE     -0.126000
      8 CD1         5.2470   -1.8100    2.9470 c3        1 TYE      0.059000
      9 CD2         2.6360    3.5600    1.2080 c1        1 TYE     -0.228000
     10 CE1         5.2700   -1.0280    1.7420 c1        1 TYE     -0.130000
     11 CE2         3.5680    2.9720    0.7420 c1        1 TYE     -0.228000
     12 H           0.7640   -0.1360    1.2870 hx        1 TYE      0.130333
     13 HA          0.0820    1.8890   -2.0390 ha        1 TYE      0.103000
     14 HN          1.7090    0.5270   -0.9290 hn        1 TYE      0.260333
     15 HNA         3.0570   -0.5320   -0.5700 hn        1 TYE      0.260333
     16 HO          1.1040    1.3190   -4.0180 ho        1 TYE      0.233000
     17 HAA         1.0010   -1.5770    0.1820 hx        1 TYE      0.130333
     18 HB          2.1690   -1.2780    1.5600 hx        1 TYE      0.130333
     19 HBA         1.9560   -3.2760    3.7660 ha        1 TYE      0.235000
     20 HOH         6.1180    0.3970   -0.7220 ho        1 TYE      0.263000
     21 HD1         5.9980   -2.6520    2.8520 hc        1 TYE      0.140000
     22 HD2         1.8190    4.0940    1.6300 ha        1 TYE      0.231000
     23 HE1         5.5790   -1.1650    3.8160 hc        1 TYE      0.140000
     24 HE2         4.4280    2.4870    0.3450 ha        1 TYE      0.231000
     25 OH          5.2090    0.3630   -0.3610 oh        1 TYE     -0.200000
     26 HN3         2.8220    0.7710    0.4070 hn        1 TYE      0.260333
@<TRIPOS>BOND
     1    1    3 1   
     2    1   13 1   
     3    2    4 1   
     4    2   14 1   
     5    2   15 1   
     6    2   26 1   
     7    3   16 1   
     8    4   12 1   
     9    4   17 1   
    10    4   18 1   
    11    5    6 1   
    12    5   19 1   
    13    6    8 1   
    14    7   10 1   
    15    7   25 1   
    16    8   10 1   
    17    8   21 1   
    18    8   23 1   
    19    9   11 1   
    20    9   22 1   
    21   11   24 1   
    22   20   25 1   
@<TRIPOS>SUBSTRUCTURE
     1 TYE         1 TEMP              0 ****  ****    0 ROOT
