@<TRIPOS>MOLECULE
TYE
   25    25     1     0     0
SMALL
bcc


@<TRIPOS>ATOM
      1 C          -3.5450    0.3060   -0.4550 c3        1 TYE      0.140400
      2 N          -1.9480   -1.2340    0.6390 n3        1 TYE     -0.906800
      3 O          -4.4880    0.3950    0.5890 oh        1 TYE     -0.599800
      4 CA         -2.1130    0.0910    0.0760 c3        1 TYE      0.121500
      5 CB         -1.1290    0.4510   -1.0540 c3        1 TYE     -0.070100
      6 CG          0.2860    0.3120   -0.6240 ca        1 TYE     -0.122300
      7 CZ          2.9490    0.0590    0.1790 ca        1 TYE      0.125100
      8 CD1         0.9680    1.4070   -0.0730 ca        1 TYE     -0.094000
      9 CD2         0.9540   -0.9080   -0.7680 ca        1 TYE     -0.094000
     10 CE1         2.2930    1.2920    0.3300 ca        1 TYE     -0.181000
     11 CE2         2.2820   -1.0450   -0.3700 ca        1 TYE     -0.181000
     12 H          -3.8330   -0.5110   -1.1700 h1        1 TYE      0.042200
     13 HA         -3.6080    1.2980   -0.9790 h1        1 TYE      0.042200
     14 HN         -2.0440   -1.9340   -0.0710 hn        1 TYE      0.350300
     15 HNA        -1.0390   -1.3190    1.0530 hn        1 TYE      0.350300
     16 HO         -4.4010   -0.3990    1.1320 ho        1 TYE      0.415000
     17 HAA        -1.9540    0.8240    0.9240 h1        1 TYE      0.075700
     18 HB         -1.3260   -0.2080   -1.9420 hc        1 TYE      0.053200
     19 HBA        -1.3280    1.5090   -1.3720 hc        1 TYE      0.053200
     20 HOH         4.5880   -0.8910    0.4320 ho        1 TYE      0.420000
     21 HD1         0.4480    2.3700    0.0410 ha        1 TYE      0.134000
     22 HD2         0.4290   -1.7710   -1.2060 ha        1 TYE      0.134000
     23 HE1         2.8350    2.1450    0.7620 ha        1 TYE      0.144000
     24 HE2         2.8020   -2.0060   -0.4880 ha        1 TYE      0.144000
     25 OH          4.2590    0.0050    0.5950 oh        1 TYE     -0.496100
@<TRIPOS>BOND
     1    1    3 1   
     2    1    4 1   
     3    1   12 1   
     4    1   13 1   
     5    2    4 1   
     6    2   14 1   
     7    2   15 1   
     8    3   16 1   
     9    4    5 1   
    10    4   17 1   
    11    5    6 1   
    12    5   18 1   
    13    5   19 1   
    14    6    8 ar  
    15    6    9 ar  
    16    7   10 ar  
    17    7   11 ar  
    18    7   25 1   
    19    8   10 ar  
    20    8   21 1   
    21    9   11 ar  
    22    9   22 1   
    23   10   23 1   
    24   11   24 1   
    25   20   25 1   
@<TRIPOS>SUBSTRUCTURE
     1 TYE         1 TEMP              0 ****  ****    0 ROOT
