@<TRIPOS>MOLECULE
TYE
   26    21     1     0     0
SMALL
bcc


@<TRIPOS>ATOM
      1 C           0.7870   -0.1700   -0.0260 c1        1 TYE     -0.021000
      2 N           3.3960   -0.3140   -0.4210 n8        1 TYE     -0.243000
      3 O           0.1930    0.7800    0.6120 oh        1 TYE     -0.115000
      4 CA          3.7560   -0.4000   -1.8300 c3        1 TYE     -0.183000
      5 CB          3.0200    2.3210    1.4660 c1        1 TYE     -0.160000
      6 CG          2.5420    3.1810    0.7780 c1        1 TYE     -0.082500
      7 CZ          4.5820   -1.4610    2.4000 c1        1 TYE     -0.145000
      8 CD1         3.9150   -3.8980    3.0920 c3        1 TYE     -0.114000
      9 CD2         2.0020    4.1480   -0.0030 c1        1 TYE     -0.082500
     10 CE1         4.2810   -2.5720    2.7210 c1        1 TYE     -0.123000
     11 CE2         1.5420    5.0290   -0.6760 c1        1 TYE     -0.160000
     12 H           3.2730   -1.3060   -2.2840 h1        1 TYE      0.118667
     13 HA          0.0720   -0.9520   -0.3660 ha        1 TYE      0.156000
     14 HN          2.1390   -0.2310   -0.2600 DU        1 TYE      0.318000
     15 HNA         3.8270    0.5000    0.0080 hn        1 TYE      0.211500
     16 HO          0.8260    1.4800    0.9150 ho        1 TYE      0.290000
     17 HAA         3.3920    0.5170   -2.3650 h1        1 TYE      0.118667
     18 HB          4.8680   -0.4780   -1.9680 h1        1 TYE      0.118667
     19 HBA         3.4770    1.6100    2.1140 ha        1 TYE      0.249000
     20 HOH         5.6820    0.0300    2.5340 ho        1 TYE      0.259000
     21 HD1         4.6070   -4.2730    3.8930 hc        1 TYE      0.111667
     22 HD2         3.9830   -4.5910    2.2140 hc        1 TYE      0.111667
     23 HE1         2.8680   -3.9240    3.4910 hc        1 TYE      0.111667
     24 HE2         1.1330    5.8110   -1.2720 ha        1 TYE      0.249000
     25 OH          4.8840   -0.2210    2.0260 oh        1 TYE     -0.207000
     26 HN3         3.7290   -1.1310    0.0800 hn        1 TYE      0.211500
@<TRIPOS>BOND
     1    1    3 1   
     2    1   13 1   
     3    2    4 1   
     4    2   15 1   
     5    2   26 1   
     6    3   16 1   
     7    4   12 1   
     8    4   17 1   
     9    4   18 1   
    10    5    6 1   
    11    5   19 1   
    12    6    9 1   
    13    7   10 1   
    14    7   25 1   
    15    8   10 1   
    16    8   21 1   
    17    8   22 1   
    18    8   23 1   
    19    9   11 1   
    20   11   24 1   
    21   20   25 1   
@<TRIPOS>SUBSTRUCTURE
     1 TYE         1 TEMP              0 ****  ****    0 ROOT
