@<TRIPOS>MOLECULE
TYF
   22    22     1     0     0
SMALL
bcc


@<TRIPOS>ATOM
      1 O2          4.0470   -0.7590    0.1770 o         1 TYF     -0.832300
      2 C1          3.1710    0.0280   -0.2860 c         1 TYF      0.893600
      3 O1          3.4000    1.1690   -0.7660 o         1 TYF     -0.832300
      4 C2          1.7020   -0.4770   -0.2500 c3        1 TYF      0.015100
      5 C3          0.8690    0.4440    0.6380 c3        1 TYF     -0.052100
      6 O3         -4.7310    0.2400   -0.1920 oh        1 TYF     -0.517100
      7 C4         -0.5970    0.3680    0.3940 ca        1 TYF     -0.071300
      8 O4          1.6220   -1.8130    0.2230 oh        1 TYF     -0.655800
      9 C5         -1.2420   -0.8720    0.2910 ca        1 TYF     -0.100000
     10 C6         -2.6170   -0.9450    0.0940 ca        1 TYF     -0.191500
     11 C7         -3.3610    0.2390   -0.0030 ca        1 TYF      0.088100
     12 C8         -2.7350    1.4890    0.0910 ca        1 TYF     -0.191500
     13 C9         -1.3570    1.5400    0.2880 ca        1 TYF     -0.100000
     14 H2          1.2860   -0.4880   -1.2940 h1        1 TYF      0.042700
     15 H3          1.0650    0.1800    1.7120 hc        1 TYF      0.060700
     16 H3A         1.2350    1.4930    0.4650 hc        1 TYF      0.060700
     17 HO3        -5.0100   -0.6820   -0.2750 ho        1 TYF      0.405000
     18 HO4         2.5000   -2.0430    0.5710 ho        1 TYF      0.428000
     19 H5         -0.6350   -1.7920    0.3580 ha        1 TYF      0.151000
     20 H6         -3.1160   -1.9200    0.0110 ha        1 TYF      0.125000
     21 H8         -3.3330    2.4050    0.0060 ha        1 TYF      0.125000
     22 H9         -0.8570    2.5180    0.3540 ha        1 TYF      0.151000
@<TRIPOS>BOND
     1    1    2 1   
     2    2    3 1   
     3    2    4 1   
     4    4    5 1   
     5    4    8 1   
     6    4   14 1   
     7    5    7 1   
     8    5   15 1   
     9    5   16 1   
    10    6   11 1   
    11    6   17 1   
    12    7    9 ar  
    13    7   13 ar  
    14    8   18 1   
    15    9   10 ar  
    16    9   19 1   
    17   10   11 ar  
    18   10   20 1   
    19   11   12 ar  
    20   12   13 ar  
    21   12   21 1   
    22   13   22 1   
@<TRIPOS>SUBSTRUCTURE
     1 TYF         1 TEMP              0 ****  ****    0 ROOT
