@<TRIPOS>MOLECULE
TYF
   22    22     1     0     0
SMALL
bcc


@<TRIPOS>ATOM
      1 O2          0.0150   -0.0010   -0.2090 o         1 TYF     -0.832300
      2 C1          1.2270    0.2700    0.0330 c         1 TYF      0.893600
      3 O1          2.0480    0.7350   -0.8010 o         1 TYF     -0.832300
      4 C2          1.7180    0.0000    1.4820 c3        1 TYF      0.015100
      5 C3          2.8210   -1.0560    1.4570 c3        1 TYF     -0.052100
      6 O3          6.1740   -1.2040    6.0200 oh        1 TYF     -0.517100
      7 C4          3.6850   -1.0680    2.6680 ca        1 TYF     -0.071300
      8 O4          0.6560   -0.4240    2.3210 oh        1 TYF     -0.655800
      9 C5          3.1200   -1.0280    3.9500 ca        1 TYF     -0.100000
     10 C6          3.9240   -1.0700    5.0850 ca        1 TYF     -0.191500
     11 C7          5.3160   -1.1520    4.9370 ca        1 TYF      0.088100
     12 C8          5.9010   -1.1870    3.6640 ca        1 TYF     -0.191500
     13 C9          5.0780   -1.1430    2.5420 ca        1 TYF     -0.100000
     14 H2          2.1080    0.9550    1.9270 h1        1 TYF      0.042700
     15 H3          3.4430   -0.8660    0.5410 hc        1 TYF      0.060700
     16 H3A         2.3450   -2.0680    1.3500 hc        1 TYF      0.060700
     17 HO3         5.6330   -1.1330    6.8180 ho        1 TYF      0.405000
     18 HO4        -0.1060   -0.6050    1.7450 ho        1 TYF      0.428000
     19 H5          2.0220   -0.9510    4.0440 ha        1 TYF      0.151000
     20 H6          3.4760   -1.0350    6.0870 ha        1 TYF      0.125000
     21 H8          6.9930   -1.2440    3.5680 ha        1 TYF      0.125000
     22 H9          5.5310   -1.1620    1.5390 ha        1 TYF      0.151000
@<TRIPOS>BOND
     1    1    2 1   
     2    2    3 1   
     3    2    4 1   
     4    4    5 1   
     5    4    8 1   
     6    4   14 1   
     7    5    7 1   
     8    5   15 1   
     9    5   16 1   
    10    6   11 1   
    11    6   17 1   
    12    7    9 ar  
    13    7   13 ar  
    14    8   18 1   
    15    9   10 ar  
    16    9   19 1   
    17   10   11 ar  
    18   10   20 1   
    19   11   12 ar  
    20   12   13 ar  
    21   12   21 1   
    22   13   22 1   
@<TRIPOS>SUBSTRUCTURE
     1 TYF         1 TEMP              0 ****  ****    0 ROOT
