@<TRIPOS>MOLECULE
TYI
   23    23     1     0     0
SMALL
bcc


@<TRIPOS>ATOM
      1 N           1.1120    0.9040    3.7290 n3        1 TYI     -0.892800
      2 CA         -0.2640    0.4240    3.7350 c3        1 TYI      0.017500
      3 CB         -0.4510   -0.8500    2.9030 c3        1 TYI     -0.032100
      4 CG         -0.3250   -0.6120    1.4400 ca        1 TYI     -0.073300
      5 CD1         0.9340   -0.4820    0.8430 ca        1 TYI     -0.046000
      6 CE1         1.0590   -0.2790   -0.5300 ca        1 TYI     -0.036100
      7 CD2        -1.4660   -0.5160    0.6370 ca        1 TYI     -0.046000
      8 CE2        -1.3690   -0.3110   -0.7390 ca        1 TYI     -0.036100
      9 CZ         -0.0970   -0.1920   -1.3260 ca        1 TYI      0.166100
     10 OH         -0.0580    0.0000   -2.6890 oh        1 TYI     -0.495100
     11 C          -0.8490    0.1530    5.1650 c         1 TYI      0.889600
     12 O          -0.1230    0.4320    6.1600 o         1 TYI     -0.837300
     13 OXT        -2.0190   -0.3120    5.2320 o         1 TYI     -0.837300
     14 I1          2.9280   -0.1150   -1.2980 i         1 TYI     -0.163400
     15 I2         -3.0890   -0.1970   -1.8020 i         1 TYI     -0.163400
     16 H           1.6820    0.2220    4.2000 hn        1 TYI      0.333300
     17 H2          1.1400    1.7320    4.3000 hn        1 TYI      0.333300
     18 HA         -0.9020    1.2370    3.2810 h1        1 TYI      0.045700
     19 HB2         0.2950   -1.6270    3.2200 hc        1 TYI      0.063700
     20 HB3        -1.4770   -1.2460    3.1460 hc        1 TYI      0.063700
     21 HD1         1.8300   -0.5290    1.4850 ha        1 TYI      0.161000
     22 HD2        -2.4580   -0.6020    1.1140 ha        1 TYI      0.161000
     23 HH          0.8710    0.1070   -2.9520 ho        1 TYI      0.423000
@<TRIPOS>BOND
     1    1    2 1   
     2    1   16 1   
     3    1   17 1   
     4    2    3 1   
     5    2   11 1   
     6    2   18 1   
     7    3    4 1   
     8    3   19 1   
     9    3   20 1   
    10    4    5 ar  
    11    4    7 ar  
    12    5    6 ar  
    13    5   21 1   
    14    6    9 ar  
    15    6   14 1   
    16    7    8 ar  
    17    7   22 1   
    18    8    9 ar  
    19    8   15 1   
    20    9   10 1   
    21   10   23 1   
    22   11   12 1   
    23   11   13 1   
@<TRIPOS>SUBSTRUCTURE
     1 TYI         1 TEMP              0 ****  ****    0 ROOT
