@<TRIPOS>MOLECULE
TYJ
   28    28     1     0     0
SMALL
bcc


@<TRIPOS>ATOM
      1 N           2.1290    1.2250    0.5860 n3        1 TYJ     -0.835200
      2 CA          1.8840   -0.1650    0.2060 c3        1 TYJ      0.026500
      3 C           3.1810   -0.9720   -0.1610 c         1 TYJ      0.898600
      4 O           4.2730   -0.3460   -0.2520 o         1 TYJ     -0.833800
      5 CN          2.1550    1.4420    2.0090 c3        1 TYJ      0.162100
      6 CB7         0.9310   -0.2610   -0.9960 c3        1 TYJ     -0.030100
      7 CG5        -0.4950   -0.0590   -0.6260 ca        1 TYJ     -0.114300
      8 CD12       -1.0990    1.2170   -0.6090 ca        1 TYJ      0.145100
      9 CD21       -1.2750   -1.1680   -0.2890 ca        1 TYJ     -0.136000
     10 CE11       -2.4570    1.3830   -0.2930 ca        1 TYJ     -0.179000
     11 CE21       -2.6250   -1.0170    0.0350 ca        1 TYJ     -0.009900
     12 CZ1        -3.2210    0.2580    0.0270 ca        1 TYJ      0.113100
     13 OZ         -3.4480   -2.0840    0.3600 oh        1 TYJ     -0.535100
     14 OH1        -4.5540    0.4570    0.3230 oh        1 TYJ     -0.510100
     15 HA          1.4040   -0.7180    1.0650 h1        1 TYJ      0.043700
     16 HCN1        1.1430    1.2160    2.4380 h1        1 TYJ      0.014367
     17 HCN2        2.9120    0.8150    2.5550 h1        1 TYJ      0.014367
     18 HCN3        2.3910    2.5220    2.2030 h1        1 TYJ      0.014367
     19 HB14        1.2300    0.4680   -1.7950 hc        1 TYJ      0.061700
     20 HB26        1.0610   -1.2950   -1.4240 hc        1 TYJ      0.061700
     21 HD23       -0.8140   -2.1680   -0.2790 ha        1 TYJ      0.148000
     22 HE12       -2.9110    2.3820   -0.2960 ha        1 TYJ      0.153000
     23 HOZ        -2.8750   -2.8480    0.5070 ho        1 TYJ      0.422000
     24 HO1        -4.9240   -0.4010    0.5750 ho        1 TYJ      0.426000
     25 H2          3.0200    1.4940    0.1920 hn        1 TYJ      0.377800
     26 OXT         3.0390   -2.2130   -0.3350 o         1 TYJ     -0.833800
     27 OG1        -0.4250    2.3700   -0.9310 oh        1 TYJ     -0.524100
     28 HG1         0.5260    2.2060   -0.8130 ho        1 TYJ      0.459000
@<TRIPOS>BOND
     1    1    2 1   
     2    1    5 1   
     3    1   25 1   
     4    2    3 1   
     5    2    6 1   
     6    2   15 1   
     7    3    4 1   
     8    3   26 1   
     9    5   16 1   
    10    5   17 1   
    11    5   18 1   
    12    6    7 1   
    13    6   19 1   
    14    6   20 1   
    15    7    8 ar  
    16    7    9 ar  
    17    8   10 ar  
    18    8   27 1   
    19    9   11 ar  
    20    9   21 1   
    21   10   12 ar  
    22   10   22 1   
    23   11   12 ar  
    24   11   13 1   
    25   12   14 1   
    26   13   23 1   
    27   14   24 1   
    28   27   28 1   
@<TRIPOS>SUBSTRUCTURE
     1 TYJ         1 TEMP              0 ****  ****    0 ROOT
