@<TRIPOS>MOLECULE
TYL
   20    20     1     0     0
SMALL
bcc


@<TRIPOS>ATOM
      1 C1          0.0610   -0.1740   -0.0060 ca        1 TYL      0.035600
      2 C2          1.4380   -0.4450    0.1360 ca        1 TYL     -0.134500
      3 C3          2.0400   -0.3950    1.3890 ca        1 TYL     -0.158000
      4 C4          1.2820   -0.0730    2.5200 ca        1 TYL      0.096100
      5 C5         -0.0900    0.2010    2.4010 ca        1 TYL     -0.158000
      6 C6         -0.6900    0.1500    1.1520 ca        1 TYL     -0.134500
      7 N          -0.6070   -0.2070   -1.2420 ns        1 TYL     -0.472100
      8 C          -0.0760   -0.5140   -2.4870 c         1 TYL      0.665100
      9 CM         -1.0480   -0.4710   -3.6470 c3        1 TYL     -0.178100
     10 O4          1.8160   -0.0060    3.7880 oh        1 TYL     -0.499100
     11 O           1.1190   -0.8090   -2.6670 o         1 TYL     -0.593100
     12 H2          2.0550   -0.7010   -0.7410 ha        1 TYL      0.153000
     13 H3          3.1140   -0.6090    1.4840 ha        1 TYL      0.143500
     14 H5         -0.6730    0.4520    3.2980 ha        1 TYL      0.143500
     15 H6         -1.7670    0.3670    1.0760 ha        1 TYL      0.153000
     16 HN         -1.5770    0.0120   -1.2080 hn        1 TYL      0.313500
     17 HM1        -1.8750   -1.2050   -3.4950 hc        1 TYL      0.068367
     18 HM2        -1.4800    0.5520   -3.7600 hc        1 TYL      0.068367
     19 HM3        -0.4950   -0.7360   -4.5810 hc        1 TYL      0.068367
     20 HO4         2.7590   -0.2150    3.7220 ho        1 TYL      0.418000
@<TRIPOS>BOND
     1    1    2 ar  
     2    1    6 ar  
     3    1    7 1   
     4    2    3 ar  
     5    2   12 1   
     6    3    4 ar  
     7    3   13 1   
     8    4    5 ar  
     9    4   10 1   
    10    5    6 ar  
    11    5   14 1   
    12    6   15 1   
    13    7    8 1   
    14    7   16 1   
    15    8    9 1   
    16    8   11 2   
    17    9   17 1   
    18    9   18 1   
    19    9   19 1   
    20   10   20 1   
@<TRIPOS>SUBSTRUCTURE
     1 TYL         1 TEMP              0 ****  ****    0 ROOT
