@<TRIPOS>MOLECULE
TYL
   21    21     1     0     0
SMALL
bcc


@<TRIPOS>ATOM
      1 C1          0.3290    0.4000   -0.3090 ca        1 TYL     -0.124400
      2 C2          1.6950    0.2040   -0.0100 ca        1 TYL     -0.057500
      3 C3          2.0700   -0.1880    1.2630 ca        1 TYL     -0.171000
      4 C4          1.0820   -0.3870    2.2530 ca        1 TYL      0.201100
      5 C5         -0.2790   -0.1910    1.9540 ca        1 TYL     -0.171000
      6 C6         -0.6550    0.2020    0.6770 ca        1 TYL     -0.057500
      7 N          -0.0560    0.8320   -1.6520 n4        1 TYL     -0.542200
      8 C          -0.0210   -0.3280   -2.6440 c         1 TYL      0.559100
      9 CM         -1.1270   -1.3160   -2.5340 c3        1 TYL     -0.182100
     10 O4          1.5300   -0.7710    3.4780 oh        1 TYL     -0.454100
     11 O           0.9110   -0.2970   -3.4290 o         1 TYL     -0.402100
     12 H2          2.4730    0.3600   -0.7770 ha        1 TYL      0.159000
     13 H3          3.1310   -0.3460    1.5200 ha        1 TYL      0.182000
     14 H5         -1.0460   -0.3430    2.7310 ha        1 TYL      0.182000
     15 H6         -1.7250    0.3600    0.4600 ha        1 TYL      0.159000
     16 HN         -1.0020    1.2250   -1.6230 hn        1 TYL      0.461300
     17 HM1        -1.3810   -1.5410   -1.4670 hc        1 TYL      0.114700
     18 HM2        -2.0370   -0.9220   -3.0580 hc        1 TYL      0.114700
     19 HM3        -0.8080   -2.2660   -3.0410 hc        1 TYL      0.114700
     20 HO4         0.7740   -0.8680    4.0820 ho        1 TYL      0.450000
     21 HN3         0.6010    1.5620   -1.9630 hn        1 TYL      0.461300
@<TRIPOS>BOND
     1    1    2 ar  
     2    1    6 ar  
     3    1    7 1   
     4    2    3 ar  
     5    2   12 1   
     6    3    4 ar  
     7    3   13 1   
     8    4    5 ar  
     9    4   10 1   
    10    5    6 ar  
    11    5   14 1   
    12    6   15 1   
    13    7    8 1   
    14    7   16 1   
    15    7   21 1   
    16    8    9 1   
    17    8   11 2   
    18    9   17 1   
    19    9   18 1   
    20    9   19 1   
    21   10   20 1   
@<TRIPOS>SUBSTRUCTURE
     1 TYL         1 TEMP              0 ****  ****    0 ROOT
