@<TRIPOS>MOLECULE
TYL
   20    20     1     0     0
SMALL
bcc


@<TRIPOS>ATOM
      1 C1          0.3850    0.0950    0.2290 ca        1 TYL      0.035600
      2 C2         -0.9050    0.2050   -0.3300 ca        1 TYL     -0.134500
      3 C3         -1.0760    0.2150   -1.7110 ca        1 TYL     -0.158000
      4 C4          0.0350    0.1160   -2.5560 ca        1 TYL      0.096100
      5 C5          1.3270    0.0060   -2.0200 ca        1 TYL     -0.158000
      6 C6          1.4970   -0.0040   -0.6440 ca        1 TYL     -0.134500
      7 N           0.6240    0.0790    1.6140 n         1 TYL     -0.472100
      8 C          -0.3060    0.1630    2.6400 c         1 TYL      0.665100
      9 CM          0.2540    0.1190    4.0450 c3        1 TYL     -0.178100
     10 O4         -0.0650    0.1200   -3.9300 oh        1 TYL     -0.499100
     11 O          -1.5310    0.2690    2.4440 o         1 TYL     -0.593100
     12 H2         -1.7960    0.2850    0.3170 ha        1 TYL      0.153000
     13 H3         -2.0880    0.3020   -2.1320 ha        1 TYL      0.143500
     14 H5          2.1900   -0.0710   -2.6970 ha        1 TYL      0.143500
     15 H6          2.5180   -0.0910   -0.2400 ha        1 TYL      0.153000
     16 HN          1.5800   -0.0030    1.8790 hn        1 TYL      0.313500
     17 HM1        -0.5950    0.1960    4.7670 hc        1 TYL      0.068367
     18 HM2         0.7950   -0.8410    4.2220 hc        1 TYL      0.068367
     19 HM3         0.9530    0.9730    4.2160 hc        1 TYL      0.068367
     20 HO4        -1.0030    0.2010   -4.1570 ho        1 TYL      0.418000
@<TRIPOS>BOND
     1    1    2 ar  
     2    1    6 ar  
     3    1    7 1   
     4    2    3 ar  
     5    2   12 1   
     6    3    4 ar  
     7    3   13 1   
     8    4    5 ar  
     9    4   10 1   
    10    5    6 ar  
    11    5   14 1   
    12    6   15 1   
    13    7    8 1   
    14    7   16 1   
    15    8    9 1   
    16    8   11 2   
    17    9   17 1   
    18    9   18 1   
    19    9   19 1   
    20   10   20 1   
@<TRIPOS>SUBSTRUCTURE
     1 TYL         1 TEMP              0 ****  ****    0 ROOT
