@<TRIPOS>MOLECULE
TYL
   20    20     1     0     0
SMALL
bcc


@<TRIPOS>ATOM
      1 C1          0.0630   -0.1680   -0.0070 ca        1 TYL      0.035600
      2 C2          1.4370   -0.4510    0.1370 ca        1 TYL     -0.134500
      3 C3          2.0370   -0.4050    1.3910 ca        1 TYL     -0.158000
      4 C4          1.2800   -0.0750    2.5210 ca        1 TYL      0.096100
      5 C5         -0.0880    0.2110    2.3990 ca        1 TYL     -0.158000
      6 C6         -0.6870    0.1640    1.1500 ca        1 TYL     -0.134500
      7 N          -0.6030   -0.1950   -1.2450 n         1 TYL     -0.472100
      8 C          -0.0770   -0.5220   -2.4860 c         1 TYL      0.665100
      9 CM         -1.0460   -0.4690   -3.6480 c3        1 TYL     -0.178100
     10 O4          1.8140   -0.0110    3.7890 oh        1 TYL     -0.499100
     11 O           1.1130   -0.8410   -2.6620 o         1 TYL     -0.593100
     12 H2          2.0530   -0.7140   -0.7390 ha        1 TYL      0.153000
     13 H3          3.1100   -0.6290    1.4880 ha        1 TYL      0.143500
     14 H5         -0.6710    0.4690    3.2950 ha        1 TYL      0.143500
     15 H6         -1.7620    0.3910    1.0720 ha        1 TYL      0.153000
     16 HN         -1.5700    0.0400   -1.2130 hn        1 TYL      0.313500
     17 HM1        -0.4970   -0.7520   -4.5790 hc        1 TYL      0.068367
     18 HM2        -1.4580    0.5610   -3.7690 hc        1 TYL      0.068367
     19 HM3        -1.8870   -1.1860   -3.4910 hc        1 TYL      0.068367
     20 HO4         2.7550   -0.2300    3.7250 ho        1 TYL      0.418000
@<TRIPOS>BOND
     1    1    2 ar  
     2    1    6 ar  
     3    1    7 1   
     4    2    3 ar  
     5    2   12 1   
     6    3    4 ar  
     7    3   13 1   
     8    4    5 ar  
     9    4   10 1   
    10    5    6 ar  
    11    5   14 1   
    12    6   15 1   
    13    7    8 1   
    14    7   16 1   
    15    8    9 1   
    16    8   11 2   
    17    9   17 1   
    18    9   18 1   
    19    9   19 1   
    20   10   20 1   
@<TRIPOS>SUBSTRUCTURE
     1 TYL         1 TEMP              0 ****  ****    0 ROOT
