@<TRIPOS>MOLECULE
TYM
   60    52     1     0     0
SMALL
bcc


@<TRIPOS>ATOM
      1 P           2.3070    2.3990   -1.3450 p3        1 TYM      2.569000
      2 O1P         3.4660    2.9720   -2.1730 os        1 TYM     -1.111000
      3 O2P         2.8120    2.0470    0.0700 o         1 TYM     -1.163000
      4 O5'         1.7480    1.0880   -2.0580 os        1 TYM     -0.726000
      5 C5'         2.0860   -0.1890   -1.5160 c3        1 TYM      0.049000
      6 C4'         0.9600   -1.2160   -1.8660 c3        1 TYM     -0.048000
      7 O4'         1.4440   -2.2100   -2.5430 os        1 TYM     -0.275000
      8 C1'         0.6120   -3.4910   -2.1010 c3        1 TYM      0.121000
      9 N9          1.3710   -4.6690   -2.3300 n3        1 TYM     -0.184000
     10 C4          0.8970   -5.7820   -2.9540 c1        1 TYM      0.064000
     11 N3         -0.3590   -6.1360   -3.3820 n1        1 TYM     -0.193000
     12 C2         -0.5580   -7.3560   -4.0430 c1        1 TYM      0.006000
     13 N1          0.4780   -8.1770   -4.2590 n1        1 TYM     -0.274000
     14 C6          1.7220   -7.8290   -3.8360 c1        1 TYM      0.212000
     15 N6          2.6150   -9.0050   -3.9180 n2        1 TYM     -0.344000
     16 C5          1.9260   -6.6010   -3.1700 c1        1 TYM     -0.230000
     17 N7          3.0360   -6.0120   -2.6860 n1        1 TYM     -0.136000
     18 C8          2.6850   -4.8160   -2.1680 c1        1 TYM     -0.027000
     19 C2'         0.3700   -3.3470   -0.7910 c3        1 TYM      0.000000
     20 O2'        -0.9720   -3.9130   -0.4490 oh        1 TYM     -0.315000
     21 C3'         0.3770   -1.8560   -0.5520 c3        1 TYM      0.002000
     22 O3'        -0.8750   -1.4160   -0.3370 oh        1 TYM     -0.363000
     23 NH3        -1.3260    3.6130    0.6510 n3        1 TYM     -0.327000
     24 CA         -0.4780    4.7120    0.3560 c3        1 TYM     -0.027000
     25 CB         -0.3600    5.6170    1.5990 c3        1 TYM     -0.090000
     26 CG         -1.6120    5.4840    2.4440 c2        1 TYM     -0.135000
     27 CD2        -1.8740    4.9140    3.6800 c1        1 TYM     -0.074000
     28 CE2        -3.2190    5.0440    3.9300 c1        1 TYM     -0.007000
     29 CE3        -1.0340    4.2830    4.6330 c1        1 TYM     -0.077000
     30 CD1        -2.8000    5.9630    1.9360 c1        1 TYM     -0.062000
     31 NE1        -3.7930    5.6940    2.8500 n1        1 TYM     -0.225000
     32 CZ2        -3.7630    4.5510    5.1300 c1        1 TYM     -0.154000
     33 CZ3        -1.5630    3.8030    5.8010 c1        1 TYM     -0.143500
     34 CH2        -2.9460    3.9360    6.0570 c1        1 TYM     -0.143500
     35 C           0.8960    4.2080   -0.0330 c2        1 TYM      0.300000
     36 O           1.8510    4.5300    0.6110 o         1 TYM     -0.394000
     37 OPP         1.0700    3.5470   -1.2300 os        1 TYM     -0.677000
     38 H5'1        2.1700   -0.1220   -0.5690 h1        1 TYM      0.064000
     39 H5'2        2.9100   -0.4800   -1.8880 h1        1 TYM      0.064000
     40 H4'C        0.2620   -0.7850   -2.3610 h1        1 TYM      0.135000
     41 H1'C       -0.2910   -3.5380   -2.6310 h2        1 TYM      0.155000
     42 HC2        -1.4370   -7.6020   -4.3420 ha        1 TYM      0.179000
     43 HN61        3.5420   -8.9170   -3.7000 hn        1 TYM      0.225000
     44 HN62        2.3210   -9.7440   -4.2380 hn        1 TYM      0.225000
     45 HC8         3.2480   -4.2380   -1.6900 DU        1 TYM      0.213333
     46 H2'C        1.1180   -3.8130   -0.2270 h1        1 TYM      0.127000
     47 H2'O       -0.9390   -4.2860    0.3460 ho        1 TYM      0.226000
     48 H3'C        0.9550   -1.6360    0.2200 h1        1 TYM      0.129000
     49 H3'O       -0.8770   -0.8440    0.3550 ho        1 TYM      0.280000
     50 HH31       -1.9220    3.5280    0.0230 hn        1 TYM      0.152000
     51 HH32       -0.8390    2.8660    0.7030 hn        1 TYM      0.152000
     52 HCA        -0.8750    5.2460   -0.4180 h1        1 TYM      0.126000
     53 HCB1        0.4560    5.3350    2.1490 hc        1 TYM      0.106500
     54 HCB2       -0.2680    6.4500    1.3460 hc        1 TYM      0.106500
     55 HE3C       -0.1240    4.1930    4.4640 ha        1 TYM      0.143000
     56 HD1C       -2.9210    6.4490    1.0370 DU        1 TYM      0.213333
     57 HE1N       -4.7010    5.8530    2.7300 DU        1 TYM      0.213333
     58 HZ2C       -4.7410    4.6470    5.3120 ha        1 TYM      0.122000
     59 HZ3C       -0.9560    3.3470    6.4870 ha        1 TYM      0.121500
     60 HH2C       -3.2850    3.7070    6.8820 ha        1 TYM      0.121500
@<TRIPOS>BOND
     1    1    3 1   
     2    1    4 1   
     3    1   37 1   
     4    4    5 1   
     5    5    6 1   
     6    5   38 1   
     7    5   39 1   
     8    6    7 1   
     9    6   21 1   
    10    6   40 1   
    11    7    8 1   
    12    8    9 1   
    13    8   19 1   
    14    8   41 1   
    15    9   10 1   
    16    9   18 1   
    17   10   16 1   
    18   11   12 1   
    19   12   42 1   
    20   13   14 1   
    21   14   16 1   
    22   15   43 1   
    23   15   44 1   
    24   17   18 1   
    25   19   20 1   
    26   19   21 1   
    27   19   46 1   
    28   20   47 1   
    29   21   22 1   
    30   21   48 1   
    31   22   49 1   
    32   23   24 1   
    33   23   50 1   
    34   23   51 1   
    35   24   25 1   
    36   24   35 1   
    37   24   52 1   
    38   25   26 1   
    39   25   53 1   
    40   25   54 1   
    41   26   27 1   
    42   26   30 1   
    43   27   29 1   
    44   28   32 1   
    45   29   55 1   
    46   30   31 1   
    47   32   58 1   
    48   33   34 1   
    49   33   59 1   
    50   34   60 1   
    51   35   36 1   
    52   35   37 1   
@<TRIPOS>SUBSTRUCTURE
     1 TYM         1 TEMP              0 ****  ****    0 ROOT
