@<TRIPOS>MOLECULE
TYM
   61    65     1     0     0
SMALL
bcc


@<TRIPOS>ATOM
      1 P           1.0750   -0.0420    0.3790 p5        1 TYM      1.704500
      2 O1P         1.9470   -1.1350    0.7540 o         1 TYM     -0.786300
      3 O2P         0.1480    0.6630    1.4470 oh        1 TYM     -0.763400
      4 O5'        -0.0310   -0.4550   -0.7070 os        1 TYM     -0.600200
      5 C5'         0.1930   -1.5990   -1.4980 c3        1 TYM      0.159400
      6 C4'        -0.8370   -2.6810   -1.1470 c3        1 TYM      0.108100
      7 O4'        -1.2660   -3.3180   -2.3610 os        1 TYM     -0.408600
      8 C1'        -0.7270   -4.6400   -2.4730 c3        1 TYM      0.226800
      9 N9          0.1310   -4.7160   -3.6350 na        1 TYM     -0.291000
     10 C4          0.9360   -5.8090   -3.9880 ca        1 TYM      0.453800
     11 N3          1.1820   -6.9880   -3.3400 nb        1 TYM     -0.765000
     12 C2          2.0300   -7.7900   -4.0260 ca        1 TYM      0.693900
     13 N1          2.6470   -7.5950   -5.2200 nb        1 TYM     -0.796000
     14 C6          2.4060   -6.4100   -5.8790 ca        1 TYM      0.768200
     15 N6          2.9910   -6.1430   -7.0850 nv        1 TYM     -0.959500
     16 C5          1.5210   -5.4530   -5.2750 ca        1 TYM     -0.229200
     17 N7          1.0670   -4.1870   -5.6750 nc        1 TYM     -0.548100
     18 C8          0.2480   -3.7820   -4.6930 cd        1 TYM      0.421700
     19 C2'        -0.0040   -4.9810   -1.1280 c3        1 TYM      0.085100
     20 O2'        -0.5790   -6.1300   -0.5500 oh        1 TYM     -0.595800
     21 C3'        -0.2820   -3.7710   -0.2090 c3        1 TYM      0.118100
     22 O3'        -1.2750   -4.0130    0.7660 oh        1 TYM     -0.589800
     23 NH3        -0.7830    3.0090   -0.3640 n8        1 TYM     -0.919800
     24 CA          0.4570    3.1210   -1.1050 c3        1 TYM      0.097500
     25 CB          0.8610    4.5430   -1.5410 c3        1 TYM     -0.035200
     26 CG         -0.1900    5.1880   -2.3350 cc        1 TYM     -0.164400
     27 CD2        -0.6280    4.8130   -3.6640 ca        1 TYM     -0.091800
     28 CE2        -1.6550    5.7600   -4.0390 ca        1 TYM     -0.047200
     29 CE3        -0.2680    3.8060   -4.5620 ca        1 TYM     -0.089000
     30 CD1        -0.9300    6.3140   -1.9660 cd        1 TYM     -0.095100
     31 NE1        -1.8270    6.6550   -2.9780 na        1 TYM     -0.189400
     32 CZ2        -2.2980    5.6790   -5.2840 ca        1 TYM     -0.141000
     33 CZ3        -0.9100    3.7390   -5.7890 ca        1 TYM     -0.150000
     34 CH2        -1.9110    4.6620   -6.1430 ca        1 TYM     -0.110000
     35 C           1.6020    2.5460   -0.2690 c         1 TYM      0.722100
     36 O           2.4400    3.1740    0.3670 o         1 TYM     -0.472000
     37 OPP         1.7860    1.2000   -0.3450 os        1 TYM     -0.639500
     38 H5'1        1.2450   -1.9670   -1.3430 h1        1 TYM      0.066200
     39 H5'2        0.0420   -1.2950   -2.5730 h1        1 TYM      0.066200
     40 H4'C       -1.7670   -2.2120   -0.7180 h1        1 TYM      0.115700
     41 H1'C       -1.6140   -5.3250   -2.6320 h2        1 TYM      0.103700
     42 HC2         2.2610   -8.7630   -3.5410 h5        1 TYM      0.052100
     43 HN61        2.7990   -5.2810   -7.5320 hn        1 TYM      0.451300
     44 HN62        3.6050   -6.7940   -7.5080 hn        1 TYM      0.451300
     45 HC8        -0.3050   -2.8340   -4.6600 h5        1 TYM      0.084800
     46 H2'C        1.1020   -5.1150   -1.2660 h1        1 TYM      0.081700
     47 H2'O       -0.2090   -6.8950   -1.0120 ho        1 TYM      0.439000
     48 H3'C        0.6670   -3.4490    0.3030 h1        1 TYM      0.091700
     49 H3'O       -1.1100   -4.8890    1.1420 ho        1 TYM      0.432000
     50 HCA         0.3620    2.4830   -2.0360 h1        1 TYM      0.093700
     51 HCB1        1.1000    5.1570   -0.6300 hc        1 TYM      0.070200
     52 HCB2        1.8040    4.4650   -2.1470 hc        1 TYM      0.070200
     53 HE3C        0.5190    3.0850   -4.2960 ha        1 TYM      0.133000
     54 HD1C       -0.8790    6.9010   -1.0450 h4        1 TYM      0.169000
     55 HE1N       -2.4120    7.4460   -2.9890 hn        1 TYM      0.302700
     56 HZ2C       -3.0780    6.3970   -5.5670 ha        1 TYM      0.135000
     57 HZ3C       -0.6350    2.9520   -6.5070 ha        1 TYM      0.134000
     58 HH2C       -2.3960    4.5720   -7.1270 ha        1 TYM      0.133000
     59 HH32       -0.8320    3.7080    0.3530 hn        1 TYM      0.368800
     60 HH31       -0.7180    0.9590    1.1640 ho        1 TYM      0.505000
     61 HH33       -1.5610    3.1230   -0.9860 hn        1 TYM      0.368800
@<TRIPOS>BOND
     1    1    2 2   
     2    1    3 1   
     3    1    4 1   
     4    1   37 1   
     5    3   60 1   
     6    4    5 1   
     7    5    6 1   
     8    5   38 1   
     9    5   39 1   
    10    6    7 1   
    11    6   21 1   
    12    6   40 1   
    13    7    8 1   
    14    8    9 1   
    15    8   19 1   
    16    8   41 1   
    17    9   10 1   
    18    9   18 1   
    19   10   11 ar  
    20   10   16 ar  
    21   11   12 ar  
    22   12   13 ar  
    23   12   42 1   
    24   13   14 ar  
    25   14   15 1   
    26   14   16 ar  
    27   15   43 1   
    28   15   44 1   
    29   16   17 1   
    30   17   18 2   
    31   18   45 1   
    32   19   20 1   
    33   19   21 1   
    34   19   46 1   
    35   20   47 1   
    36   21   22 1   
    37   21   48 1   
    38   22   49 1   
    39   23   24 1   
    40   23   59 1   
    41   23   61 1   
    42   24   25 1   
    43   24   35 1   
    44   24   50 1   
    45   25   26 1   
    46   25   51 1   
    47   25   52 1   
    48   26   27 1   
    49   26   30 2   
    50   27   28 ar  
    51   27   29 ar  
    52   28   31 1   
    53   28   32 ar  
    54   29   33 ar  
    55   29   53 1   
    56   30   31 1   
    57   30   54 1   
    58   31   55 1   
    59   32   34 ar  
    60   32   56 1   
    61   33   34 ar  
    62   33   57 1   
    63   34   58 1   
    64   35   36 2   
    65   35   37 1   
@<TRIPOS>SUBSTRUCTURE
     1 TYM         1 TEMP              0 ****  ****    0 ROOT
