@<TRIPOS>MOLECULE
TYM
   62    66     1     0     0
SMALL
bcc


@<TRIPOS>ATOM
      1 P           0.4270   -0.6010   -1.2860 p5        1 TYM      1.536800
      2 O1P         1.2340   -1.7990   -1.0330 o         1 TYM     -0.838000
      3 O2P         0.1320    0.5590   -0.4240 o         1 TYM     -0.838000
      4 O5'        -0.9370   -1.1190   -2.0040 os        1 TYM     -0.575200
      5 C5'        -0.8360   -2.2330   -2.8450 c3        1 TYM      0.177400
      6 C4'        -1.5400   -3.4640   -2.2530 c3        1 TYM      0.107100
      7 O4'        -1.0750   -4.6260   -2.9650 os        1 TYM     -0.404600
      8 C1'        -0.2090   -5.4210   -2.1580 c3        1 TYM      0.208800
      9 N9          1.1620   -5.3560   -2.6470 na        1 TYM     -0.266000
     10 C4          1.7020   -6.2270   -3.6080 ca        1 TYM      0.459800
     11 N3          1.2080   -7.3130   -4.2430 nb        1 TYM     -0.617000
     12 C2          2.0820   -7.8990   -5.1070 ca        1 TYM      0.660900
     13 N1          3.3620   -7.5430   -5.4020 nb        1 TYM     -0.686000
     14 C6          3.8500   -6.4520   -4.7520 ca        1 TYM      0.492200
     15 N6          5.2320   -6.0090   -5.0110 n4        1 TYM     -0.811300
     16 C5          3.0840   -5.7250   -3.8300 ca        1 TYM     -0.122200
     17 N7          3.3180   -4.6010   -3.0400 nc        1 TYM     -0.611100
     18 C8          2.1650   -4.4010   -2.3650 cd        1 TYM      0.523700
     19 C2'        -0.3720   -4.9540   -0.6750 c3        1 TYM      0.092100
     20 O2'        -0.9490   -5.9820    0.0850 oh        1 TYM     -0.576800
     21 C3'        -1.2620   -3.6930   -0.7580 c3        1 TYM      0.092100
     22 O3'        -2.5020   -3.9350   -0.1220 oh        1 TYM     -0.587800
     23 NH3         0.1580    3.1740   -1.2680 n4        1 TYM     -0.843600
     24 CA          0.3310    2.6120   -2.6410 c3        1 TYM      0.041500
     25 CB          0.7070    3.6850   -3.6740 c3        1 TYM     -0.020200
     26 CG          0.0530    4.9770   -3.4380 cc        1 TYM     -0.227400
     27 CD2        -1.3520    5.2380   -3.1950 ca        1 TYM     -0.115800
     28 CE2        -1.4840    6.6730   -3.0820 ca        1 TYM     -0.048200
     29 CE3        -2.4940    4.4400   -3.0750 ca        1 TYM     -0.123000
     30 CD1         0.6970    6.2200   -3.4790 cd        1 TYM     -0.063100
     31 NE1        -0.2150    7.2410   -3.2480 na        1 TYM     -0.175400
     32 CZ2        -2.7300    7.2750   -2.8380 ca        1 TYM     -0.125000
     33 CZ3        -3.7170    5.0460   -2.8370 ca        1 TYM     -0.130000
     34 CH2        -3.8320    6.4450   -2.7170 ca        1 TYM     -0.105000
     35 C           1.4220    1.5180   -2.6150 c         1 TYM      0.712100
     36 O           2.6190    1.7960   -2.6860 o         1 TYM     -0.500000
     37 OPP         1.0360    0.2480   -2.6130 os        1 TYM     -0.575500
     38 H5'1        0.2460   -2.4740   -3.0420 h1        1 TYM      0.050700
     39 H5'2       -1.3460   -1.9730   -3.8160 h1        1 TYM      0.050700
     40 H4'C       -2.6470   -3.4190   -2.4500 h1        1 TYM      0.113700
     41 H1'C       -0.5620   -6.4890   -2.2940 h2        1 TYM      0.127700
     42 HC2         1.7000   -8.7950   -5.6500 h5        1 TYM      0.093100
     43 HN61        5.7770   -6.1270   -4.1490 hn        1 TYM      0.474133
     44 HN62        5.2100   -5.0120   -5.2600 hn        1 TYM      0.474133
     45 HC8         2.0040   -3.5620   -1.6410 h5        1 TYM      0.177800
     46 H2'C        0.6090   -4.7320   -0.1730 h1        1 TYM      0.113700
     47 H2'O       -1.8900   -6.0420   -0.1490 ho        1 TYM      0.429000
     48 H3'C       -0.7330   -2.8060   -0.3120 h1        1 TYM      0.085700
     49 H3'O       -2.3500   -3.8600    0.8290 ho        1 TYM      0.424000
     50 HCA        -0.6600    2.1480   -2.9320 hx        1 TYM      0.120700
     51 HCB1        0.4120    3.2800   -4.6830 hc        1 TYM      0.090200
     52 HCB2        1.8250    3.8170   -3.6820 hc        1 TYM      0.090200
     53 HE3C       -2.4280    3.3490   -3.1960 ha        1 TYM      0.129000
     54 HD1C        1.7540    6.4390   -3.6580 h4        1 TYM      0.180000
     55 HE1N       -0.0260    8.2090   -3.2930 hn        1 TYM      0.314700
     56 HZ2C       -2.8250    8.3660   -2.7540 ha        1 TYM      0.148000
     57 HZ3C       -4.6250    4.4290   -2.7470 ha        1 TYM      0.145000
     58 HH2C       -4.8240    6.8850   -2.5300 ha        1 TYM      0.148000
     59 HH32        1.0450    3.5610   -0.9430 hn        1 TYM      0.475467
     60 H63         5.6620   -6.5500   -5.7700 hn        1 TYM      0.474133
     61 HH31       -0.1420    2.4150   -0.6140 hn        1 TYM      0.475467
     62 HH33       -0.5480    3.9170   -1.3000 hn        1 TYM      0.475467
@<TRIPOS>BOND
     1    1    2 1   
     2    1    3 1   
     3    1    4 1   
     4    1   37 1   
     5    4    5 1   
     6    5    6 1   
     7    5   38 1   
     8    5   39 1   
     9    6    7 1   
    10    6   21 1   
    11    6   40 1   
    12    7    8 1   
    13    8    9 1   
    14    8   19 1   
    15    8   41 1   
    16    9   10 1   
    17    9   18 1   
    18   10   11 ar  
    19   10   16 ar  
    20   11   12 ar  
    21   12   13 ar  
    22   12   42 1   
    23   13   14 ar  
    24   14   15 1   
    25   14   16 ar  
    26   15   43 1   
    27   15   44 1   
    28   15   60 1   
    29   16   17 1   
    30   17   18 2   
    31   18   45 1   
    32   19   20 1   
    33   19   21 1   
    34   19   46 1   
    35   20   47 1   
    36   21   22 1   
    37   21   48 1   
    38   22   49 1   
    39   23   24 1   
    40   23   59 1   
    41   23   61 1   
    42   23   62 1   
    43   24   25 1   
    44   24   35 1   
    45   24   50 1   
    46   25   26 1   
    47   25   51 1   
    48   25   52 1   
    49   26   27 1   
    50   26   30 2   
    51   27   28 ar  
    52   27   29 ar  
    53   28   31 1   
    54   28   32 ar  
    55   29   33 ar  
    56   29   53 1   
    57   30   31 1   
    58   30   54 1   
    59   31   55 1   
    60   32   34 ar  
    61   32   56 1   
    62   33   34 ar  
    63   33   57 1   
    64   34   58 1   
    65   35   36 2   
    66   35   37 1   
@<TRIPOS>SUBSTRUCTURE
     1 TYM         1 TEMP              0 ****  ****    0 ROOT
