@<TRIPOS>MOLECULE
TYM
   61    65     1     0     0
SMALL
bcc


@<TRIPOS>ATOM
      1 P           1.0020   -0.0740    0.4020 p5        1 TYM      1.704500
      2 O1P         1.8550   -1.1770    0.7910 o         1 TYM     -0.786300
      3 O2P         0.0520    0.6280    1.4510 oh        1 TYM     -0.763400
      4 O5'        -0.0790   -0.4700   -0.7160 os        1 TYM     -0.600200
      5 C5'         0.1580   -1.6100   -1.5100 c3        1 TYM      0.159400
      6 C4'        -0.8890   -2.6860   -1.1960 c3        1 TYM      0.108100
      7 O4'        -1.2890   -3.3110   -2.4260 os        1 TYM     -0.408600
      8 C1'        -0.7580   -4.6360   -2.5330 c3        1 TYM      0.226800
      9 N9          0.1310   -4.7100   -3.6720 na        1 TYM     -0.291000
     10 C4          0.9370   -5.8060   -4.0110 ca        1 TYM      0.453800
     11 N3          1.1550   -6.9930   -3.3660 nb        1 TYM     -0.765000
     12 C2          2.0150   -7.7960   -4.0350 ca        1 TYM      0.693900
     13 N1          2.6670   -7.5980   -5.2100 nb        1 TYM     -0.796000
     14 C6          2.4530   -6.4050   -5.8660 ca        1 TYM      0.768200
     15 N6          3.0740   -6.1340   -7.0540 nh        1 TYM     -0.959500
     16 C5          1.5600   -5.4460   -5.2790 ca        1 TYM     -0.229200
     17 N7          1.1270   -4.1730   -5.6810 nc        1 TYM     -0.548100
     18 C8          0.2850   -3.7690   -4.7200 cd        1 TYM      0.421700
     19 C2'        -0.0750   -4.9930   -1.1720 c3        1 TYM      0.085100
     20 O2'        -0.6740   -6.1410   -0.6180 oh        1 TYM     -0.595800
     21 C3'        -0.3680   -3.7870   -0.2520 c3        1 TYM      0.118100
     22 O3'        -1.3890   -4.0290    0.6950 oh        1 TYM     -0.589800
     23 NH3        -0.8140    2.9970   -0.3620 n3        1 TYM     -0.919800
     24 CA          0.4460    3.1070   -1.0690 c3        1 TYM      0.097500
     25 CB          0.8710    4.5290   -1.4800 c3        1 TYM     -0.035200
     26 CG         -0.1530    5.1900   -2.2950 cc        1 TYM     -0.164400
     27 CD2        -0.5580    4.8310   -3.6400 ca        1 TYM     -0.091800
     28 CE2        -1.5680    5.7900   -4.0310 ca        1 TYM     -0.047200
     29 CE3        -0.1810    3.8310   -4.5380 ca        1 TYM     -0.089000
     30 CD1        -0.8960    6.3170   -1.9340 cd        1 TYM     -0.095100
     31 NE1        -1.7630    6.6750   -2.9660 na        1 TYM     -0.189400
     32 CZ2        -2.1790    5.7250   -5.2940 ca        1 TYM     -0.141000
     33 CZ3        -0.7910    3.7810   -5.7820 ca        1 TYM     -0.150000
     34 CH2        -1.7760    4.7150   -6.1520 ca        1 TYM     -0.110000
     35 C           1.5650    2.5150   -0.2090 c         1 TYM      0.722100
     36 O           2.3900    3.1310    0.4540 o         1 TYM     -0.472000
     37 OPP         1.7390    1.1680   -0.2920 os        1 TYM     -0.639500
     38 H5'1        0.0380   -1.2950   -2.5860 h1        1 TYM      0.066200
     39 H5'2        1.2020   -1.9860   -1.3300 h1        1 TYM      0.066200
     40 H4'C       -1.8270   -2.2140   -0.7890 h1        1 TYM      0.115700
     41 H1'C       -1.6460   -5.3130   -2.7220 h2        1 TYM      0.103700
     42 HC2         2.2260   -8.7750   -3.5510 h5        1 TYM      0.052100
     43 HN61        2.9010   -5.2670   -7.4980 hn        1 TYM      0.451300
     44 HN62        3.6930   -6.7860   -7.4640 hn        1 TYM      0.451300
     45 HC8        -0.2620   -2.8170   -4.6940 h5        1 TYM      0.084800
     46 H2'C        1.0340   -5.1350   -1.2810 h1        1 TYM      0.081700
     47 H2'O       -0.2970   -6.9060   -1.0770 ho        1 TYM      0.439000
     48 H3'C        0.5700   -3.4770    0.2880 h1        1 TYM      0.091700
     49 H3'O       -1.2400   -4.9090    1.0680 ho        1 TYM      0.432000
     50 HCA         0.3710    2.4780   -2.0090 h1        1 TYM      0.093700
     51 HCB1        1.0910    5.1330   -0.5580 hc        1 TYM      0.070200
     52 HCB2        1.8290    4.4500   -2.0620 hc        1 TYM      0.070200
     53 HE3C        0.5930    3.1020   -4.2580 ha        1 TYM      0.133000
     54 HD1C       -0.8660    6.8940   -1.0070 h4        1 TYM      0.169000
     55 HE1N       -2.3430    7.4700   -2.9840 hn        1 TYM      0.302700
     56 HZ2C       -2.9470    6.4520   -5.5900 ha        1 TYM      0.135000
     57 HZ3C       -0.5020    3.0000   -6.5010 ha        1 TYM      0.134000
     58 HH2C       -2.2350    4.6380   -7.1500 ha        1 TYM      0.133000
     59 HH32       -1.5750    3.1230   -1.0030 hn        1 TYM      0.368800
     60 HH31       -0.8040    0.9330    1.1480 ho        1 TYM      0.505000
     61 HH33       -0.8770    3.6890    0.3600 hn        1 TYM      0.368800
@<TRIPOS>BOND
     1    1    2 2   
     2    1    3 1   
     3    1    4 1   
     4    1   37 1   
     5    3   60 1   
     6    4    5 1   
     7    5    6 1   
     8    5   38 1   
     9    5   39 1   
    10    6    7 1   
    11    6   21 1   
    12    6   40 1   
    13    7    8 1   
    14    8    9 1   
    15    8   19 1   
    16    8   41 1   
    17    9   10 1   
    18    9   18 1   
    19   10   11 ar  
    20   10   16 ar  
    21   11   12 ar  
    22   12   13 ar  
    23   12   42 1   
    24   13   14 ar  
    25   14   15 1   
    26   14   16 ar  
    27   15   43 1   
    28   15   44 1   
    29   16   17 1   
    30   17   18 2   
    31   18   45 1   
    32   19   20 1   
    33   19   21 1   
    34   19   46 1   
    35   20   47 1   
    36   21   22 1   
    37   21   48 1   
    38   22   49 1   
    39   23   24 1   
    40   23   59 1   
    41   23   61 1   
    42   24   25 1   
    43   24   35 1   
    44   24   50 1   
    45   25   26 1   
    46   25   51 1   
    47   25   52 1   
    48   26   27 1   
    49   26   30 2   
    50   27   28 ar  
    51   27   29 ar  
    52   28   31 1   
    53   28   32 ar  
    54   29   33 ar  
    55   29   53 1   
    56   30   31 1   
    57   30   54 1   
    58   31   55 1   
    59   32   34 ar  
    60   32   56 1   
    61   33   34 ar  
    62   33   57 1   
    63   34   58 1   
    64   35   36 2   
    65   35   37 1   
@<TRIPOS>SUBSTRUCTURE
     1 TYM         1 TEMP              0 ****  ****    0 ROOT
