@<TRIPOS>MOLECULE
TYM
   60    64     1     0     0
SMALL
bcc


@<TRIPOS>ATOM
      1 P           2.5020    2.9310    0.4180 p5        1 TYM      1.436800
      2 O1P         1.9760    4.2850    0.5960 o         1 TYM     -0.790500
      3 O2P         3.8490    2.4270    0.1200 o         1 TYM     -0.790500
      4 O5'         1.4970    2.1990   -0.6870 os        1 TYM     -0.559200
      5 C5'         1.7800    0.8870   -1.0350 c3        1 TYM      0.175400
      6 C4'         0.7930   -0.0950   -0.3820 c3        1 TYM      0.062100
      7 O4'        -0.5730    0.3330   -0.5340 os        1 TYM     -0.388600
      8 C1'        -1.2000   -0.3450   -1.6200 c3        1 TYM      0.256800
      9 N9         -1.2520    0.5060   -2.7900 na        1 TYM     -0.290000
     10 C4         -1.9370    0.2220   -3.9800 ca        1 TYM      0.437800
     11 N3         -2.6160   -0.8930   -4.3890 nb        1 TYM     -0.722000
     12 C2         -3.1520   -0.7530   -5.6220 ca        1 TYM      0.660900
     13 N1         -3.1100    0.2980   -6.4870 nb        1 TYM     -0.800000
     14 C6         -2.4110    1.4110   -6.0910 ca        1 TYM      0.728200
     15 N6         -2.2430    2.4860   -6.9450 nh        1 TYM     -0.945500
     16 C5         -1.8030    1.4260   -4.7950 ca        1 TYM     -0.212200
     17 N7         -1.0700    2.3970   -4.0970 nc        1 TYM     -0.572100
     18 C8         -0.7630    1.8330   -2.9190 cd        1 TYM      0.452700
     19 C2'        -0.4020   -1.6710   -1.8370 c3        1 TYM      0.075100
     20 O2'        -1.2120   -2.7030   -1.3030 oh        1 TYM     -0.597800
     21 C3'         0.8970   -1.4960   -1.0110 c3        1 TYM      0.081100
     22 O3'         1.0060   -2.5280   -0.0530 oh        1 TYM     -0.601800
     23 NH3         2.2530    1.7550    5.3140 n3        1 TYM     -0.898800
     24 CA          1.8420    1.2920    4.0010 c3        1 TYM      0.113500
     25 CB          0.3170    1.1080    3.8730 c3        1 TYM     -0.008200
     26 CG         -0.1420   -0.1450    4.4860 cc        1 TYM     -0.121400
     27 CD2        -0.8130   -1.2260    3.7860 ca        1 TYM     -0.084800
     28 CE2        -1.0770   -2.2520    4.7710 ca        1 TYM     -0.054200
     29 CE3        -1.1950   -1.4320    2.4610 ca        1 TYM     -0.093000
     30 CD1        -0.0290   -0.5350    5.8180 cd        1 TYM     -0.099100
     31 NE1        -0.6320   -1.7860    6.0130 na        1 TYM     -0.200400
     32 CZ2        -1.7030   -3.4540    4.4090 ca        1 TYM     -0.155000
     33 CZ3        -1.8010   -2.6330    2.1150 ca        1 TYM     -0.173000
     34 CH2        -2.0530   -3.6260    3.0770 ca        1 TYM     -0.119000
     35 C           2.3360    2.1720    2.8610 c         1 TYM      0.633100
     36 O           3.1510    3.1060    2.9360 o         1 TYM     -0.600000
     37 OPP         1.8930    1.9050    1.6390 os        1 TYM     -0.535500
     38 H5'1        1.6890    0.8000   -2.1550 h1        1 TYM      0.044700
     39 H5'2        2.8250    0.6090   -0.7160 h1        1 TYM      0.044700
     40 H4'C        0.9480   -0.1130    0.7340 h1        1 TYM      0.110700
     41 H1'C       -2.2580   -0.5650   -1.2840 h2        1 TYM      0.108700
     42 HC2        -3.7210   -1.6320   -5.9930 h5        1 TYM      0.039100
     43 HN61       -2.8360    2.5600   -7.7350 hn        1 TYM      0.428800
     44 HN62       -1.9210    3.3300   -6.5330 hn        1 TYM      0.428800
     45 HC8        -0.1820    2.3000   -2.0950 h5        1 TYM      0.143800
     46 H2'C       -0.1870   -1.8800   -2.9160 h1        1 TYM      0.073700
     47 H2'O       -0.6470   -3.4850   -1.2250 ho        1 TYM      0.418000
     48 H3'C        1.8130   -1.6010   -1.6510 h1        1 TYM      0.096700
     49 H3'O        0.3250   -2.3760    0.6210 ho        1 TYM      0.421000
     50 HCA         2.3320    0.2830    3.8370 h1        1 TYM      0.086700
     51 HCB1       -0.2180    1.9810    4.3340 hc        1 TYM      0.072700
     52 HCB2        0.0610    1.1000    2.7760 hc        1 TYM      0.072700
     53 HE3C       -1.0180   -0.6500    1.7020 ha        1 TYM      0.158000
     54 HD1C        0.4350   -0.0010    6.6510 h4        1 TYM      0.176000
     55 HE1N       -0.4960   -2.3570    6.8030 hn        1 TYM      0.284700
     56 HZ2C       -1.9080   -4.2330    5.1540 ha        1 TYM      0.122000
     57 HZ3C       -2.0870   -2.8120    1.0650 ha        1 TYM      0.143000
     58 HH2C       -2.5380   -4.5610    2.7640 ha        1 TYM      0.121000
     59 HH31        3.2390    1.9440    5.3020 hn        1 TYM      0.352300
     60 HH32        1.7780    2.6090    5.5390 hn        1 TYM      0.352300
@<TRIPOS>BOND
     1    1    2 1   
     2    1    3 1   
     3    1    4 1   
     4    1   37 1   
     5    4    5 1   
     6    5    6 1   
     7    5   38 1   
     8    5   39 1   
     9    6    7 1   
    10    6   21 1   
    11    6   40 1   
    12    7    8 1   
    13    8    9 1   
    14    8   19 1   
    15    8   41 1   
    16    9   10 1   
    17    9   18 1   
    18   10   11 ar  
    19   10   16 ar  
    20   11   12 ar  
    21   12   13 ar  
    22   12   42 1   
    23   13   14 ar  
    24   14   15 1   
    25   14   16 ar  
    26   15   43 1   
    27   15   44 1   
    28   16   17 1   
    29   17   18 2   
    30   18   45 1   
    31   19   20 1   
    32   19   21 1   
    33   19   46 1   
    34   20   47 1   
    35   21   22 1   
    36   21   48 1   
    37   22   49 1   
    38   23   24 1   
    39   23   59 1   
    40   23   60 1   
    41   24   25 1   
    42   24   35 1   
    43   24   50 1   
    44   25   26 1   
    45   25   51 1   
    46   25   52 1   
    47   26   27 1   
    48   26   30 2   
    49   27   28 ar  
    50   27   29 ar  
    51   28   31 1   
    52   28   32 ar  
    53   29   33 ar  
    54   29   53 1   
    55   30   31 1   
    56   30   54 1   
    57   31   55 1   
    58   32   34 ar  
    59   32   56 1   
    60   33   34 ar  
    61   33   57 1   
    62   34   58 1   
    63   35   36 2   
    64   35   37 1   
@<TRIPOS>SUBSTRUCTURE
     1 TYM         1 TEMP              0 ****  ****    0 ROOT
