@<TRIPOS>MOLECULE
TYN
   38    40     1     0     0
SMALL
bcc


@<TRIPOS>ATOM
      1 N          -1.1620    1.0670    4.2940 n3        1 TYN     -0.889800
      2 CA         -0.2650   -0.0260    4.6420 c3        1 TYN      0.020500
      3 CB          1.1550    0.1630    4.0930 c3        1 TYN     -0.041100
      4 CG          1.2080    0.0710    2.6100 ca        1 TYN     -0.016300
      5 CD1         1.3730    1.2200    1.8240 ca        1 TYN     -0.127500
      6 CE1         1.4040    1.1350    0.4340 ca        1 TYN     -0.131000
      7 CD2         1.0870   -1.1780    1.9810 ca        1 TYN     -0.127500
      8 CE2         1.1160   -1.2830    0.5940 ca        1 TYN     -0.131000
      9 CZ          1.2730   -0.1200   -0.1690 ca        1 TYN      0.032100
     10 OC          1.4220   -0.2300   -1.5600 os        1 TYN     -0.243200
     11 C          -0.1510   -0.3140    6.1790 c         1 TYN      0.888600
     12 O          -0.8880    0.3520    6.9590 o         1 TYN     -0.837300
     13 OXT         0.6590   -1.2110    6.5400 o         1 TYN     -0.837300
     14 O1          0.9670   -0.5060   -5.8200 os        1 TYN     -0.211400
     15 N1         -0.3950   -0.2360   -5.8850 na        1 TYN     -0.038300
     16 N2          1.4900   -0.5190   -4.5270 na        1 TYN     -0.017300
     17 C1         -0.7970   -0.0610   -4.5040 ca        1 TYN     -0.170200
     18 C2         -2.0710    0.1410   -3.9620 ca        1 TYN      0.116600
     19 C3         -2.1470    0.2110   -2.5430 ca        1 TYN     -0.145000
     20 C4         -1.0260    0.0940   -1.7400 ca        1 TYN     -0.142000
     21 C5          0.2540   -0.1190   -2.2930 ca        1 TYN      0.134100
     22 C6          0.3620   -0.2110   -3.6780 ca        1 TYN     -0.143200
     23 H          -0.7570    1.9270    4.6230 hn        1 TYN      0.332300
     24 H2         -2.0070    0.9360    4.8270 hn        1 TYN      0.332300
     25 HA         -0.6970   -0.9600    4.1760 h1        1 TYN      0.043700
     26 HB2         1.5690    1.1480    4.4350 hc        1 TYN      0.064700
     27 HB3         1.7880   -0.6490    4.5500 hc        1 TYN      0.064700
     28 HD1         1.4620    2.2010    2.3130 ha        1 TYN      0.142500
     29 HE1         1.5290    2.0340   -0.1840 ha        1 TYN      0.134500
     30 HD2         0.9580   -2.0790    2.6010 ha        1 TYN      0.142500
     31 HE2         1.0230   -2.2590    0.0970 ha        1 TYN      0.134500
     32 HN31       -4.0530    0.2240   -4.2930 hn        1 TYN      0.382300
     33 HN32       -3.1630   -0.1760   -5.6260 hn        1 TYN      0.382300
     34 H3         -3.1270    0.3710   -2.0660 ha        1 TYN      0.141000
     35 H4         -1.1250    0.1630   -0.6430 ha        1 TYN      0.172000
     36 HN1        -0.5030    0.6600   -6.3630 hn        1 TYN      0.189700
     37 N3         -3.1920    0.3550   -4.7800 nh        1 TYN     -0.800200
     38 HN2         2.1660    0.2420   -4.4640 hn        1 TYN      0.198700
@<TRIPOS>BOND
     1    1    2 1   
     2    1   23 1   
     3    1   24 1   
     4    2    3 1   
     5    2   11 1   
     6    2   25 1   
     7    3    4 1   
     8    3   26 1   
     9    3   27 1   
    10    4    5 ar  
    11    4    7 ar  
    12    5    6 ar  
    13    5   28 1   
    14    6    9 ar  
    15    6   29 1   
    16    7    8 ar  
    17    7   30 1   
    18    8    9 ar  
    19    8   31 1   
    20    9   10 1   
    21   10   21 1   
    22   11   12 1   
    23   11   13 1   
    24   14   15 1   
    25   14   16 1   
    26   15   17 1   
    27   15   36 1   
    28   16   22 1   
    29   16   38 1   
    30   17   18 ar  
    31   17   22 ar  
    32   18   19 ar  
    33   18   37 1   
    34   19   20 ar  
    35   19   34 1   
    36   20   21 ar  
    37   20   35 1   
    38   21   22 ar  
    39   32   37 1   
    40   33   37 1   
@<TRIPOS>SUBSTRUCTURE
     1 TYN         1 TEMP              0 ****  ****    0 ROOT
