@<TRIPOS>MOLECULE
TYO
   27    26     1     0     0
SMALL
bcc


@<TRIPOS>ATOM
      1 N           1.5190    2.1560    0.8530 n3        1 TYO     -0.883800
      2 CA          1.8270    0.7970    0.4280 c3        1 TYO      0.023500
      3 CB          1.0790    0.3900   -0.8540 c3        1 TYO     -0.043200
      4 CG         -0.1950   -0.3400   -0.5600 ce        1 TYO      0.026800
      5 CD1        -0.0980   -1.7530   -0.2510 ce        1 TYO     -0.251000
      6 CE1         1.0780   -2.3560    0.0290 c2        1 TYO      0.034100
      7 OE1         1.0670   -3.7050    0.3080 oh        1 TYO     -0.530100
      8 CD2        -1.3710    0.3300   -0.6120 cf        1 TYO     -0.204000
      9 CE2        -2.6720   -0.2240   -0.3430 cf        1 TYO     -0.096000
     10 CZ         -3.7860    0.5280   -0.3810 c2        1 TYO     -0.102900
     11 OH         -5.0220   -0.1300   -0.1720 os        1 TYO     -0.146100
     12 OH1        -5.9350    0.6830    0.2550 oh        1 TYO     -0.402000
     13 C           3.3530    0.5180    0.2250 c         1 TYO      0.886600
     14 O           4.1570    1.4880    0.2870 o         1 TYO     -0.842800
     15 OXT         3.7030   -0.6840    0.0300 o         1 TYO     -0.842800
     16 HN1         2.1160    2.3670    1.6350 hn        1 TYO      0.331800
     17 HN2         1.7890    2.7870    0.1170 hn        1 TYO      0.331800
     18 HA          1.4940    0.1150    1.2650 h1        1 TYO      0.049700
     19 HB1         0.8630    1.2910   -1.4880 hc        1 TYO      0.053200
     20 HB2         1.7550   -0.2780   -1.4550 hc        1 TYO      0.053200
     21 HD1        -1.0290   -2.3400   -0.2460 ha        1 TYO      0.120000
     22 HE1         2.0670   -1.8410    0.0560 h4        1 TYO      0.223000
     23 HOE1        1.9840   -3.9520    0.4930 ho        1 TYO      0.418000
     24 HD21       -1.3530    1.4080   -0.8550 ha        1 TYO      0.123000
     25 HE2        -2.7450   -1.3000   -0.1100 ha        1 TYO      0.132000
     26 HZ         -3.8600    1.6000   -0.5880 h4        1 TYO      0.148000
     27 HOH1       -5.8930    0.6930    1.2370 ho        1 TYO      0.390000
@<TRIPOS>BOND
     1    1    2 1   
     2    1   16 1   
     3    1   17 1   
     4    2    3 1   
     5    2   13 1   
     6    2   18 1   
     7    3    4 1   
     8    3   19 1   
     9    3   20 1   
    10    4    5 1   
    11    4    8 2   
    12    5    6 2   
    13    5   21 1   
    14    6    7 1   
    15    6   22 1   
    16    7   23 1   
    17    8    9 1   
    18    8   24 1   
    19    9   10 2   
    20    9   25 1   
    21   10   11 1   
    22   10   26 1   
    23   11   12 1   
    24   12   27 1   
    25   13   14 1   
    26   13   15 1   
@<TRIPOS>SUBSTRUCTURE
     1 TYO         1 TEMP              0 ****  ****    0 ROOT
