@<TRIPOS>MOLECULE
TYP
   35    35     1     0     0
SMALL
bcc


@<TRIPOS>ATOM
      1 N          -1.8830   -0.9000    0.5700 n         1 TYP     -0.380000
      2 CA         -0.4620   -0.7870    1.0110 c3        1 TYP      0.020000
      3 C          -0.3970   -0.5620    2.6170 c2        1 TYP      0.282000
      4 O          -0.1470   -1.5030    3.3560 o         1 TYP     -0.343000
      5 CB          0.2960    0.2800    0.2440 c3        1 TYP     -0.126000
      6 CG          0.7330   -0.2850   -1.1310 c2        1 TYP     -0.124000
      7 CD1         1.9700   -0.9110   -1.2630 c1        1 TYP     -0.082000
      8 CE1         2.4100   -1.3240   -2.5170 c1        1 TYP     -0.210000
      9 CE2         0.3780   -0.4870   -3.5070 c1        1 TYP     -0.153000
     10 CD2        -0.0630   -0.0730   -2.2530 c2        1 TYP     -0.099000
     11 CZ          1.6140   -1.1120   -3.6390 c1        1 TYP      0.084000
     12 OH          2.0750   -1.5050   -4.9160 oh        1 TYP     -0.248000
     13 NP         -1.2480    0.5080    3.0740 n         1 TYP     -0.300000
     14 CAP        -1.9930    1.1580    1.9740 c3        1 TYP     -0.006000
     15 CP         -2.7340    0.1870    1.0610 c2        1 TYP      0.294000
     16 OP         -3.6730    0.5790    0.3880 o         1 TYP     -0.357000
     17 CBP        -1.0360    1.8490    1.2460 c3        1 TYP     -0.161000
     18 CGP         0.3340    1.0810    1.4620 c3        1 TYP     -0.177000
     19 CDP         0.3080    0.6710    2.7070 c3        1 TYP     -0.040000
     20 H          -2.0870   -1.3220   -0.2200 hn        1 TYP      0.251000
     21 HA          0.0430   -1.5940    0.7550 h1        1 TYP      0.111000
     22 HBC1       -0.2840    1.0590    0.1070 hc        1 TYP      0.117000
     23 HBC2        1.1010    0.5510    0.7610 hc        1 TYP      0.117000
     24 HD1         2.5320   -1.0610   -0.4720 ha        1 TYP      0.136000
     25 HE1         3.2830   -1.7650   -2.6100 ha        1 TYP      0.137000
     26 HE2        -0.1830   -0.3370   -4.2990 ha        1 TYP      0.154000
     27 HD2        -0.9340    0.3670   -2.1600 ha        1 TYP      0.137000
     28 HH          2.0640   -2.3950   -4.9750 ho        1 TYP      0.220000
     29 HAP        -2.6370    1.8000    2.3530 h1        1 TYP      0.126000
     30 HBP1       -0.9610    2.7740    1.5800 hc        1 TYP      0.110500
     31 HBP2       -1.2750    1.8520    0.2930 hc        1 TYP      0.110500
     32 HGP1        0.3030    0.3050    0.9180 hc        1 TYP      0.096000
     33 HGP2        1.0550    1.7560    1.3970 hc        1 TYP      0.096000
     34 HDP1        0.7700   -0.1940    2.7910 h1        1 TYP      0.104000
     35 HDP2        0.7290    1.3420    3.2960 h1        1 TYP      0.104000
@<TRIPOS>BOND
     1    1    2 1   
     2    1   15 1   
     3    1   20 1   
     4    2    3 1   
     5    2    5 1   
     6    2   21 1   
     7    3    4 1   
     8    3   13 1   
     9    5    6 1   
    10    5   22 1   
    11    5   23 1   
    12    6    7 1   
    13    6   10 1   
    14    7   24 1   
    15    8   11 1   
    16    8   25 1   
    17    9   10 1   
    18    9   26 1   
    19   10   27 1   
    20   11   12 1   
    21   12   28 1   
    22   13   14 1   
    23   13   19 1   
    24   14   15 1   
    25   14   17 1   
    26   14   29 1   
    27   15   16 1   
    28   17   18 1   
    29   17   30 1   
    30   17   31 1   
    31   18   19 1   
    32   18   32 1   
    33   18   33 1   
    34   19   34 1   
    35   19   35 1   
@<TRIPOS>SUBSTRUCTURE
     1 TYP         1 TEMP              0 ****  ****    0 ROOT
