@<TRIPOS>MOLECULE
TYP
   35    37     1     0     0
SMALL
bcc


@<TRIPOS>ATOM
      1 N          -0.0770   -0.1700   -0.0440 n         1 TYP     -0.570900
      2 CA          1.3590   -0.0550   -0.0230 c3        1 TYP      0.046700
      3 C           1.9420   -0.1200    1.4050 c         1 TYP      0.674500
      4 O           2.9720    0.5080    1.7060 o         1 TYP     -0.618500
      5 CB          1.8620    1.2350   -0.6990 c3        1 TYP     -0.039100
      6 CG          1.4590    1.2980   -2.1270 ca        1 TYP     -0.131300
      7 CD1         0.3210    2.0140   -2.5130 ca        1 TYP     -0.091000
      8 CE1        -0.0550    2.0840   -3.8520 ca        1 TYP     -0.181500
      9 CE2         1.8710    0.7070   -4.4460 ca        1 TYP     -0.181500
     10 CD2         2.2280    0.6510   -3.1050 ca        1 TYP     -0.091000
     11 CZ          0.7220    1.4280   -4.8160 ca        1 TYP      0.129100
     12 OH          0.4170    1.4480   -6.1570 oh        1 TYP     -0.495100
     13 NP          1.3370   -0.9890    2.3040 n         1 TYP     -0.441800
     14 CAP         0.0030   -1.5240    2.0500 c3        1 TYP      0.020700
     15 CP         -0.7840   -0.8230    0.9390 c         1 TYP      0.686500
     16 OP         -2.0280   -0.8740    0.8920 o         1 TYP     -0.634500
     17 CBP        -0.7730   -1.5030    3.3860 c3        1 TYP     -0.082400
     18 CGP         0.2310   -1.0880    4.4560 c3        1 TYP     -0.098400
     19 CDP         1.5680   -0.8530    3.7360 c3        1 TYP      0.076000
     20 H          -0.5630    0.2830   -0.7850 hn        1 TYP      0.336500
     21 HA          1.8040   -0.9370   -0.5850 h1        1 TYP      0.072700
     22 HBC1        2.9820    1.2460   -0.6070 hc        1 TYP      0.077700
     23 HBC2        1.4760    2.1280   -0.1400 hc        1 TYP      0.077700
     24 HD1        -0.2820    2.5360   -1.7540 ha        1 TYP      0.137000
     25 HE1        -0.9500    2.6480   -4.1490 ha        1 TYP      0.145500
     26 HE2         2.4680    0.2040   -5.2190 ha        1 TYP      0.145500
     27 HD2         3.1290    0.0920   -2.8060 ha        1 TYP      0.137000
     28 HH         -0.3870    1.9750   -6.2740 ho        1 TYP      0.421000
     29 HAP         0.1290   -2.5960    1.7050 h1        1 TYP      0.086700
     30 HBP1       -1.1900   -2.5180    3.5910 hc        1 TYP      0.070700
     31 HBP2       -1.6310   -0.7870    3.3280 hc        1 TYP      0.070700
     32 HGP1        0.3450   -1.8850    5.2300 hc        1 TYP      0.057200
     33 HGP2       -0.1020   -0.1540    4.9730 hc        1 TYP      0.057200
     34 HDP1        1.9940    0.1610    3.9710 h1        1 TYP      0.065200
     35 HDP2        2.3250   -1.6270    4.0400 h1        1 TYP      0.065200
@<TRIPOS>BOND
     1    1    2 1   
     2    1   15 1   
     3    1   20 1   
     4    2    3 1   
     5    2    5 1   
     6    2   21 1   
     7    3    4 2   
     8    3   13 1   
     9    5    6 1   
    10    5   22 1   
    11    5   23 1   
    12    6    7 ar  
    13    6   10 ar  
    14    7    8 ar  
    15    7   24 1   
    16    8   11 ar  
    17    8   25 1   
    18    9   10 ar  
    19    9   11 ar  
    20    9   26 1   
    21   10   27 1   
    22   11   12 1   
    23   12   28 1   
    24   13   14 1   
    25   13   19 1   
    26   14   15 1   
    27   14   17 1   
    28   14   29 1   
    29   15   16 2   
    30   17   18 1   
    31   17   30 1   
    32   17   31 1   
    33   18   19 1   
    34   18   32 1   
    35   18   33 1   
    36   19   34 1   
    37   19   35 1   
@<TRIPOS>SUBSTRUCTURE
     1 TYP         1 TEMP              0 ****  ****    0 ROOT
