@<TRIPOS>MOLECULE
TYP
   35    37     1     0     0
SMALL
bcc


@<TRIPOS>ATOM
      1 N           0.8220   -0.0670   -0.3970 n         1 TYP     -0.570900
      2 CA         -0.6000   -0.2920   -0.3340 c3        1 TYP      0.046700
      3 C          -1.2950   -0.1030   -1.6990 c         1 TYP      0.674500
      4 O          -2.4610    0.3230   -1.7720 o         1 TYP     -0.618500
      5 CB         -1.2990    0.6120    0.7000 c3        1 TYP     -0.039100
      6 CG         -0.7790    0.3790    2.0720 ca        1 TYP     -0.131300
      7 CD1         0.2120    1.2100    2.6060 ca        1 TYP     -0.091000
      8 CE1         0.6960    1.0010    3.8950 ca        1 TYP     -0.181500
      9 CE2        -0.8200   -0.8960    4.1380 ca        1 TYP     -0.181500
     10 CD2        -1.2890   -0.6700    2.8500 ca        1 TYP     -0.091000
     11 CZ          0.1780   -0.0540    4.6580 ca        1 TYP      0.129100
     12 OH          0.6040   -0.3260    5.9370 oh        1 TYP     -0.495100
     13 NP         -0.6100   -0.5270   -2.8300 n         1 TYP     -0.441800
     14 CAP         0.8270   -0.7830   -2.7880 c3        1 TYP      0.020700
     15 CP          1.5510   -0.2440   -1.5500 c         1 TYP      0.686500
     16 OP          2.7750   -0.0130   -1.5630 o         1 TYP     -0.634500
     17 CBP         1.4420   -0.2180   -4.0870 c3        1 TYP     -0.082400
     18 CGP         0.2710    0.2240   -4.9580 c3        1 TYP     -0.098400
     19 CDP        -1.0070   -0.0670   -4.1540 c3        1 TYP      0.076000
     20 H           1.2700    0.2690    0.4250 hn        1 TYP      0.336500
     21 HA         -0.7860   -1.3710   -0.0330 h1        1 TYP      0.072700
     22 HBC1       -2.3990    0.3840    0.6540 hc        1 TYP      0.077700
     23 HBC2       -1.1710    1.6880    0.4070 hc        1 TYP      0.077700
     24 HD1         0.6100    2.0440    2.0070 ha        1 TYP      0.137000
     25 HE1         1.4740    1.6570    4.3090 ha        1 TYP      0.145500
     26 HE2        -1.2150   -1.7150    4.7550 ha        1 TYP      0.145500
     27 HD2        -2.0740   -1.3210    2.4350 ha        1 TYP      0.137000
     28 HH          1.2840    0.3230    6.1710 ho        1 TYP      0.421000
     29 HAP         0.9700   -1.9060   -2.7610 h1        1 TYP      0.086700
     30 HBP1        2.1270    0.6360   -3.8560 hc        1 TYP      0.070700
     31 HBP2        2.0460   -1.0120   -4.5900 hc        1 TYP      0.070700
     32 HGP1        0.3410    1.3140   -5.1950 hc        1 TYP      0.057200
     33 HGP2        0.2550   -0.3370   -5.9240 hc        1 TYP      0.057200
     34 HDP1       -1.6630    0.8430   -4.0740 h1        1 TYP      0.065200
     35 HDP2       -1.6050   -0.8850   -4.6410 h1        1 TYP      0.065200
@<TRIPOS>BOND
     1    1    2 1   
     2    1   15 1   
     3    1   20 1   
     4    2    3 1   
     5    2    5 1   
     6    2   21 1   
     7    3    4 2   
     8    3   13 1   
     9    5    6 1   
    10    5   22 1   
    11    5   23 1   
    12    6    7 ar  
    13    6   10 ar  
    14    7    8 ar  
    15    7   24 1   
    16    8   11 ar  
    17    8   25 1   
    18    9   10 ar  
    19    9   11 ar  
    20    9   26 1   
    21   10   27 1   
    22   11   12 1   
    23   12   28 1   
    24   13   14 1   
    25   13   19 1   
    26   14   15 1   
    27   14   17 1   
    28   14   29 1   
    29   15   16 2   
    30   17   18 1   
    31   17   30 1   
    32   17   31 1   
    33   18   19 1   
    34   18   32 1   
    35   18   33 1   
    36   19   34 1   
    37   19   35 1   
@<TRIPOS>SUBSTRUCTURE
     1 TYP         1 TEMP              0 ****  ****    0 ROOT
