@<TRIPOS>MOLECULE
TYP
   35    37     1     0     0
SMALL
bcc


@<TRIPOS>ATOM
      1 N          -0.0760   -0.1720   -0.0440 ns        1 TYP     -0.570900
      2 CA          1.3600   -0.0540   -0.0230 c3        1 TYP      0.046700
      3 C           1.9420   -0.1160    1.4050 c         1 TYP      0.674500
      4 O           2.9700    0.5150    1.7070 o         1 TYP     -0.618500
      5 CB          1.8600    1.2360   -0.7000 c3        1 TYP     -0.039100
      6 CG          1.4580    1.2970   -2.1290 ca        1 TYP     -0.131300
      7 CD1         0.3170    2.0090   -2.5150 ca        1 TYP     -0.091000
      8 CE1        -0.0580    2.0760   -3.8550 ca        1 TYP     -0.181500
      9 CE2         1.8720    0.7040   -4.4470 ca        1 TYP     -0.181500
     10 CD2         2.2280    0.6500   -3.1050 ca        1 TYP     -0.091000
     11 CZ          0.7210    1.4210   -4.8180 ca        1 TYP      0.129100
     12 OH          0.4170    1.4390   -6.1590 oh        1 TYP     -0.495100
     13 NP          1.3380   -0.9840    2.3060 n         1 TYP     -0.441800
     14 CAP         0.0060   -1.5230    2.0520 c3        1 TYP      0.020700
     15 CP         -0.7820   -0.8250    0.9390 c         1 TYP      0.686500
     16 OP         -2.0260   -0.8790    0.8920 o         1 TYP     -0.634500
     17 CBP        -0.7700   -1.5010    3.3880 c3        1 TYP     -0.082400
     18 CGP         0.2310   -1.0820    4.4580 c3        1 TYP     -0.098400
     19 CDP         1.5680   -0.8450    3.7380 c3        1 TYP      0.076000
     20 H          -0.5630    0.2780   -0.7860 hn        1 TYP      0.336500
     21 HA          1.8070   -0.9360   -0.5830 h1        1 TYP      0.072700
     22 HBC1        1.4710    2.1290   -0.1430 hc        1 TYP      0.077700
     23 HBC2        2.9800    1.2500   -0.6080 hc        1 TYP      0.077700
     24 HD1        -0.2870    2.5300   -1.7570 ha        1 TYP      0.137000
     25 HE1        -0.9550    2.6380   -4.1530 ha        1 TYP      0.145500
     26 HE2         2.4700    0.2010   -5.2190 ha        1 TYP      0.145500
     27 HD2         3.1300    0.0940   -2.8050 ha        1 TYP      0.137000
     28 HH         -0.3890    1.9640   -6.2770 ho        1 TYP      0.421000
     29 HAP         0.1340   -2.5950    1.7100 h1        1 TYP      0.086700
     30 HBP1       -1.6300   -0.7870    3.3280 hc        1 TYP      0.070700
     31 HBP2       -1.1860   -2.5170    3.5950 hc        1 TYP      0.070700
     32 HGP1       -0.1040   -0.1470    4.9720 hc        1 TYP      0.057200
     33 HGP2        0.3470   -1.8770    5.2340 hc        1 TYP      0.057200
     34 HDP1        2.3270   -1.6170    4.0440 h1        1 TYP      0.065200
     35 HDP2        1.9920    0.1700    3.9720 h1        1 TYP      0.065200
@<TRIPOS>BOND
     1    1    2 1   
     2    1   15 1   
     3    1   20 1   
     4    2    3 1   
     5    2    5 1   
     6    2   21 1   
     7    3    4 2   
     8    3   13 1   
     9    5    6 1   
    10    5   22 1   
    11    5   23 1   
    12    6    7 ar  
    13    6   10 ar  
    14    7    8 ar  
    15    7   24 1   
    16    8   11 ar  
    17    8   25 1   
    18    9   10 ar  
    19    9   11 ar  
    20    9   26 1   
    21   10   27 1   
    22   11   12 1   
    23   12   28 1   
    24   13   14 1   
    25   13   19 1   
    26   14   15 1   
    27   14   17 1   
    28   14   29 1   
    29   15   16 2   
    30   17   18 1   
    31   17   30 1   
    32   17   31 1   
    33   18   19 1   
    34   18   32 1   
    35   18   33 1   
    36   19   34 1   
    37   19   35 1   
@<TRIPOS>SUBSTRUCTURE
     1 TYP         1 TEMP              0 ****  ****    0 ROOT
