@<TRIPOS>MOLECULE
TYP
   35    37     1     0     0
SMALL
bcc


@<TRIPOS>ATOM
      1 N          -0.0740   -0.1720   -0.0470 n         1 TYP     -0.570900
      2 CA          1.3620   -0.0510   -0.0240 c3        1 TYP      0.046700
      3 C           1.9420   -0.1100    1.4050 c         1 TYP      0.674500
      4 O           2.9690    0.5240    1.7070 o         1 TYP     -0.618500
      5 CB          1.8590    1.2410   -0.7010 c3        1 TYP     -0.039100
      6 CG          1.4590    1.3000   -2.1310 ca        1 TYP     -0.131300
      7 CD1         0.3170    2.0090   -2.5190 ca        1 TYP     -0.091000
      8 CE1        -0.0570    2.0740   -3.8590 ca        1 TYP     -0.181500
      9 CE2         1.8780    0.7080   -4.4480 ca        1 TYP     -0.181500
     10 CD2         2.2330    0.6550   -3.1060 ca        1 TYP     -0.091000
     11 CZ          0.7260    1.4210   -4.8210 ca        1 TYP      0.129100
     12 OH          0.4230    1.4380   -6.1630 oh        1 TYP     -0.495100
     13 NP          1.3400   -0.9790    2.3050 n         1 TYP     -0.441800
     14 CAP         0.0090   -1.5220    2.0500 c3        1 TYP      0.020700
     15 CP         -0.7790   -0.8270    0.9350 c         1 TYP      0.686500
     16 OP         -2.0230   -0.8840    0.8870 o         1 TYP     -0.634500
     17 CBP        -0.7690   -1.5000    3.3850 c3        1 TYP     -0.082400
     18 CGP         0.2300   -1.0790    4.4560 c3        1 TYP     -0.098400
     19 CDP         1.5680   -0.8390    3.7370 c3        1 TYP      0.076000
     20 H          -0.5610    0.2760   -0.7900 hn        1 TYP      0.336500
     21 HA          1.8120   -0.9310   -0.5830 h1        1 TYP      0.072700
     22 HBC1        2.9790    1.2580   -0.6070 hc        1 TYP      0.077700
     23 HBC2        1.4670    2.1340   -0.1450 hc        1 TYP      0.077700
     24 HD1        -0.2910    2.5290   -1.7620 ha        1 TYP      0.137000
     25 HE1        -0.9550    2.6330   -4.1590 ha        1 TYP      0.145500
     26 HE2         2.4790    0.2060   -5.2190 ha        1 TYP      0.145500
     27 HD2         3.1360    0.1020   -2.8040 ha        1 TYP      0.137000
     28 HH         -0.3840    1.9600   -6.2810 ho        1 TYP      0.421000
     29 HAP         0.1400   -2.5940    1.7080 h1        1 TYP      0.086700
     30 HBP1       -1.1830   -2.5170    3.5920 hc        1 TYP      0.070700
     31 HBP2       -1.6300   -0.7890    3.3230 hc        1 TYP      0.070700
     32 HGP1        0.3470   -1.8730    5.2320 hc        1 TYP      0.057200
     33 HGP2       -0.1080   -0.1450    4.9690 hc        1 TYP      0.057200
     34 HDP1        1.9880    0.1770    3.9710 h1        1 TYP      0.065200
     35 HDP2        2.3280   -1.6090    4.0440 h1        1 TYP      0.065200
@<TRIPOS>BOND
     1    1    2 1   
     2    1   15 1   
     3    1   20 1   
     4    2    3 1   
     5    2    5 1   
     6    2   21 1   
     7    3    4 2   
     8    3   13 1   
     9    5    6 1   
    10    5   22 1   
    11    5   23 1   
    12    6    7 ar  
    13    6   10 ar  
    14    7    8 ar  
    15    7   24 1   
    16    8   11 ar  
    17    8   25 1   
    18    9   10 ar  
    19    9   11 ar  
    20    9   26 1   
    21   10   27 1   
    22   11   12 1   
    23   12   28 1   
    24   13   14 1   
    25   13   19 1   
    26   14   15 1   
    27   14   17 1   
    28   14   29 1   
    29   15   16 2   
    30   17   18 1   
    31   17   30 1   
    32   17   31 1   
    33   18   19 1   
    34   18   32 1   
    35   18   33 1   
    36   19   34 1   
    37   19   35 1   
@<TRIPOS>SUBSTRUCTURE
     1 TYP         1 TEMP              0 ****  ****    0 ROOT
