@<TRIPOS>MOLECULE
TYQ
   26    26     1     0     0
SMALL
bcc


@<TRIPOS>ATOM
      1 N           1.8190    0.7240    2.2310 n3        1 TYQ     -0.883800
      2 CA          0.4410    0.3880    1.8990 c3        1 TYQ      0.015500
      3 C          -0.4980    0.2180    3.1360 c         1 TYQ      0.885600
      4 O          -0.0240    0.4100    4.2870 o         1 TYQ     -0.836800
      5 CB          0.3270   -0.8700    1.0190 c3        1 TYQ     -0.027100
      6 CG          0.0230   -0.5360   -0.4000 ca        1 TYQ     -0.134300
      7 CD1        -1.2770   -0.1450   -0.7940 ca        1 TYQ      0.164100
      8 CD2         1.0260   -0.6120   -1.3620 ca        1 TYQ     -0.112000
      9 CE1        -1.5580    0.1200   -2.1440 ca        1 TYQ     -0.187000
     10 CE2         0.7810   -0.3320   -2.7210 ca        1 TYQ     -0.024400
     11 CZ         -0.5390    0.0190   -3.0920 ca        1 TYQ      0.099100
     12 OZ         -2.3350   -0.0260    0.0600 oh        1 TYQ     -0.532100
     13 N5          1.7920   -0.4660   -3.7090 nh        1 TYQ     -0.790200
     14 OH         -0.8660    0.3530   -4.3970 oh        1 TYQ     -0.524100
     15 OXT        -1.7050   -0.0920    2.9010 o         1 TYQ     -0.836800
     16 H           2.2200   -0.0480    2.7350 hn        1 TYQ      0.332800
     17 H2          1.7900    1.4950    2.8770 hn        1 TYQ      0.332800
     18 HA          0.0280    1.2670    1.3200 h1        1 TYQ      0.050700
     19 HB2         1.2670   -1.4810    1.0670 hc        1 TYQ      0.054200
     20 HB3        -0.5020   -1.5140    1.4260 hc        1 TYQ      0.054200
     21 HD2         2.0420   -0.8940   -1.0400 ha        1 TYQ      0.129000
     22 HE1        -2.5710    0.4130   -2.4490 ha        1 TYQ      0.151000
     23 HZ         -2.0250   -0.0830    0.9950 ho        1 TYQ      0.495000
     24 HN51        1.8480    0.3700   -4.2590 hn        1 TYQ      0.355300
     25 HN52        2.6810   -0.6510   -3.2870 hn        1 TYQ      0.355300
     26 HH         -0.4560   -0.3120   -4.9680 ho        1 TYQ      0.413000
@<TRIPOS>BOND
     1    1    2 1   
     2    1   16 1   
     3    1   17 1   
     4    2    3 1   
     5    2    5 1   
     6    2   18 1   
     7    3    4 1   
     8    3   15 1   
     9    5    6 1   
    10    5   19 1   
    11    5   20 1   
    12    6    7 ar  
    13    6    8 ar  
    14    7    9 ar  
    15    7   12 1   
    16    8   10 ar  
    17    8   21 1   
    18    9   11 ar  
    19    9   22 1   
    20   10   11 ar  
    21   10   13 1   
    22   11   14 1   
    23   12   23 1   
    24   13   24 1   
    25   13   25 1   
    26   14   26 1   
@<TRIPOS>SUBSTRUCTURE
     1 TYQ         1 TEMP              0 ****  ****    0 ROOT
