@<TRIPOS>MOLECULE
TYR
   23    23     1     0     0
SMALL
bcc


@<TRIPOS>ATOM
      1 N           1.7280    0.5860    1.4940 n3        1 TYR     -0.889800
      2 CA          0.2950    0.3830    1.6670 c3        1 TYR      0.021500
      3 C          -0.1490    0.1620    3.1530 c         1 TYR      0.887600
      4 O           0.7350    0.2410    4.0530 o         1 TYR     -0.841300
      5 CB         -0.2500   -0.7810    0.8310 c3        1 TYR     -0.031100
      6 CG         -0.2700   -0.4960   -0.6280 ca        1 TYR     -0.066300
      7 CD1         0.8990   -0.5980   -1.3940 ca        1 TYR     -0.094000
      8 CD2        -1.4660   -0.1280   -1.2600 ca        1 TYR     -0.094000
      9 CE1         0.8790   -0.3470   -2.7640 ca        1 TYR     -0.190500
     10 CE2        -1.5080    0.1270   -2.6280 ca        1 TYR     -0.190500
     11 CZ         -0.3280    0.0130   -3.3770 ca        1 TYR      0.088100
     12 OH         -0.4230    0.2660   -4.7330 oh        1 TYR     -0.517100
     13 OXT        -1.3720   -0.0630    3.3680 o         1 TYR     -0.841300
     14 H           2.0070    1.2950    2.1530 hn        1 TYR      0.329800
     15 H2          2.2010   -0.2560    1.7770 hn        1 TYR      0.329800
     16 HA         -0.2120    1.3300    1.3220 h1        1 TYR      0.046700
     17 HB2         0.3590   -1.7050    1.0210 hc        1 TYR      0.058700
     18 HB3        -1.2940   -0.9820    1.2020 hc        1 TYR      0.058700
     19 HD1         1.8460   -0.8620   -0.8990 ha        1 TYR      0.141500
     20 HD2        -2.3850   -0.0330   -0.6610 ha        1 TYR      0.141500
     21 HE1         1.8000   -0.4230   -3.3570 ha        1 TYR      0.124000
     22 HE2        -2.4420    0.4160   -3.1260 ha        1 TYR      0.124000
     23 HH          0.4700    0.2090   -5.0990 ho        1 TYR      0.405000
@<TRIPOS>BOND
     1    1    2 1   
     2    1   14 1   
     3    1   15 1   
     4    2    3 1   
     5    2    5 1   
     6    2   16 1   
     7    3    4 1   
     8    3   13 1   
     9    5    6 1   
    10    5   17 1   
    11    5   18 1   
    12    6    7 ar  
    13    6    8 ar  
    14    7    9 ar  
    15    7   19 1   
    16    8   10 ar  
    17    8   20 1   
    18    9   11 ar  
    19    9   21 1   
    20   10   11 ar  
    21   10   22 1   
    22   11   12 1   
    23   12   23 1   
@<TRIPOS>SUBSTRUCTURE
     1 TYR         1 TEMP              0 ****  ****    0 ROOT
