@<TRIPOS>MOLECULE
TYS
   26    26     1     0     0
SMALL
bcc


@<TRIPOS>ATOM
      1 N          -3.5440    1.1680   -1.2780 n3        1 TYS     -0.902800
      2 CA         -3.6500   -0.0770   -0.5420 c3        1 TYS      0.041500
      3 CB         -2.7160   -0.2070    0.6760 c3        1 TYS     -0.050100
      4 CG         -1.2760    0.0120    0.3760 ca        1 TYS     -0.124300
      5 CD1        -0.6960    1.2760    0.5410 ca        1 TYS     -0.109000
      6 CD2        -0.4590   -1.0460   -0.0460 ca        1 TYS     -0.109000
      7 CE1         0.6570    1.4860    0.3040 ca        1 TYS     -0.215500
      8 CE2         0.8970   -0.8600   -0.2910 ca        1 TYS     -0.215500
      9 CZ          1.4730    0.4150   -0.1150 ca        1 TYS      0.240100
     10 OH          2.7660    0.6690   -0.3850 os        1 TYS     -0.532800
     11 S           4.1890   -0.3070   -0.0920 s6        1 TYS      1.712300
     12 O1          5.1290    0.4430   -0.7890 o         1 TYS     -0.746867
     13 O2          4.3030   -0.2800    1.2930 o         1 TYS     -0.746867
     14 O3          3.8640   -1.5390   -0.6470 o         1 TYS     -0.746867
     15 C          -5.0980   -0.3370   -0.0100 c         1 TYS      0.911600
     16 O          -5.7670    0.6460    0.4230 o         1 TYS     -0.854300
     17 OXT        -5.5200   -1.5270   -0.0230 o         1 TYS     -0.854300
     18 H          -4.2440    1.8070   -0.9420 hn        1 TYS      0.333300
     19 HN2        -2.6430    1.5830   -1.1210 hn        1 TYS      0.333300
     20 HA         -3.3900   -0.9020   -1.2650 h1        1 TYS      0.046700
     21 HB2        -3.0510    0.5220    1.4620 hc        1 TYS      0.043200
     22 HB3        -2.8630   -1.2400    1.0910 hc        1 TYS      0.043200
     23 HD1        -1.3250    2.1170    0.8720 ha        1 TYS      0.113000
     24 HD2        -0.9040   -2.0420   -0.1890 ha        1 TYS      0.113000
     25 HE1         1.1070    2.4780    0.4340 ha        1 TYS      0.139000
     26 HE2         1.5350   -1.6960   -0.6190 ha        1 TYS      0.139000
@<TRIPOS>BOND
     1    1    2 1   
     2    1   18 1   
     3    1   19 1   
     4    2    3 1   
     5    2   15 1   
     6    2   20 1   
     7    3    4 1   
     8    3   21 1   
     9    3   22 1   
    10    4    5 ar  
    11    4    6 ar  
    12    5    7 ar  
    13    5   23 1   
    14    6    8 ar  
    15    6   24 1   
    16    7    9 ar  
    17    7   25 1   
    18    8    9 ar  
    19    8   26 1   
    20    9   10 1   
    21   10   11 1   
    22   11   12 1   
    23   11   13 1   
    24   11   14 1   
    25   15   16 1   
    26   15   17 1   
@<TRIPOS>SUBSTRUCTURE
     1 TYS         1 TEMP              0 ****  ****    0 ROOT
