@<TRIPOS>MOLECULE
TYT
   43    45     1     0     0
SMALL
bcc


@<TRIPOS>ATOM
      1 N1          4.1630   -1.8590   -1.5050 n3        1 TYT     -0.888800
      2 C1          3.8220   -1.0430   -0.3460 c3        1 TYT      0.010500
      3 C2          4.1030   -1.7300    1.0340 c         1 TYT      0.889600
      4 O1          3.7710   -1.1000    2.0760 o         1 TYT     -0.841800
      5 O2          4.6620   -2.8630    1.0280 o         1 TYT     -0.841800
      6 C3          2.3670   -0.5730   -0.3620 c3        1 TYT     -0.054400
      7 C4          2.1290    0.5660   -1.3460 c3        1 TYT     -0.162700
      8 C5          2.7770    1.8370   -0.8530 c         1 TYT      0.596300
      9 O3          3.8280    2.2920   -1.3170 o         1 TYT     -0.541100
     10 C6          2.0460    2.5240    0.2210 ce        1 TYT     -0.307200
     11 C7          0.7470    2.2580    0.4800 cf        1 TYT      0.028500
     12 O4          0.0580    2.8980    1.4860 oh        1 TYT     -0.512100
     13 C8         -0.0690    1.2910   -0.3080 cf        1 TYT      0.503600
     14 N2         -1.2550    0.8440   -0.0690 n2        1 TYT     -0.566900
     15 C9         -2.0200    1.1910    1.0730 cx        1 TYT      0.090500
     16 C10        -3.2910    2.0100    0.9610 cx        1 TYT     -0.118400
     17 C11        -3.3930    0.5480    1.3030 cx        1 TYT     -0.071400
     18 C12        -3.9930   -0.4260    0.3850 ca        1 TYT     -0.028300
     19 C13        -4.4910   -1.6290    0.9100 ca        1 TYT     -0.115500
     20 C14        -5.0790   -2.5780    0.0770 ca        1 TYT     -0.134000
     21 C15        -5.1780   -2.3410   -1.2930 ca        1 TYT     -0.138000
     22 C16        -4.6820   -1.1520   -1.8250 ca        1 TYT     -0.134000
     23 C17        -4.0920   -0.2010   -0.9940 ca        1 TYT     -0.115500
     24 C18         0.6420    0.8160   -1.5610 c3        1 TYT     -0.118700
     25 H1          5.1150   -2.1640   -1.3810 hn        1 TYT      0.331300
     26 H2          3.6000   -2.6920   -1.4780 hn        1 TYT      0.331300
     27 H3          4.4860   -0.1300   -0.3840 h1        1 TYT      0.051700
     28 H4          1.6830   -1.4220   -0.6230 hc        1 TYT      0.058200
     29 H5          2.1080   -0.2350    0.6780 hc        1 TYT      0.058200
     30 H6          2.5890    0.2850   -2.3360 hc        1 TYT      0.094700
     31 H7          2.6220    3.2450    0.8200 ha        1 TYT      0.147000
     32 H20         0.6980    3.3840    2.0290 ho        1 TYT      0.423000
     33 H8         -1.4190    1.3470    2.0030 h1        1 TYT      0.095700
     34 H9         -3.6320    2.3570   -0.0300 hc        1 TYT      0.071200
     35 H10        -3.4920    2.7550    1.7520 hc        1 TYT      0.071200
     36 H11        -3.6050    0.3010    2.3670 hc        1 TYT      0.076700
     37 H12        -4.4070   -1.8290    1.9890 ha        1 TYT      0.133000
     38 H13        -5.4580   -3.5180    0.5020 ha        1 TYT      0.123500
     39 H14        -5.6380   -3.0910   -1.9510 ha        1 TYT      0.122000
     40 H15        -4.7460   -0.9650   -2.9070 ha        1 TYT      0.123500
     41 H16        -3.6850    0.7230   -1.4310 ha        1 TYT      0.133000
     42 H17         0.5020    1.6080   -2.3450 hc        1 TYT      0.063200
     43 H18         0.1750   -0.1310   -1.9440 hc        1 TYT      0.063200
@<TRIPOS>BOND
     1    1    2 1   
     2    1   25 1   
     3    1   26 1   
     4    2    3 1   
     5    2    6 1   
     6    2   27 1   
     7    3    4 1   
     8    3    5 1   
     9    6    7 1   
    10    6   28 1   
    11    6   29 1   
    12    7    8 1   
    13    7   24 1   
    14    7   30 1   
    15    8    9 2   
    16    8   10 1   
    17   10   11 2   
    18   10   31 1   
    19   11   12 1   
    20   11   13 1   
    21   12   32 1   
    22   13   14 2   
    23   13   24 1   
    24   14   15 1   
    25   15   16 1   
    26   15   17 1   
    27   15   33 1   
    28   16   17 1   
    29   16   34 1   
    30   16   35 1   
    31   17   18 1   
    32   17   36 1   
    33   18   19 ar  
    34   18   23 ar  
    35   19   20 ar  
    36   19   37 1   
    37   20   21 ar  
    38   20   38 1   
    39   21   22 ar  
    40   21   39 1   
    41   22   23 ar  
    42   22   40 1   
    43   23   41 1   
    44   24   42 1   
    45   24   43 1   
@<TRIPOS>SUBSTRUCTURE
     1 TYT         1 TEMP              0 ****  ****    0 ROOT
