@<TRIPOS>MOLECULE
TYU
   33    34     1     0     0
SMALL
bcc


@<TRIPOS>ATOM
      1 O5'        -3.6960   -1.0160   -2.1920 oh        1 TYU     -0.597800
      2 C5'        -3.0400    0.1970   -1.9260 c3        1 TYU      0.114400
      3 C4'        -2.5200    0.1880   -0.4960 c3        1 TYU      0.099100
      4 O4'        -1.4670   -0.5580   -0.4040 os        1 TYU     -0.449600
      5 C1'        -0.5340    0.1260    0.6830 c3        1 TYU      0.269500
      6 N1          0.8260   -0.2610    0.4740 n         1 TYU     -0.450800
      7 C6          1.6050   -0.8130    1.5700 c3        1 TYU      0.082000
      8 C2          1.2710   -0.6970   -0.8810 c         1 TYU      0.801500
      9 O2          0.5590   -0.4840   -1.8560 o         1 TYU     -0.692500
     10 N3          2.7600   -0.6970   -1.0290 n         1 TYU     -0.579900
     11 C4          3.4730   -1.2230    0.1080 c3        1 TYU      0.292500
     12 O4          3.2820   -2.6690    0.1440 oh        1 TYU     -0.618800
     13 C5          3.0510   -0.6760    1.3670 c3        1 TYU     -0.084400
     14 C2'        -0.6640    1.4430    0.5130 c3        1 TYU      0.096100
     15 O2'        -0.5750    2.1380    1.8140 oh        1 TYU     -0.589800
     16 C3'        -2.0420    1.6280   -0.0850 c3        1 TYU      0.089100
     17 O3'        -2.8810    2.1580    0.8250 oh        1 TYU     -0.598800
     18 H5'        -4.0330   -0.9960   -3.0090 ho        1 TYU      0.410000
     19 H5'1       -2.2760    0.3080   -2.5570 h1        1 TYU      0.061700
     20 H5''       -3.6680    0.9410   -2.0410 h1        1 TYU      0.061700
     21 H4'        -3.2220   -0.1310    0.1240 h1        1 TYU      0.096700
     22 H1'        -0.8270   -0.1310    1.5940 h2        1 TYU      0.092700
     23 H61         1.4260   -1.7870    1.5590 h1        1 TYU      0.058200
     24 H62         1.3970   -0.2610    2.3420 h1        1 TYU      0.058200
     25 HN3         3.1340   -0.7370   -1.8590 hn        1 TYU      0.323500
     26 H4          4.4310   -1.0350   -0.0100 h2        1 TYU      0.055700
     27 HO4         4.0580   -3.0720    0.0260 ho        1 TYU      0.406000
     28 H51         3.2880    0.2750    1.3970 hc        1 TYU      0.074700
     29 H52         3.5220   -1.1470    2.0950 hc        1 TYU      0.074700
     30 H2'         0.0140    1.7730   -0.0940 h1        1 TYU      0.125700
     31 H1         -1.3730    2.1170    2.2180 ho        1 TYU      0.415000
     32 H3'        -1.9910    2.2100   -0.8830 h1        1 TYU      0.085700
     33 H2         -3.2900    2.8870    0.4710 ho        1 TYU      0.418000
@<TRIPOS>BOND
     1    1    2 1   
     2    1   18 1   
     3    2    3 1   
     4    2   19 1   
     5    2   20 1   
     6    3    4 1   
     7    3   16 1   
     8    3   21 1   
     9    4    5 1   
    10    5    6 1   
    11    5   14 1   
    12    5   22 1   
    13    6    7 1   
    14    6    8 1   
    15    7   13 1   
    16    7   23 1   
    17    7   24 1   
    18    8    9 2   
    19    8   10 1   
    20   10   11 1   
    21   10   25 1   
    22   11   12 1   
    23   11   13 1   
    24   11   26 1   
    25   12   27 1   
    26   13   28 1   
    27   13   29 1   
    28   14   15 1   
    29   14   16 1   
    30   14   30 1   
    31   15   31 1   
    32   16   17 1   
    33   16   32 1   
    34   17   33 1   
@<TRIPOS>SUBSTRUCTURE
     1 TYU         1 TEMP              0 ****  ****    0 ROOT
