@<TRIPOS>MOLECULE
TYU
   33    34     1     0     0
SMALL
bcc


@<TRIPOS>ATOM
      1 O5'         2.0550    2.6520    0.8370 oh        1 TYU     -0.597800
      2 C5'         2.1300    1.6940   -0.1970 c3        1 TYU      0.112400
      3 C4'         2.3700    0.2940    0.3650 c3        1 TYU      0.064100
      4 O4'         1.2630   -0.0730    1.1980 os        1 TYU     -0.444600
      5 C1'         0.5190   -1.1680    0.6290 c3        1 TYU      0.273500
      6 N1         -0.8150   -0.7640    0.2360 n         1 TYU     -0.470800
      7 C6         -1.8070   -0.7080    1.2900 c3        1 TYU      0.092000
      8 C2         -1.0570   -0.0790   -0.9690 c         1 TYU      0.801500
      9 O2         -0.1520    0.1020   -1.8230 o         1 TYU     -0.693500
     10 N3         -2.3690    0.3120   -1.2960 n         1 TYU     -0.564900
     11 C4         -3.3680    0.5090   -0.2580 c3        1 TYU      0.287500
     12 O4         -3.9790    1.7920   -0.3710 oh        1 TYU     -0.604800
     13 C5         -2.7920    0.4470    1.1650 c3        1 TYU     -0.113400
     14 C2'         1.3960   -1.7980   -0.5000 c3        1 TYU      0.142100
     15 O2'         1.8530   -3.0620   -0.0870 oh        1 TYU     -0.578800
     16 C3'         2.5180   -0.7650   -0.7430 c3        1 TYU      0.088100
     17 O3'         3.7570   -1.4420   -0.6360 oh        1 TYU     -0.597800
     18 H5'         1.3690    2.3530    1.4490 ho        1 TYU      0.410000
     19 H5'1        1.1900    1.7060   -0.8130 h1        1 TYU      0.061700
     20 H5''        3.0030    2.0120   -0.8260 h1        1 TYU      0.061700
     21 H4'         3.2640    0.2990    1.0490 h1        1 TYU      0.081700
     22 H1'         0.4030   -1.9100    1.4790 h2        1 TYU      0.093700
     23 H61        -2.3770   -1.6820    1.2730 h1        1 TYU      0.056700
     24 H62        -1.2890   -0.6240    2.2890 h1        1 TYU      0.056700
     25 HN3        -2.4180    0.9340   -2.0750 hn        1 TYU      0.319500
     26 H4         -4.1500   -0.2990   -0.3960 h2        1 TYU      0.055700
     27 HO4        -4.6100    1.7580   -1.1010 ho        1 TYU      0.411000
     28 H51        -3.6340    0.2970    1.8870 hc        1 TYU      0.077200
     29 H52        -2.3000    1.4240    1.4090 hc        1 TYU      0.077200
     30 H2'         0.8120   -1.9890   -1.4410 h1        1 TYU      0.121700
     31 H1          2.6160   -2.9380    0.4940 ho        1 TYU      0.420000
     32 H3'         2.3950   -0.3040   -1.7600 h1        1 TYU      0.085700
     33 H2          4.4360   -0.8310   -0.9470 ho        1 TYU      0.415000
@<TRIPOS>BOND
     1    1    2 1   
     2    1   18 1   
     3    2    3 1   
     4    2   19 1   
     5    2   20 1   
     6    3    4 1   
     7    3   16 1   
     8    3   21 1   
     9    4    5 1   
    10    5    6 1   
    11    5   14 1   
    12    5   22 1   
    13    6    7 1   
    14    6    8 1   
    15    7   13 1   
    16    7   23 1   
    17    7   24 1   
    18    8    9 2   
    19    8   10 1   
    20   10   11 1   
    21   10   25 1   
    22   11   12 1   
    23   11   13 1   
    24   11   26 1   
    25   12   27 1   
    26   13   28 1   
    27   13   29 1   
    28   14   15 1   
    29   14   16 1   
    30   14   30 1   
    31   15   31 1   
    32   16   17 1   
    33   16   32 1   
    34   17   33 1   
@<TRIPOS>SUBSTRUCTURE
     1 TYU         1 TEMP              0 ****  ****    0 ROOT
