@<TRIPOS>MOLECULE
TYV
   22    22     1     0     0
SMALL
bcc


@<TRIPOS>ATOM
      1 C1          0.8230   -0.0210   -1.3600 c3        1 TYV      0.303900
      2 C2         -0.7010    0.1590   -1.5070 c3        1 TYV      0.132100
      3 C3         -1.3410    0.6840   -0.2320 c3        1 TYV     -0.109400
      4 C4         -0.8210   -0.0630    0.9910 c3        1 TYV      0.113100
      5 C5          0.7140    0.0290    1.0430 c3        1 TYV      0.150100
      6 C6          1.2840   -0.7460    2.2120 c3        1 TYV     -0.089100
      7 O1          1.4180    1.2520   -1.4740 oh        1 TYV     -0.628800
      8 O2         -1.3180   -1.0850   -1.8030 oh        1 TYV     -0.591800
      9 O4         -1.3060    0.5290    2.1880 oh        1 TYV     -0.596800
     10 O5          1.2720   -0.5600   -0.1380 os        1 TYV     -0.444600
     11 H1          1.2250   -0.7340   -2.1390 h2        1 TYV      0.064700
     12 H2         -0.8850    0.8830   -2.3510 h1        1 TYV      0.059700
     13 H31        -1.0990    1.7750   -0.1350 hc        1 TYV      0.067200
     14 H32        -2.4530    0.5690   -0.3000 hc        1 TYV      0.067200
     15 H4         -1.1340   -1.1430    0.9400 h1        1 TYV      0.061700
     16 H5          1.0200    1.1110    1.0870 h1        1 TYV      0.058700
     17 H61         2.3910   -0.6120    2.2600 hc        1 TYV      0.050367
     18 H62         0.8190   -0.3660    3.1540 hc        1 TYV      0.050367
     19 H63         1.0620   -1.8340    2.1050 hc        1 TYV      0.050367
     20 HO1         2.3450    1.1610   -1.2170 ho        1 TYV      0.423000
     21 HO2        -0.9170   -1.4140   -2.6170 ho        1 TYV      0.404000
     22 HO4        -2.2680    0.4830    2.1450 ho        1 TYV      0.404000
@<TRIPOS>BOND
     1    1    2 1   
     2    1    7 1   
     3    1   10 1   
     4    1   11 1   
     5    2    3 1   
     6    2    8 1   
     7    2   12 1   
     8    3    4 1   
     9    3   13 1   
    10    3   14 1   
    11    4    5 1   
    12    4    9 1   
    13    4   15 1   
    14    5    6 1   
    15    5   10 1   
    16    5   16 1   
    17    6   17 1   
    18    6   18 1   
    19    6   19 1   
    20    7   20 1   
    21    8   21 1   
    22    9   22 1   
@<TRIPOS>SUBSTRUCTURE
     1 TYV         1 TEMP              0 ****  ****    0 ROOT
