@<TRIPOS>MOLECULE
TYW
   26    26     1     0     0
SMALL
bcc


@<TRIPOS>ATOM
      1 C          -3.1790    0.1100   -0.1840 c3        1 TYW      0.334900
      2 N          -1.5410   -1.4930    0.7750 n3        1 TYW     -0.906800
      3 O          -3.3610    1.5120   -0.1350 oh        1 TYW     -0.632300
      4 CA         -1.7120   -0.1580    0.2450 c3        1 TYW      0.141500
      5 CB         -0.8140    0.2060   -0.9540 c3        1 TYW     -0.070100
      6 CG          0.6270    0.1420   -0.5990 ca        1 TYW     -0.121300
      7 CZ          3.3370    0.0260    0.0640 ca        1 TYW      0.124100
      8 CD1         1.3630   -1.0290   -0.8250 ca        1 TYW     -0.093000
      9 CD2         1.2650    1.2540   -0.0380 ca        1 TYW     -0.093000
     10 CE1         2.7130   -1.0990   -0.5000 ca        1 TYW     -0.181500
     11 CE2         2.6150    1.2060    0.2960 ca        1 TYW     -0.181500
     12 OXT        -4.1690   -0.4110    0.6620 oh        1 TYW     -0.632300
     13 HN         -1.9180   -2.1780    0.1500 hn        1 TYW      0.357300
     14 HNA        -0.5660   -1.6780    0.9200 hn        1 TYW      0.357300
     15 HA         -1.4680    0.5590    1.0870 h1        1 TYW      0.082700
     16 HB         -1.0300   -0.4840   -1.8120 hc        1 TYW      0.060200
     17 HBA        -1.0860    1.2470   -1.2790 hc        1 TYW      0.060200
     18 HOH         4.9750    0.7390    0.7420 ho        1 TYW      0.420000
     19 HD1         0.8700   -1.9050   -1.2740 ha        1 TYW      0.135500
     20 HD2         0.6920    2.1770    0.1410 ha        1 TYW      0.135500
     21 HE1         3.2970   -2.0130   -0.6760 ha        1 TYW      0.143500
     22 HE2         3.1110    2.0820    0.7360 ha        1 TYW      0.143500
     23 HO         -4.3080    1.6810   -0.2250 ho        1 TYW      0.424000
     24 HXT        -3.8620   -0.3490    1.5750 ho        1 TYW      0.424000
     25 H1         -3.4020   -0.2980   -1.2100 h2        1 TYW      0.064700
     26 OH          4.6730   -0.1000    0.3660 oh        1 TYW     -0.497100
@<TRIPOS>BOND
     1    1    3 1   
     2    1    4 1   
     3    1   12 1   
     4    1   25 1   
     5    2    4 1   
     6    2   13 1   
     7    2   14 1   
     8    3   23 1   
     9    4    5 1   
    10    4   15 1   
    11    5    6 1   
    12    5   16 1   
    13    5   17 1   
    14    6    8 ar  
    15    6    9 ar  
    16    7   10 ar  
    17    7   11 ar  
    18    7   26 1   
    19    8   10 ar  
    20    8   19 1   
    21    9   11 ar  
    22    9   20 1   
    23   10   21 1   
    24   11   22 1   
    25   12   24 1   
    26   18   26 1   
@<TRIPOS>SUBSTRUCTURE
     1 TYW         1 TEMP              0 ****  ****    0 ROOT
