@<TRIPOS>MOLECULE
TYW
   26    25     1     0     0
SMALL
bcc


@<TRIPOS>ATOM
      1 C          -2.8040   -0.6490   -0.8270 c3        1 TYW      0.152000
      2 N          -1.5200    1.3210   -1.3210 n3        1 TYW     -0.339000
      3 O          -3.3070   -0.6500   -2.1420 oh        1 TYW     -0.359500
      4 CA         -1.4350   -0.0060   -0.8040 c3        1 TYW     -0.056000
      5 CB         -0.9240    0.0390    0.6070 c3        1 TYW     -0.156000
      6 CG          0.6330    0.0590    0.5930 c2        1 TYW     -0.114000
      7 OH          4.8420    0.0300    0.7780 oh        1 TYW     -0.251000
      8 CZ          3.4090    0.0320    0.7250 c2        1 TYW      0.079000
      9 CD1         1.3100    1.2140    0.8980 c2        1 TYW     -0.104000
     10 CD2         1.3390   -1.1170    0.3520 c1        1 TYW     -0.082000
     11 CE1         2.7050    1.2090    0.9660 c2        1 TYW     -0.154000
     12 CE2         2.7330   -1.1220    0.4210 c1        1 TYW     -0.209000
     13 OXT        -3.6800    0.0740    0.0050 oh        1 TYW     -0.359500
     14 HN         -0.8580    1.4480   -1.9460 hn        1 TYW      0.152500
     15 HNA        -1.4120    1.9360   -0.6230 hn        1 TYW      0.152500
     16 HA         -0.8030   -0.5460   -1.3710 h1        1 TYW      0.122000
     17 HB         -1.2730    0.8750    1.0700 hc        1 TYW      0.099500
     18 HBA        -1.2360   -0.7620    1.0940 hc        1 TYW      0.099500
     19 HOH         5.1110   -0.2450    1.5840 ho        1 TYW      0.219000
     20 HD1         0.8100    2.0510    1.0690 ha        1 TYW      0.131000
     21 HD2         0.8770   -1.9060    0.1440 ha        1 TYW      0.140000
     22 HE1         3.1850    2.0260    1.1830 ha        1 TYW      0.151000
     23 HE2         3.2390   -1.9670    0.2490 ha        1 TYW      0.136000
     24 HO         -3.7670   -1.3930   -2.2820 ho        1 TYW      0.223000
     25 HXT        -4.4420   -0.3560    0.0740 ho        1 TYW      0.223000
     26 H1         -2.7320   -1.5930   -0.4960 h2        1 TYW      0.104000
@<TRIPOS>BOND
     1    1    3 1   
     2    1    4 1   
     3    1   13 1   
     4    1   26 1   
     5    2    4 1   
     6    2   14 1   
     7    2   15 1   
     8    3   24 1   
     9    4    5 1   
    10    4   16 1   
    11    5    6 1   
    12    5   17 1   
    13    5   18 1   
    14    6    9 1   
    15    6   10 1   
    16    7    8 1   
    17    7   19 1   
    18    8   11 1   
    19    8   12 1   
    20    9   11 1   
    21    9   20 1   
    22   10   21 1   
    23   11   22 1   
    24   12   23 1   
    25   13   25 1   
@<TRIPOS>SUBSTRUCTURE
     1 TYW         1 TEMP              0 ****  ****    0 ROOT
