@<TRIPOS>MOLECULE
TYX
   30    30     1     0     0
SMALL
bcc


@<TRIPOS>ATOM
      1 N           3.1240   -0.1690    1.5670 n3        1 TYX     -0.879800
      2 CA          2.0480   -0.1740    0.5850 c3        1 TYX      0.018500
      3 C           1.6740   -1.5960    0.0500 c         1 TYX      0.885600
      4 O           2.2860   -2.5960    0.5070 o         1 TYX     -0.838300
      5 CB          2.3330    0.7320   -0.6100 c3        1 TYX      0.015700
      6 SG          1.5350    2.3190   -0.4930 ss        1 TYX     -0.313200
      7 C6         -4.6060   -1.5140    0.8030 ca        1 TYX     -0.180000
      8 C5         -4.6950   -0.1550    0.5210 ca        1 TYX     -0.121000
      9 C4         -3.6010    0.5460    0.0170 ca        1 TYX     -0.170000
     10 C7         -1.1120    1.8180   -1.1300 c         1 TYX      0.670100
     11 C8          0.2400    2.2330   -1.6850 c3        1 TYX     -0.097300
     12 C3         -2.3800   -0.1200   -0.2160 ca        1 TYX      0.082600
     13 C1         -3.4000   -2.1820    0.5780 ca        1 TYX     -0.121000
     14 O1         -2.0420    2.6540   -1.0990 o         1 TYX     -0.638100
     15 N1         -1.2330    0.5070   -0.7230 n         1 TYX     -0.461100
     16 C2         -2.2970   -1.5090    0.0760 ca        1 TYX     -0.170000
     17 OXT         0.7500   -1.6630   -0.8180 o         1 TYX     -0.838300
     18 HN1A        2.8570   -0.7980    2.3060 hn        1 TYX      0.335300
     19 HN2         3.9440   -0.5670    1.1410 hn        1 TYX      0.335300
     20 HA          1.1260    0.2130    1.1130 h1        1 TYX      0.066700
     21 HB1         3.4230    0.9600   -0.7070 h1        1 TYX      0.075700
     22 HB2         1.9970    0.2150   -1.5440 h1        1 TYX      0.075700
     23 H4         -3.7010    1.6230   -0.1940 ha        1 TYX      0.178500
     24 H81         0.1280    3.2750   -2.0800 h1        1 TYX      0.089200
     25 H82         0.5170    1.5600   -2.5340 h1        1 TYX      0.089200
     26 H1         -3.3190   -3.2570    0.8010 ha        1 TYX      0.117500
     27 HN1        -0.4110   -0.0870   -0.7840 hn        1 TYX      0.383500
     28 H2         -1.3430   -2.0490   -0.0980 ha        1 TYX      0.178500
     29 H6         -5.4730   -2.0580    1.2010 ha        1 TYX      0.112000
     30 H5         -5.6380    0.3810    0.6960 ha        1 TYX      0.117500
@<TRIPOS>BOND
     1    1    2 1   
     2    1   18 1   
     3    1   19 1   
     4    2    3 1   
     5    2    5 1   
     6    2   20 1   
     7    3    4 1   
     8    3   17 1   
     9    5    6 1   
    10    5   21 1   
    11    5   22 1   
    12    6   11 1   
    13    7    8 ar  
    14    7   13 ar  
    15    7   29 1   
    16    8    9 ar  
    17    8   30 1   
    18    9   12 ar  
    19    9   23 1   
    20   10   11 1   
    21   10   14 2   
    22   10   15 1   
    23   11   24 1   
    24   11   25 1   
    25   12   15 1   
    26   12   16 ar  
    27   13   16 ar  
    28   13   26 1   
    29   15   27 1   
    30   16   28 1   
@<TRIPOS>SUBSTRUCTURE
     1 TYX         1 TEMP              0 ****  ****    0 ROOT
