@<TRIPOS>MOLECULE
TYY
   24    24     1     0     0
SMALL
bcc


@<TRIPOS>ATOM
      1 N           1.3850    1.1080    1.5090 n3        1 TYY     -0.894800
      2 CA          0.1870    0.4180    1.9650 c3        1 TYY      0.020500
      3 C           0.2210   -0.0010    3.4770 c         1 TYY      0.889600
      4 O           1.1030    0.5340    4.2070 o         1 TYY     -0.836800
      5 CB         -0.1460   -0.8330    1.1420 c3        1 TYY     -0.039200
      6 CG         -0.1720   -0.5740   -0.3230 cc        1 TYY     -0.096400
      7 CD1        -1.4670   -0.1820   -0.9290 c         1 TYY      0.573500
      8 CD2         0.9410   -0.6820   -1.0750 cd        1 TYY     -0.215600
      9 CE1        -1.3980    0.3280   -2.3090 cc        1 TYY     -0.322200
     10 CE2         0.9860   -0.3980   -2.5210 cd        1 TYY      0.527900
     11 CZ         -0.2690    0.2310   -3.0380 cd        1 TYY      0.014500
     12 OZ         -2.5560   -0.2790   -0.3510 o         1 TYY     -0.516100
     13 N5          2.0260   -0.6820   -3.2260 n2        1 TYY     -0.737100
     14 OH         -0.1630    0.6810   -4.3340 oh        1 TYY     -0.515100
     15 OXT        -0.6370   -0.8320    3.8770 o         1 TYY     -0.836800
     16 H           2.1420    0.4460    1.4760 hn        1 TYY      0.333300
     17 H2          1.6280    1.7800    2.2190 hn        1 TYY      0.333300
     18 HA         -0.6660    1.1490    1.8560 h1        1 TYY      0.048700
     19 HB2         0.6040   -1.6340    1.3730 hc        1 TYY      0.073700
     20 HB3        -1.1510   -1.1960    1.4960 hc        1 TYY      0.073700
     21 HD2         1.8970   -0.9770   -0.6100 ha        1 TYY      0.161000
     22 HE1        -2.3160    0.7860   -2.7060 ha        1 TYY      0.142000
     23 HN5         1.9660   -0.4380   -4.1940 hn        1 TYY      0.392400
     24 HH         -0.9940    1.1190   -4.5720 ho        1 TYY      0.424000
@<TRIPOS>BOND
     1    1    2 1   
     2    1   16 1   
     3    1   17 1   
     4    2    3 1   
     5    2    5 1   
     6    2   18 1   
     7    3    4 1   
     8    3   15 1   
     9    5    6 1   
    10    5   19 1   
    11    5   20 1   
    12    6    7 1   
    13    6    8 2   
    14    7    9 1   
    15    7   12 2   
    16    8   10 1   
    17    8   21 1   
    18    9   11 2   
    19    9   22 1   
    20   10   11 1   
    21   10   13 2   
    22   11   14 1   
    23   13   23 1   
    24   14   24 1   
@<TRIPOS>SUBSTRUCTURE
     1 TYY         1 TEMP              0 ****  ****    0 ROOT
