@<TRIPOS>MOLECULE
TYZ
   21    21     1     0     0
SMALL
bcc


@<TRIPOS>ATOM
      1 O1         -0.0580   -0.0030    0.0970 o         1 TYZ     -0.832300
      2 O2          1.7440    0.0000   -1.2220 o         1 TYZ     -0.832300
      3 C7          1.1930   -0.0010   -0.0860 c         1 TYZ      0.909200
      4 C3          2.0890    0.0010    1.1430 ca        1 TYZ     -0.137600
      5 C4          1.5300    0.0000    2.4240 ca        1 TYZ     -0.089500
      6 C5          2.3350    0.0020    3.5560 ca        1 TYZ     -0.189500
      7 C6          3.7450    0.0040    3.4270 ca        1 TYZ      0.019600
      8 C1          4.3090    0.0050    2.1380 ca        1 TYZ     -0.189500
      9 C2          3.4790    0.0040    1.0180 ca        1 TYZ     -0.089500
     10 C8          5.8860    0.0120    4.7440 c         1 TYZ      0.656100
     11 N           4.5150    0.0050    4.6120 ns        1 TYZ     -0.460100
     12 O4          6.6890    0.0180    3.7890 o         1 TYZ     -0.609100
     13 C9          6.4110    0.0120    6.1680 c3        1 TYZ     -0.180100
     14 H4          0.4310   -0.0020    2.5120 ha        1 TYZ      0.153500
     15 H5          1.8650    0.0010    4.5510 ha        1 TYZ      0.125000
     16 HA          5.4010    0.0070    2.0040 ha        1 TYZ      0.125000
     17 H2          3.9110    0.0040    0.0030 ha        1 TYZ      0.153500
     18 HN          3.9850    0.0010    5.4540 hn        1 TYZ      0.301500
     19 H9C1        7.5270    0.0180    6.1350 hc        1 TYZ      0.055700
     20 H9C2        6.0700   -0.9000    6.7130 hc        1 TYZ      0.055700
     21 H9C3        6.0610    0.9190    6.7160 hc        1 TYZ      0.055700
@<TRIPOS>BOND
     1    1    3 1   
     2    2    3 1   
     3    3    4 1   
     4    4    5 ar  
     5    4    9 ar  
     6    5    6 ar  
     7    5   14 1   
     8    6    7 ar  
     9    6   15 1   
    10    7    8 ar  
    11    7   11 1   
    12    8    9 ar  
    13    8   16 1   
    14    9   17 1   
    15   10   11 1   
    16   10   12 2   
    17   10   13 1   
    18   11   18 1   
    19   13   19 1   
    20   13   20 1   
    21   13   21 1   
@<TRIPOS>SUBSTRUCTURE
     1 TYZ         1 TEMP              0 ****  ****    0 ROOT
