@<TRIPOS>MOLECULE
TYZ
   21    21     1     0     0
SMALL
bcc


@<TRIPOS>ATOM
      1 O1          0.9800   -0.4630   -2.2550 o         1 TYZ     -0.832300
      2 O2          2.9330   -1.5470   -2.2430 o         1 TYZ     -0.832300
      3 C7          1.9460   -1.0180   -1.6570 c         1 TYZ      0.909200
      4 C3          1.9160   -1.0500   -0.1370 ca        1 TYZ     -0.137600
      5 C4          0.8460   -0.4790    0.5590 ca        1 TYZ     -0.089500
      6 C5          0.8030   -0.5000    1.9470 ca        1 TYZ     -0.189500
      7 C6          1.8510   -1.1050    2.6830 ca        1 TYZ      0.019600
      8 C1          2.9280   -1.6810    1.9830 ca        1 TYZ     -0.189500
      9 C2          2.9470   -1.6470    0.5890 ca        1 TYZ     -0.089500
     10 C8          2.6390   -1.6170    5.0140 c         1 TYZ      0.656100
     11 N           1.7560   -1.0980    4.0930 n         1 TYZ     -0.460100
     12 O4          3.7030   -2.1990    4.7250 o         1 TYZ     -0.609100
     13 C9          2.2460   -1.4460    6.4710 c3        1 TYZ     -0.180100
     14 H4          0.0360   -0.0100   -0.0250 ha        1 TYZ      0.153500
     15 H5         -0.0510   -0.0420    2.4660 ha        1 TYZ      0.125000
     16 HA          3.7580   -2.1590    2.5250 ha        1 TYZ      0.125000
     17 H2          3.7860   -2.0950    0.0320 ha        1 TYZ      0.153500
     18 HN          0.9410   -0.6560    4.4530 hn        1 TYZ      0.301500
     19 H9C1        2.1570   -0.3640    6.7290 hc        1 TYZ      0.055700
     20 H9C2        3.0390   -1.9070    7.1080 hc        1 TYZ      0.055700
     21 H9C3        1.2740   -1.9540    6.6780 hc        1 TYZ      0.055700
@<TRIPOS>BOND
     1    1    3 1   
     2    2    3 1   
     3    3    4 1   
     4    4    5 ar  
     5    4    9 ar  
     6    5    6 ar  
     7    5   14 1   
     8    6    7 ar  
     9    6   15 1   
    10    7    8 ar  
    11    7   11 1   
    12    8    9 ar  
    13    8   16 1   
    14    9   17 1   
    15   10   11 1   
    16   10   12 2   
    17   10   13 1   
    18   11   18 1   
    19   13   19 1   
    20   13   20 1   
    21   13   21 1   
@<TRIPOS>SUBSTRUCTURE
     1 TYZ         1 TEMP              0 ****  ****    0 ROOT
