@<TRIPOS>MOLECULE
TZ1
   35    38     1     0     0
SMALL
bcc


@<TRIPOS>ATOM
      1 C1         -0.1070   -1.1510    0.0420 ca        1 TZ1     -0.145300
      2 N1          0.5520    1.0770   -0.6550 nb        1 TZ1     -0.600000
      3 O1          6.2740    6.0960    6.0350 o         1 TZ1     -0.444100
      4 S1          3.6950    1.1470    2.6060 ss        1 TZ1      0.086800
      5 CL1        -0.9280   -3.6010    0.7050 cl        1 TZ1     -0.050400
      6 C2          0.7110    0.0110    0.2110 ca        1 TZ1      0.396600
      7 N2          2.8310    4.4990    4.1710 nc        1 TZ1     -0.233000
      8 S2          4.6390    2.7860    4.8460 ss        1 TZ1      0.054200
      9 C3          1.6670    0.0350    1.2760 ca        1 TZ1     -0.107300
     10 N3          2.7180    3.5570    3.3300 nc        1 TZ1     -0.320000
     11 S3          3.0440    7.5850    4.2670 ss        1 TZ1      0.211200
     12 C4          1.7760   -1.0880    2.1340 ca        1 TZ1     -0.134000
     13 N4          4.1350    5.2300    6.1430 n4        1 TZ1     -0.606500
     14 C5          0.9810   -2.1920    1.9550 ca        1 TZ1     -0.086000
     15 C6          0.0340   -2.2200    0.8980 ca        1 TZ1      0.020400
     16 C7          1.3230    2.1340   -0.4870 ca        1 TZ1      0.401200
     17 C8          2.3170    2.2470    0.5390 ca        1 TZ1     -0.147300
     18 C9          2.4840    1.2030    1.4180 ca        1 TZ1     -0.074100
     19 C10         3.6190    2.5020    3.5190 cd        1 TZ1      0.353700
     20 C11         3.8330    4.2810    5.1020 cd        1 TZ1      0.220300
     21 C12         5.1260    6.3110    5.6690 c         1 TZ1      0.629700
     22 C13         4.5760    7.4040    4.9350 cc        1 TZ1     -0.320700
     23 C14         5.3690    8.5410    4.6670 cd        1 TZ1     -0.020000
     24 C15         4.6500    9.5100    3.9360 cd        1 TZ1     -0.168000
     25 C16         3.3530    9.0810    3.6690 cc        1 TZ1     -0.120100
     26 H1         -0.8430   -1.1720   -0.7800 ha        1 TZ1      0.180000
     27 H4          2.5110   -1.0660    2.9550 ha        1 TZ1      0.141000
     28 HN4         3.2680    5.6830    6.4630 hn        1 TZ1      0.465300
     29 H5          1.0700   -3.0640    2.6250 ha        1 TZ1      0.163000
     30 H7          1.1750    2.9710   -1.1960 h4        1 TZ1      0.044100
     31 H8          2.9150    3.1680    0.5930 ha        1 TZ1      0.157000
     32 H14         6.4100    8.6520    4.9920 ha        1 TZ1      0.189000
     33 H15         5.0690   10.4720    3.6220 ha        1 TZ1      0.192000
     34 H16         2.6170    9.6700    3.1110 h4        1 TZ1      0.207000
     35 H42         4.5550    4.7220    6.9340 hn        1 TZ1      0.465300
@<TRIPOS>BOND
     1    1    6 ar  
     2    1   15 ar  
     3    1   26 1   
     4    2    6 ar  
     5    2   16 ar  
     6    3   21 2   
     7    4   18 1   
     8    4   19 1   
     9    5   15 1   
    10    6    9 ar  
    11    7   10 1   
    12    7   20 2   
    13    8   19 1   
    14    8   20 1   
    15    9   12 ar  
    16    9   18 ar  
    17   10   19 2   
    18   11   22 1   
    19   11   25 1   
    20   12   14 ar  
    21   12   27 1   
    22   13   20 1   
    23   13   21 1   
    24   13   28 1   
    25   13   35 1   
    26   14   15 ar  
    27   14   29 1   
    28   16   17 ar  
    29   16   30 1   
    30   17   18 ar  
    31   17   31 1   
    32   21   22 1   
    33   22   23 2   
    34   23   24 1   
    35   23   32 1   
    36   24   25 2   
    37   24   33 1   
    38   25   34 1   
@<TRIPOS>SUBSTRUCTURE
     1 TZ1         1 TEMP              0 ****  ****    0 ROOT
