@<TRIPOS>MOLECULE
TZ1
   34    37     1     0     0
SMALL
bcc


@<TRIPOS>ATOM
      1 C1          0.4430   -1.7070   -0.6990 ca        1 TZ1     -0.160300
      2 N1          2.2130   -0.1240   -1.2050 nb        1 TZ1     -0.660000
      3 O1          2.5120    6.5680    4.8380 o         1 TZ1     -0.576100
      4 S1          2.0370    1.2740    3.1050 ss        1 TZ1     -0.078200
      5 Cl1        -1.4960   -3.4950   -0.2830 cl        1 TZ1     -0.089400
      6 C2          1.3350   -0.6690   -0.2830 ca        1 TZ1      0.408600
      7 N2          5.0830    3.4960    3.7520 nc        1 TZ1     -0.376000
      8 S2          2.5650    4.0190    3.9700 ss        1 TZ1      0.036200
      9 C3          1.2920   -0.2290    1.0740 ca        1 TZ1     -0.136300
     10 N3          4.4790    2.4320    3.3690 nc        1 TZ1     -0.243000
     11 S3          5.9500    8.3620    5.6210 ss        1 TZ1      0.072200
     12 C4          0.3750   -0.8310    1.9730 ca        1 TZ1     -0.106000
     13 N4          4.6290    5.7220    4.6390 ns        1 TZ1     -0.521400
     14 C5         -0.4720   -1.8270    1.5550 ca        1 TZ1     -0.119000
     15 C6         -0.4330   -2.2610    0.2070 ca        1 TZ1      0.022400
     16 C7          3.0220    0.8310   -0.7860 ca        1 TZ1      0.428200
     17 C8          3.0500    1.3410    0.5490 ca        1 TZ1     -0.241300
     18 C9          2.1880    0.8170    1.4830 ca        1 TZ1      0.011900
     19 C10         3.1160    2.5070    3.4110 cd        1 TZ1      0.236700
     20 C11         4.1990    4.5010    4.1510 cd        1 TZ1      0.446300
     21 C12         3.7380    6.7560    4.9590 c         1 TZ1      0.716700
     22 C13         4.3170    8.0120    5.4300 cc        1 TZ1     -0.217700
     23 C14         3.5280    9.1010    5.7850 cd        1 TZ1     -0.063000
     24 C15         4.3210   10.2050    6.2100 cd        1 TZ1     -0.170000
     25 C16         5.6700    9.9070    6.1590 cc        1 TZ1     -0.140100
     26 H1          0.4730   -2.0500   -1.7470 ha        1 TZ1      0.166000
     27 H4          0.3500   -0.4930    3.0230 ha        1 TZ1      0.146000
     28 HN4         5.6120    5.8660    4.7310 hn        1 TZ1      0.343500
     29 H5         -1.1820   -2.2930    2.2550 ha        1 TZ1      0.151000
     30 H7          3.7170    1.2490   -1.5390 h4        1 TZ1      0.026100
     31 H8          3.7680    2.1360    0.7920 ha        1 TZ1      0.157000
     32 H14         2.4340    9.1050    5.7420 ha        1 TZ1      0.180000
     33 H15         3.8980   11.1590    6.5320 ha        1 TZ1      0.167000
     34 H16         6.4730   10.5910    6.4350 h4        1 TZ1      0.182000
@<TRIPOS>BOND
     1    1    6 ar  
     2    1   15 ar  
     3    1   26 1   
     4    2    6 ar  
     5    2   16 ar  
     6    3   21 2   
     7    4   18 1   
     8    4   19 1   
     9    5   15 1   
    10    6    9 ar  
    11    7   10 1   
    12    7   20 2   
    13    8   19 1   
    14    8   20 1   
    15    9   12 ar  
    16    9   18 ar  
    17   10   19 2   
    18   11   22 1   
    19   11   25 1   
    20   12   14 ar  
    21   12   27 1   
    22   13   20 1   
    23   13   21 1   
    24   13   28 1   
    25   14   15 ar  
    26   14   29 1   
    27   16   17 ar  
    28   16   30 1   
    29   17   18 ar  
    30   17   31 1   
    31   21   22 1   
    32   22   23 2   
    33   23   24 1   
    34   23   32 1   
    35   24   25 2   
    36   24   33 1   
    37   25   34 1   
@<TRIPOS>SUBSTRUCTURE
     1 TZ1         1 TEMP              0 ****  ****    0 ROOT
