@<TRIPOS>MOLECULE
TZ1
   34    37     1     0     0
SMALL
bcc


@<TRIPOS>ATOM
      1 C1          6.2950   -0.4910   -0.5170 ca        1 TZ1     -0.160300
      2 N1          4.6780    0.3030   -2.1460 nb        1 TZ1     -0.660000
      3 O1         -3.7690   -1.7020    0.3070 o         1 TZ1     -0.587100
      4 S1          1.4880    0.0410    1.0650 ss        1 TZ1     -0.078200
      5 CL1         8.1770   -1.3530    1.1700 cl        1 TZ1     -0.089400
      6 C2          4.9550   -0.1170   -0.8560 ca        1 TZ1      0.408600
      7 N2         -1.6410    1.8180   -0.2320 nc        1 TZ1     -0.375000
      8 S2         -1.3180   -0.6190    0.5540 ss        1 TZ1      0.035200
      9 C3          3.9470   -0.1890    0.1520 ca        1 TZ1     -0.136300
     10 N3         -0.3960    1.7150    0.0530 nc        1 TZ1     -0.243000
     11 S3         -6.8810   -1.8210    0.2520 ss        1 TZ1      0.185200
     12 C4          4.2950   -0.6200    1.4570 ca        1 TZ1     -0.106000
     13 N4         -3.7100    0.5250   -0.2060 n         1 TZ1     -0.509400
     14 C5          5.5860   -0.9730    1.7630 ca        1 TZ1     -0.119000
     15 C6          6.5870   -0.9070    0.7620 ca        1 TZ1      0.022400
     16 C7          3.4330    0.6400   -2.4220 ca        1 TZ1      0.428200
     17 C8          2.3540    0.5980   -1.4850 ca        1 TZ1     -0.241300
     18 C9          2.6040    0.1840   -0.1970 ca        1 TZ1      0.011900
     19 C10        -0.0160    0.4790    0.4950 cd        1 TZ1      0.236700
     20 C11        -2.3450    0.6340   -0.0040 cd        1 TZ1      0.445300
     21 C12        -4.3910   -0.6880   -0.0710 c         1 TZ1      0.713700
     22 C13        -5.8230   -0.6820   -0.3720 cc        1 TZ1     -0.227700
     23 C14        -6.4870    0.2140   -1.2060 cd        1 TZ1     -0.110000
     24 C15        -7.8730   -0.0850   -1.2890 cd        1 TZ1     -0.163000
     25 C16        -8.1970   -1.1880   -0.5160 cc        1 TZ1     -0.181100
     26 H1          7.0770   -0.4380   -1.2920 ha        1 TZ1      0.166000
     27 H4          3.5130   -0.6670    2.2350 ha        1 TZ1      0.146000
     28 HN4        -4.2110    1.3410   -0.4850 hn        1 TZ1      0.349500
     29 H5          5.8530   -1.3070    2.7770 ha        1 TZ1      0.151000
     30 H7          3.2350    0.9770   -3.4580 h4        1 TZ1      0.026100
     31 H8          1.3550    0.9060   -1.8200 ha        1 TZ1      0.157000
     32 H14        -6.0240    1.0380   -1.7540 ha        1 TZ1      0.159000
     33 H15        -8.5790    0.4920   -1.8910 ha        1 TZ1      0.164000
     34 H16        -9.2020   -1.6010   -0.4200 h4        1 TZ1      0.183000
@<TRIPOS>BOND
     1    1    6 ar  
     2    1   15 ar  
     3    1   26 1   
     4    2    6 ar  
     5    2   16 ar  
     6    3   21 2   
     7    4   18 1   
     8    4   19 1   
     9    5   15 1   
    10    6    9 ar  
    11    7   10 1   
    12    7   20 2   
    13    8   19 1   
    14    8   20 1   
    15    9   12 ar  
    16    9   18 ar  
    17   10   19 2   
    18   11   22 1   
    19   11   25 1   
    20   12   14 ar  
    21   12   27 1   
    22   13   20 1   
    23   13   21 1   
    24   13   28 1   
    25   14   15 ar  
    26   14   29 1   
    27   16   17 ar  
    28   16   30 1   
    29   17   18 ar  
    30   17   31 1   
    31   21   22 1   
    32   22   23 2   
    33   23   24 1   
    34   23   32 1   
    35   24   25 2   
    36   24   33 1   
    37   25   34 1   
@<TRIPOS>SUBSTRUCTURE
     1 TZ1         1 TEMP              0 ****  ****    0 ROOT
