@<TRIPOS>MOLECULE
TZ1
   34    37     1     0     0
SMALL
bcc


@<TRIPOS>ATOM
      1 C1          0.5060   -1.6820   -0.7740 ca        1 TZ1     -0.160300
      2 N1          2.3430   -0.1510   -1.1960 nb        1 TZ1     -0.660000
      3 O1          2.4900    6.5950    4.7900 o         1 TZ1     -0.576100
      4 S1          1.9690    1.2960    3.0850 ss        1 TZ1     -0.078200
      5 CL1        -1.5010   -3.4140   -0.4490 cl        1 TZ1     -0.089400
      6 C2          1.4020   -0.6630   -0.3190 ca        1 TZ1      0.408600
      7 N2          5.0330    3.4430    3.8790 nc        1 TZ1     -0.376000
      8 S2          2.5220    4.0360    3.9510 ss        1 TZ1      0.036200
      9 C3          1.2960   -0.2080    1.0300 ca        1 TZ1     -0.136300
     10 N3          4.4230    2.3920    3.4730 nc        1 TZ1     -0.243000
     11 S3          5.9270    8.3060    5.7460 ss        1 TZ1      0.072200
     12 C4          0.3160   -0.7760    1.8830 ca        1 TZ1     -0.106000
     13 N4          4.5910    5.6910    4.7180 n         1 TZ1     -0.521400
     14 C5         -0.5340   -1.7540    1.4270 ca        1 TZ1     -0.119000
     15 C6         -0.4330   -2.2030    0.0870 ca        1 TZ1      0.022400
     16 C7          3.1530    0.7860   -0.7420 ca        1 TZ1      0.428200
     17 C8          3.1220    1.3100    0.5880 ca        1 TZ1     -0.241300
     18 C9          2.1960    0.8180    1.4780 ca        1 TZ1      0.011900
     19 C10         3.0620    2.5040    3.4380 cd        1 TZ1      0.236700
     20 C11         4.1570    4.4760    4.2180 cd        1 TZ1      0.446300
     21 C12         3.7130    6.7510    4.9770 c         1 TZ1      0.716700
     22 C13         4.2980    7.9970    5.4670 cc        1 TZ1     -0.217700
     23 C14         3.5210    9.1110    5.7660 cd        1 TZ1     -0.063000
     24 C15         4.3190   10.1980    6.2240 cd        1 TZ1     -0.170000
     25 C16         5.6600    9.8640    6.2520 cc        1 TZ1     -0.140100
     26 H1          0.5840   -2.0360   -1.8150 ha        1 TZ1      0.166000
     27 H4          0.2420   -0.4270    2.9270 ha        1 TZ1      0.146000
     28 HN4         5.5710    5.8100    4.8630 hn        1 TZ1      0.343500
     29 H5         -1.2940   -2.1940    2.0920 ha        1 TZ1      0.151000
     30 H7          3.8990    1.1780   -1.4590 h4        1 TZ1      0.026100
     31 H8          3.8470    2.0880    0.8630 ha        1 TZ1      0.157000
     32 H14         2.4310    9.1440    5.6610 ha        1 TZ1      0.180000
     33 H15         3.9050   11.1670    6.5120 ha        1 TZ1      0.167000
     34 H16         6.4650   10.5290    6.5660 h4        1 TZ1      0.182000
@<TRIPOS>BOND
     1    1    6 ar  
     2    1   15 ar  
     3    1   26 1   
     4    2    6 ar  
     5    2   16 ar  
     6    3   21 2   
     7    4   18 1   
     8    4   19 1   
     9    5   15 1   
    10    6    9 ar  
    11    7   10 1   
    12    7   20 2   
    13    8   19 1   
    14    8   20 1   
    15    9   12 ar  
    16    9   18 ar  
    17   10   19 2   
    18   11   22 1   
    19   11   25 1   
    20   12   14 ar  
    21   12   27 1   
    22   13   20 1   
    23   13   21 1   
    24   13   28 1   
    25   14   15 ar  
    26   14   29 1   
    27   16   17 ar  
    28   16   30 1   
    29   17   18 ar  
    30   17   31 1   
    31   21   22 1   
    32   22   23 2   
    33   23   24 1   
    34   23   32 1   
    35   24   25 2   
    36   24   33 1   
    37   25   34 1   
@<TRIPOS>SUBSTRUCTURE
     1 TZ1         1 TEMP              0 ****  ****    0 ROOT
