@<TRIPOS>MOLECULE
TZ4
   95   102     1     0     0
SMALL
bcc


@<TRIPOS>ATOM
      1 N3         41.2480   27.0610   10.6130 nh        1 TZ4     -0.847200
      2 C19        40.9650   26.2740    9.5170 ca        1 TZ4      0.190600
      3 C18        42.0010   25.5050    8.8900 ca        1 TZ4     -0.117000
      4 C17        41.7200   24.6550    7.8500 ca        1 TZ4     -0.105000
      5 C16        40.4020   24.5040    7.3510 ca        1 TZ4      0.014000
      6 C14        39.3750   25.2720    7.9520 ca        1 TZ4     -0.067000
      7 C15        39.6600   26.1490    9.0210 ca        1 TZ4     -0.184000
      8 C7         38.0290   25.1480    7.4610 cc        1 TZ4      0.178700
      9 C8         36.9730   25.9730    8.0900 ca        1 TZ4     -0.143000
     10 C9         36.1560   25.4260    9.0870 ca        1 TZ4     -0.101000
     11 C10        35.1800   26.2180    9.6910 ca        1 TZ4     -0.118500
     12 C11        35.0190   27.5490    9.3020 ca        1 TZ4     -0.092000
     13 C12        35.8360   28.0920    8.3090 ca        1 TZ4     -0.118500
     14 C13        36.8150   27.3100    7.6990 ca        1 TZ4     -0.101000
     15 C4         40.0650   23.6130    6.2810 cc        1 TZ4     -0.094800
     16 C3         41.0390   22.8100    5.6350 cc        1 TZ4     -0.040200
     17 C2         40.7210   21.9440    4.6250 cd        1 TZ4     -0.263600
     18 C1         39.3620   21.8120    4.1850 cd        1 TZ4      0.400900
     19 N1         39.0430   20.9390    3.1830 nh        1 TZ4     -0.526100
     20 C6         38.7140   23.5060    5.8410 cc        1 TZ4      0.045700
     21 C5         38.3770   22.5990    4.8090 cd        1 TZ4     -0.353600
     22 N2         37.7210   24.3130    6.4430 na        1 TZ4      0.019900
     23 C20        36.3400   24.2340    5.9480 c3        1 TZ4     -0.011700
     24 C21        35.5530   23.0400    6.4880 c3        1 TZ4     -0.099400
     25 C22        34.1520   23.0600    5.9100 c3        1 TZ4     -0.079400
     26 C23        33.3070   21.9170    6.4360 c3        1 TZ4     -0.079400
     27 C24        32.8540   22.1070    7.8690 c3        1 TZ4     -0.078400
     28 C25        31.6860   23.0720    7.9770 c3        1 TZ4     -0.090700
     29 C26        31.3920   23.4270    9.3770 cc        1 TZ4      0.252600
     30 N4         32.2640   24.1500   10.2300 nc        1 TZ4     -0.383000
     31 N5         31.7190   24.3140   11.3660 nd        1 TZ4     -0.173800
     32 N6         30.4870   23.7530   11.3750 na        1 TZ4      0.062400
     33 C27        30.2310   23.1620   10.1300 cd        1 TZ4     -0.212600
     34 C28        29.5930   23.7200   12.5140 c3        1 TZ4      0.002300
     35 C29        30.1170   22.8470   13.6830 c3        1 TZ4      0.159800
     36 N7         29.1920   22.6810   14.7760 nh        1 TZ4     -0.709600
     37 C30        28.0810   21.8190   14.5420 ca        1 TZ4      0.109600
     38 C31        26.7840   22.3560   14.2110 ca        1 TZ4     -0.173300
     39 C32        26.5340   23.7430   14.0300 ca        1 TZ4     -0.137000
     40 C33        25.7020   21.4390   14.0590 ca        1 TZ4      0.407600
     41 C34        24.3980   21.9480   13.7440 ca        1 TZ4     -0.157300
     42 C35        24.1980   23.2950   13.5880 ca        1 TZ4     -0.126000
     43 C36        25.2750   24.2010   13.7290 ca        1 TZ4     -0.119000
     44 N8         25.8640   20.0810   14.2010 nb        1 TZ4     -0.670000
     45 C37        27.0650   19.6020   14.5110 ca        1 TZ4      0.447600
     46 C38        27.1680   18.1100   14.7020 c3        1 TZ4     -0.135700
     47 C39        28.2240   20.4390   14.7010 ca        1 TZ4     -0.166600
     48 C40        29.5490   19.8520   15.0400 c3        1 TZ4     -0.028100
     49 C41        29.4890   18.4160   15.5140 c3        1 TZ4     -0.080400
     50 C42        28.5870   17.5990   14.6200 c3        1 TZ4     -0.080400
     51 HN31       42.1960   27.2810   10.7990 hn        1 TZ4      0.431300
     52 HN32       40.5620   27.7100   10.9140 hn        1 TZ4      0.431300
     53 H18        43.0380   25.5930    9.2570 ha        1 TZ4      0.157000
     54 H17        42.5450   24.0800    7.4010 ha        1 TZ4      0.153000
     55 H15        38.8360   26.7280    9.4690 ha        1 TZ4      0.161000
     56 H9         36.2810   24.3770    9.3990 ha        1 TZ4      0.147500
     57 H10        34.5270   25.7840   10.4670 ha        1 TZ4      0.165500
     58 H11        34.2440   28.1700    9.7780 ha        1 TZ4      0.156000
     59 H12        35.7080   29.1420    8.0020 ha        1 TZ4      0.165500
     60 H13        37.4600   27.7410    6.9190 ha        1 TZ4      0.147500
     61 H3         42.0920   22.8840    5.9550 ha        1 TZ4      0.154000
     62 H2         41.5090   21.3400    4.1480 ha        1 TZ4      0.158000
     63 HN11       39.7480   20.3910    2.7570 hn        1 TZ4      0.292200
     64 HN12       38.1070   20.8470    2.8770 hn        1 TZ4      0.292200
     65 H5         37.3320   22.4840    4.4810 ha        1 TZ4      0.152000
     66 H201       36.3770   24.2050    4.8220 h1        1 TZ4      0.093200
     67 H202       35.8010   25.1850    6.2360 h1        1 TZ4      0.093200
     68 H211       35.5040   23.0970    7.6080 hc        1 TZ4      0.064200
     69 H212       36.0630   22.0770    6.2220 hc        1 TZ4      0.064200
     70 H221       34.2130   22.9840    4.7920 hc        1 TZ4      0.048200
     71 H222       33.6580   24.0380    6.1530 hc        1 TZ4      0.048200
     72 H231       33.8930   20.9620    6.3640 hc        1 TZ4      0.049700
     73 H232       32.4060   21.8050    5.7750 hc        1 TZ4      0.049700
     74 H241       33.7080   22.4750    8.4950 hc        1 TZ4      0.051200
     75 H242       32.5440   21.1130    8.2880 hc        1 TZ4      0.051200
     76 H251       30.7710   22.6080    7.5190 hc        1 TZ4      0.054200
     77 H252       31.9120   24.0090    7.3970 hc        1 TZ4      0.054200
     78 H27        29.3040   22.6450    9.8910 h4        1 TZ4      0.199000
     79 H281       28.6010   23.3220   12.1570 h1        1 TZ4      0.074700
     80 H282       29.4430   24.7760   12.8790 h1        1 TZ4      0.074700
     81 H291       31.0440   23.3290   14.1070 h1        1 TZ4      0.073700
     82 H292       30.3970   21.8290   13.2920 h1        1 TZ4      0.073700
     83 HN7        28.8940   23.5630   15.1490 hn        1 TZ4      0.386800
     84 H32        27.3520   24.4720   14.1280 ha        1 TZ4      0.119000
     85 H34        23.5630   21.2370   13.6360 ha        1 TZ4      0.156000
     86 H35        23.1970   23.6880   13.3520 ha        1 TZ4      0.142000
     87 H36        25.0880   25.2780   13.5960 ha        1 TZ4      0.137000
     88 H381       26.5360   17.5780   13.9410 hc        1 TZ4      0.070200
     89 H382       26.7420   17.8690   15.7150 hc        1 TZ4      0.070200
     90 H401       30.0460   20.4710   15.8370 hc        1 TZ4      0.056700
     91 H402       30.2010   19.9040   14.1240 hc        1 TZ4      0.056700
     92 H411       29.1080   18.3780   16.5690 hc        1 TZ4      0.048700
     93 H412       30.5240   17.9850   15.5160 hc        1 TZ4      0.048700
     94 H421       28.9550   17.6490   13.5620 hc        1 TZ4      0.047200
     95 H422       28.6080   16.5220   14.9320 hc        1 TZ4      0.047200
@<TRIPOS>BOND
     1    1    2 1   
     2    1   51 1   
     3    1   52 1   
     4    2    3 ar  
     5    2    7 ar  
     6    3    4 ar  
     7    3   53 1   
     8    4    5 ar  
     9    4   54 1   
    10    5    6 ar  
    11    5   15 2   
    12    6    7 ar  
    13    6    8 2   
    14    7   55 1   
    15    8    9 1   
    16    8   22 1   
    17    9   10 ar  
    18    9   14 ar  
    19   10   11 ar  
    20   10   56 1   
    21   11   12 ar  
    22   11   57 1   
    23   12   13 ar  
    24   12   58 1   
    25   13   14 ar  
    26   13   59 1   
    27   14   60 1   
    28   15   16 1   
    29   15   20 1   
    30   16   17 2   
    31   16   61 1   
    32   17   18 1   
    33   17   62 1   
    34   18   19 2   
    35   18   21 1   
    36   19   63 1   
    37   19   64 1   
    38   20   21 2   
    39   20   22 1   
    40   21   65 1   
    41   22   23 1   
    42   23   24 1   
    43   23   66 1   
    44   23   67 1   
    45   24   25 1   
    46   24   68 1   
    47   24   69 1   
    48   25   26 1   
    49   25   70 1   
    50   25   71 1   
    51   26   27 1   
    52   26   72 1   
    53   26   73 1   
    54   27   28 1   
    55   27   74 1   
    56   27   75 1   
    57   28   29 1   
    58   28   76 1   
    59   28   77 1   
    60   29   30 1   
    61   29   33 2   
    62   30   31 2   
    63   31   32 1   
    64   32   33 1   
    65   32   34 1   
    66   33   78 1   
    67   34   35 1   
    68   34   79 1   
    69   34   80 1   
    70   35   36 1   
    71   35   81 1   
    72   35   82 1   
    73   36   37 1   
    74   36   83 1   
    75   37   38 ar  
    76   37   47 ar  
    77   38   39 ar  
    78   38   40 ar  
    79   39   43 ar  
    80   39   84 1   
    81   40   41 ar  
    82   40   44 ar  
    83   41   42 ar  
    84   41   85 1   
    85   42   43 ar  
    86   42   86 1   
    87   43   87 1   
    88   44   45 ar  
    89   45   46 1   
    90   45   47 ar  
    91   46   50 1   
    92   46   88 1   
    93   46   89 1   
    94   47   48 1   
    95   48   49 1   
    96   48   90 1   
    97   48   91 1   
    98   49   50 1   
    99   49   92 1   
   100   49   93 1   
   101   50   94 1   
   102   50   95 1   
@<TRIPOS>SUBSTRUCTURE
     1 TZ4         1 TEMP              0 ****  ****    0 ROOT
