@<TRIPOS>MOLECULE
TZ4
   95   102     1     0     0
SMALL
bcc


@<TRIPOS>ATOM
      1 N3          0.2050   -1.2890   -0.0760 nh        1 TZ4     -0.843200
      2 C19         1.5820   -1.3110   -0.1500 ca        1 TZ4      0.186600
      3 C18         2.3550   -1.8970    0.9060 ca        1 TZ4     -0.116000
      4 C17         3.7270   -1.8590    0.8840 ca        1 TZ4     -0.106000
      5 C16         4.4350   -1.2450   -0.1790 ca        1 TZ4      0.015000
      6 C14         3.6800   -0.6630   -1.2280 ca        1 TZ4     -0.069000
      7 C15         2.2690   -0.7080   -1.2120 ca        1 TZ4     -0.182000
      8 C7          4.3690   -0.0260   -2.3180 cc        1 TZ4      0.179700
      9 C8          3.5610    0.5890   -3.3950 ca        1 TZ4     -0.144000
     10 C9          3.3530   -0.0990   -4.5970 ca        1 TZ4     -0.100000
     11 C10         2.5690    0.4780   -5.5950 ca        1 TZ4     -0.119500
     12 C11         1.9980    1.7360   -5.3960 ca        1 TZ4     -0.092000
     13 C12         2.2060    2.4190   -4.1970 ca        1 TZ4     -0.119500
     14 C13         2.9860    1.8500   -3.1920 ca        1 TZ4     -0.100000
     15 C4          5.8640   -1.1910   -0.2430 cc        1 TZ4     -0.094800
     16 C3          6.6840   -1.7530    0.7680 cc        1 TZ4     -0.040200
     17 C2          8.0510   -1.7170    0.7060 cd        1 TZ4     -0.263600
     18 C1          8.7100   -1.1050   -0.4100 cd        1 TZ4      0.399900
     19 N1         10.0750   -1.0920   -0.4840 nh        1 TZ4     -0.525100
     20 C6          6.5060   -0.5640   -1.3500 cc        1 TZ4      0.045700
     21 C5          7.9180   -0.5360   -1.4260 cd        1 TZ4     -0.352600
     22 N2          5.7190    0.0310   -2.3640 na        1 TZ4      0.019900
     23 C20         6.3900    0.7190   -3.4750 c3        1 TZ4     -0.011700
     24 C21         6.9180   -0.2180   -4.5610 c3        1 TZ4     -0.099400
     25 C22         7.5900    0.5990   -5.6460 c3        1 TZ4     -0.079400
     26 C23         8.1070   -0.2720   -6.7720 c3        1 TZ4     -0.079400
     27 C24         7.0160   -0.8090   -7.6750 c3        1 TZ4     -0.078400
     28 C25         6.5190    0.2360   -8.6570 c3        1 TZ4     -0.090700
     29 C26         5.3140   -0.2130   -9.3770 cc        1 TZ4      0.252600
     30 N4          4.0560   -0.4630   -8.7740 nc        1 TZ4     -0.384000
     31 N5          3.2150   -0.8180   -9.6580 nd        1 TZ4     -0.173800
     32 N6          3.8010   -0.8260  -10.8780 na        1 TZ4      0.062400
     33 C27         5.1480   -0.4560  -10.7550 cd        1 TZ4     -0.212600
     34 C28         3.1510   -1.2090  -12.1140 c3        1 TZ4      0.002300
     35 C29         2.7630   -2.7090  -12.1670 c3        1 TZ4      0.159800
     36 N7          2.2400   -3.1560  -13.4340 nh        1 TZ4     -0.709600
     37 C30         3.1810   -3.2920  -14.4950 ca        1 TZ4      0.109600
     38 C31         3.3160   -2.2680  -15.5030 ca        1 TZ4     -0.173300
     39 C32         2.5920   -1.0460  -15.4790 ca        1 TZ4     -0.137000
     40 C33         4.2270   -2.5040  -16.5750 ca        1 TZ4      0.407600
     41 C34         4.3700   -1.5080  -17.5980 ca        1 TZ4     -0.157300
     42 C35         3.6440   -0.3460  -17.5410 ca        1 TZ4     -0.126000
     43 C36         2.7490   -0.1110  -16.4720 ca        1 TZ4     -0.119000
     44 N8          4.9780   -3.6530  -16.6630 nb        1 TZ4     -0.670000
     45 C37         4.8390   -4.5880  -15.7290 ca        1 TZ4      0.447600
     46 C38         5.6520   -5.8460  -15.9070 c3        1 TZ4     -0.135700
     47 C39         3.9370   -4.4610  -14.6100 ca        1 TZ4     -0.166600
     48 C40         3.8230   -5.5370  -13.5880 c3        1 TZ4     -0.027100
     49 C41         4.4230   -6.8610  -14.0100 c3        1 TZ4     -0.080400
     50 C42         5.7810   -6.6530  -14.6370 c3        1 TZ4     -0.080400
     51 HN31       -0.2350   -1.9060    0.5640 hn        1 TZ4      0.429300
     52 HN32       -0.3000   -1.0600   -0.8980 hn        1 TZ4      0.429300
     53 H18         1.8370   -2.3820    1.7520 ha        1 TZ4      0.157000
     54 H17         4.2810   -2.3210    1.7160 ha        1 TZ4      0.153000
     55 H15         1.7120   -0.2500   -2.0460 ha        1 TZ4      0.161000
     56 H9          3.8000   -1.0930   -4.7570 ha        1 TZ4      0.148000
     57 H10         2.4140   -0.0590   -6.5470 ha        1 TZ4      0.166000
     58 H11         1.3830    2.1900   -6.1900 ha        1 TZ4      0.156000
     59 H12         1.7540    3.4110   -4.0410 ha        1 TZ4      0.166000
     60 H13         3.1440    2.3880   -2.2450 ha        1 TZ4      0.148000
     61 H3          6.2080   -2.2350    1.6390 ha        1 TZ4      0.154000
     62 H2          8.6510   -2.1640    1.5160 ha        1 TZ4      0.158000
     63 HN11       10.5310   -0.6330   -1.2320 hn        1 TZ4      0.291200
     64 HN12       10.6150   -1.4610    0.2570 hn        1 TZ4      0.291200
     65 H5          8.4270   -0.0790   -2.2880 ha        1 TZ4      0.152000
     66 H201        7.2300    1.3350   -3.0440 h1        1 TZ4      0.092700
     67 H202        5.6580    1.4420   -3.9430 h1        1 TZ4      0.092700
     68 H211        7.6470   -0.9530   -4.1300 hc        1 TZ4      0.063700
     69 H212        6.0670   -0.8050   -4.9990 hc        1 TZ4      0.063700
     70 H221        8.4490    1.1680   -5.2000 hc        1 TZ4      0.048700
     71 H222        6.8650    1.3530   -6.0530 hc        1 TZ4      0.048700
     72 H231        8.8310    0.3300   -7.3860 hc        1 TZ4      0.049700
     73 H232        8.6780   -1.1350   -6.3380 hc        1 TZ4      0.049700
     74 H241        6.1600   -1.1860   -7.0570 hc        1 TZ4      0.051200
     75 H242        7.4180   -1.6860   -8.2490 hc        1 TZ4      0.051200
     76 H251        7.3260    0.4640   -9.4050 hc        1 TZ4      0.054200
     77 H252        6.2890    1.1920   -8.1120 hc        1 TZ4      0.054200
     78 H27         5.8310   -0.3910  -11.5990 h4        1 TZ4      0.199000
     79 H281        2.2210   -0.5820  -12.2370 h1        1 TZ4      0.074700
     80 H282        3.8560   -0.9690  -12.9600 h1        1 TZ4      0.074700
     81 H291        1.9650   -2.9040  -11.3950 h1        1 TZ4      0.073700
     82 H292        3.6630   -3.3360  -11.9090 h1        1 TZ4      0.073700
     83 HN7         1.4470   -2.6140  -13.7210 hn        1 TZ4      0.386800
     84 H32         1.8920   -0.8330  -14.6570 ha        1 TZ4      0.119000
     85 H34         5.0680   -1.6970  -18.4290 ha        1 TZ4      0.156000
     86 H35         3.7480    0.4160  -18.3290 ha        1 TZ4      0.142000
     87 H36         2.1790    0.8300  -16.4480 ha        1 TZ4      0.137000
     88 H381        6.6760   -5.5930  -16.2930 hc        1 TZ4      0.070200
     89 H382        5.1440   -6.4680  -16.6960 hc        1 TZ4      0.070200
     90 H401        4.3410   -5.1880  -12.6520 hc        1 TZ4      0.056700
     91 H402        2.7420   -5.7010  -13.3270 hc        1 TZ4      0.056700
     92 H411        4.5090   -7.5280  -13.1140 hc        1 TZ4      0.048700
     93 H412        3.7430   -7.3700  -14.7430 hc        1 TZ4      0.048700
     94 H421        6.4580   -6.1280  -13.9130 hc        1 TZ4      0.047200
     95 H422        6.2500   -7.6440  -14.8770 hc        1 TZ4      0.047200
@<TRIPOS>BOND
     1    1    2 1   
     2    1   51 1   
     3    1   52 1   
     4    2    3 ar  
     5    2    7 ar  
     6    3    4 ar  
     7    3   53 1   
     8    4    5 ar  
     9    4   54 1   
    10    5    6 ar  
    11    5   15 2   
    12    6    7 ar  
    13    6    8 2   
    14    7   55 1   
    15    8    9 1   
    16    8   22 1   
    17    9   10 ar  
    18    9   14 ar  
    19   10   11 ar  
    20   10   56 1   
    21   11   12 ar  
    22   11   57 1   
    23   12   13 ar  
    24   12   58 1   
    25   13   14 ar  
    26   13   59 1   
    27   14   60 1   
    28   15   16 1   
    29   15   20 1   
    30   16   17 2   
    31   16   61 1   
    32   17   18 1   
    33   17   62 1   
    34   18   19 2   
    35   18   21 1   
    36   19   63 1   
    37   19   64 1   
    38   20   21 2   
    39   20   22 1   
    40   21   65 1   
    41   22   23 1   
    42   23   24 1   
    43   23   66 1   
    44   23   67 1   
    45   24   25 1   
    46   24   68 1   
    47   24   69 1   
    48   25   26 1   
    49   25   70 1   
    50   25   71 1   
    51   26   27 1   
    52   26   72 1   
    53   26   73 1   
    54   27   28 1   
    55   27   74 1   
    56   27   75 1   
    57   28   29 1   
    58   28   76 1   
    59   28   77 1   
    60   29   30 1   
    61   29   33 2   
    62   30   31 2   
    63   31   32 1   
    64   32   33 1   
    65   32   34 1   
    66   33   78 1   
    67   34   35 1   
    68   34   79 1   
    69   34   80 1   
    70   35   36 1   
    71   35   81 1   
    72   35   82 1   
    73   36   37 1   
    74   36   83 1   
    75   37   38 ar  
    76   37   47 ar  
    77   38   39 ar  
    78   38   40 ar  
    79   39   43 ar  
    80   39   84 1   
    81   40   41 ar  
    82   40   44 ar  
    83   41   42 ar  
    84   41   85 1   
    85   42   43 ar  
    86   42   86 1   
    87   43   87 1   
    88   44   45 ar  
    89   45   46 1   
    90   45   47 ar  
    91   46   50 1   
    92   46   88 1   
    93   46   89 1   
    94   47   48 1   
    95   48   49 1   
    96   48   90 1   
    97   48   91 1   
    98   49   50 1   
    99   49   92 1   
   100   49   93 1   
   101   50   94 1   
   102   50   95 1   
@<TRIPOS>SUBSTRUCTURE
     1 TZ4         1 TEMP              0 ****  ****    0 ROOT
