@<TRIPOS>MOLECULE
TZ4
   95   102     1     0     0
SMALL
bcc


@<TRIPOS>ATOM
      1 N3          0.2260   -1.5560   -0.1830 nv        1 TZ4     -0.847200
      2 C19         1.5960   -1.4120   -0.1670 ca        1 TZ4      0.190600
      3 C18         2.3720   -1.9720    0.9020 ca        1 TZ4     -0.117000
      4 C17         3.7420   -1.9070    0.8910 ca        1 TZ4     -0.105000
      5 C16         4.4470   -1.2850   -0.1690 ca        1 TZ4      0.014000
      6 C14         3.6890   -0.7140   -1.2220 ca        1 TZ4     -0.067000
      7 C15         2.2800   -0.7770   -1.2130 ca        1 TZ4     -0.184000
      8 C7          4.3760   -0.0680   -2.3080 cc        1 TZ4      0.178700
      9 C8          3.5660    0.5380   -3.3880 ca        1 TZ4     -0.143000
     10 C9          3.3400   -0.1680   -4.5760 ca        1 TZ4     -0.101000
     11 C10         2.5550    0.4010   -5.5790 ca        1 TZ4     -0.118500
     12 C11         2.0010    1.6690   -5.3980 ca        1 TZ4     -0.092000
     13 C12         2.2270    2.3710   -4.2130 ca        1 TZ4     -0.118500
     14 C13         3.0080    1.8110   -3.2040 ca        1 TZ4     -0.101000
     15 C4          5.8760   -1.2160   -0.2280 cc        1 TZ4     -0.094800
     16 C3          6.6990   -1.7680    0.7860 cc        1 TZ4     -0.040200
     17 C2          8.0650   -1.7210    0.7270 cd        1 TZ4     -0.263600
     18 C1          8.7220   -1.1040   -0.3890 cd        1 TZ4      0.400900
     19 N1         10.0860   -1.0670   -0.4530 nv        1 TZ4     -0.526100
     20 C6          6.5150   -0.5840   -1.3340 cc        1 TZ4      0.045700
     21 C5          7.9270   -0.5470   -1.4090 cd        1 TZ4     -0.353600
     22 N2          5.7250    0.0040   -2.3490 na        1 TZ4      0.019900
     23 C20         6.3910    0.6990   -3.4600 c3        1 TZ4     -0.011700
     24 C21         6.9180   -0.2330   -4.5500 c3        1 TZ4     -0.099400
     25 C22         7.5830    0.5890   -5.6360 c3        1 TZ4     -0.079400
     26 C23         8.0980   -0.2770   -6.7670 c3        1 TZ4     -0.079400
     27 C24         7.0040   -0.8120   -7.6680 c3        1 TZ4     -0.078400
     28 C25         6.5030    0.2360   -8.6450 c3        1 TZ4     -0.090700
     29 C26         5.2970   -0.2130   -9.3640 cc        1 TZ4      0.252600
     30 N4          4.0400   -0.4700   -8.7590 nc        1 TZ4     -0.383000
     31 N5          3.1980   -0.8220   -9.6430 nd        1 TZ4     -0.173800
     32 N6          3.7810   -0.8230  -10.8640 na        1 TZ4      0.062400
     33 C27         5.1280   -0.4500  -10.7420 cd        1 TZ4     -0.212600
     34 C28         3.1300   -1.2040  -12.1000 c3        1 TZ4      0.002300
     35 C29         2.7680   -2.7100  -12.1650 c3        1 TZ4      0.159800
     36 N7          2.2420   -3.1520  -13.4340 nu        1 TZ4     -0.709600
     37 C30         3.1760   -3.2590  -14.5040 ca        1 TZ4      0.109600
     38 C31         3.2820   -2.2220  -15.5020 ca        1 TZ4     -0.173300
     39 C32         2.5350   -1.0150  -15.4580 ca        1 TZ4     -0.137000
     40 C33         4.1880   -2.4280  -16.5840 ca        1 TZ4      0.407600
     41 C34         4.3010   -1.4190  -17.5980 ca        1 TZ4     -0.157300
     42 C35         3.5540   -0.2720  -17.5220 ca        1 TZ4     -0.126000
     43 C36         2.6650   -0.0660  -16.4420 ca        1 TZ4     -0.119000
     44 N8          4.9600   -3.5620  -16.6920 nb        1 TZ4     -0.670000
     45 C37         4.8470   -4.5090  -15.7670 ca        1 TZ4      0.447600
     46 C38         5.6820   -5.7490  -15.9650 c3        1 TZ4     -0.135700
     47 C39         3.9540   -4.4110  -14.6380 ca        1 TZ4     -0.166600
     48 C40         3.8710   -5.5000  -13.6270 c3        1 TZ4     -0.028100
     49 C41         4.4910   -6.8080  -14.0690 c3        1 TZ4     -0.080400
     50 C42         5.8390   -6.5670  -14.7050 c3        1 TZ4     -0.080400
     51 HN31       -0.2950   -1.0150   -0.8290 hn        1 TZ4      0.431300
     52 HN32       -0.2270   -1.8200    0.6580 hn        1 TZ4      0.431300
     53 H18         1.8560   -2.4690    1.7420 ha        1 TZ4      0.157000
     54 H17         4.2980   -2.3540    1.7310 ha        1 TZ4      0.153000
     55 H15         1.7210   -0.3260   -2.0500 ha        1 TZ4      0.161000
     56 H9          3.7730   -1.1700   -4.7220 ha        1 TZ4      0.147500
     57 H10         2.3870   -0.1500   -6.5200 ha        1 TZ4      0.165500
     58 H11         1.3850    2.1170   -6.1950 ha        1 TZ4      0.156000
     59 H12         1.7890    3.3720   -4.0720 ha        1 TZ4      0.165500
     60 H13         3.1830    2.3640   -2.2690 ha        1 TZ4      0.147500
     61 H3          6.2250   -2.2550    1.6550 ha        1 TZ4      0.154000
     62 H2          8.6680   -2.1610    1.5380 ha        1 TZ4      0.158000
     63 HN11       10.6290   -1.4660    0.2710 hn        1 TZ4      0.292200
     64 HN12       10.5410   -0.6420   -1.2210 hn        1 TZ4      0.292200
     65 H5          8.4340   -0.0890   -2.2730 ha        1 TZ4      0.152000
     66 H201        5.6560    1.4210   -3.9230 h1        1 TZ4      0.093200
     67 H202        7.2310    1.3160   -3.0290 h1        1 TZ4      0.093200
     68 H211        7.6510   -0.9670   -4.1230 hc        1 TZ4      0.064200
     69 H212        6.0670   -0.8220   -4.9860 hc        1 TZ4      0.064200
     70 H221        6.8540    1.3420   -6.0370 hc        1 TZ4      0.048200
     71 H222        8.4420    1.1590   -5.1920 hc        1 TZ4      0.048200
     72 H231        8.8190    0.3280   -7.3800 hc        1 TZ4      0.049700
     73 H232        8.6710   -1.1410   -6.3380 hc        1 TZ4      0.049700
     74 H241        7.4040   -1.6870   -8.2460 hc        1 TZ4      0.051200
     75 H242        6.1500   -1.1920   -7.0480 hc        1 TZ4      0.051200
     76 H251        7.3080    0.4680   -9.3930 hc        1 TZ4      0.054200
     77 H252        6.2720    1.1890   -8.0950 hc        1 TZ4      0.054200
     78 H27         5.8080   -0.3790  -11.5880 h4        1 TZ4      0.199000
     79 H281        3.8250   -0.9430  -12.9480 h1        1 TZ4      0.074700
     80 H282        2.1890   -0.5920  -12.2100 h1        1 TZ4      0.074700
     81 H291        1.9790   -2.9260  -11.3890 h1        1 TZ4      0.073700
     82 H292        3.6800   -3.3240  -11.9210 h1        1 TZ4      0.073700
     83 HN7         1.4360   -2.6220  -13.7070 hn        1 TZ4      0.386800
     84 H32         1.8390   -0.8230  -14.6270 ha        1 TZ4      0.119000
     85 H34         4.9960   -1.5860  -18.4370 ha        1 TZ4      0.156000
     86 H35         3.6350    0.5000  -18.3020 ha        1 TZ4      0.142000
     87 H36         2.0770    0.8640  -16.4030 ha        1 TZ4      0.137000
     88 H381        5.1800   -6.3720  -16.7560 hc        1 TZ4      0.070200
     89 H382        6.6980   -5.4720  -16.3580 hc        1 TZ4      0.070200
     90 H401        2.7950   -5.6870  -13.3570 hc        1 TZ4      0.056700
     91 H402        4.3910   -5.1510  -12.6910 hc        1 TZ4      0.056700
     92 H411        3.8150   -7.3220  -14.8010 hc        1 TZ4      0.048700
     93 H412        4.5980   -7.4830  -13.1800 hc        1 TZ4      0.048700
     94 H421        6.5120   -6.0370  -13.9820 hc        1 TZ4      0.047200
     95 H422        6.3240   -7.5460  -14.9600 hc        1 TZ4      0.047200
@<TRIPOS>BOND
     1    1    2 1   
     2    1   51 1   
     3    1   52 1   
     4    2    3 ar  
     5    2    7 ar  
     6    3    4 ar  
     7    3   53 1   
     8    4    5 ar  
     9    4   54 1   
    10    5    6 ar  
    11    5   15 2   
    12    6    7 ar  
    13    6    8 2   
    14    7   55 1   
    15    8    9 1   
    16    8   22 1   
    17    9   10 ar  
    18    9   14 ar  
    19   10   11 ar  
    20   10   56 1   
    21   11   12 ar  
    22   11   57 1   
    23   12   13 ar  
    24   12   58 1   
    25   13   14 ar  
    26   13   59 1   
    27   14   60 1   
    28   15   16 1   
    29   15   20 1   
    30   16   17 2   
    31   16   61 1   
    32   17   18 1   
    33   17   62 1   
    34   18   19 2   
    35   18   21 1   
    36   19   63 1   
    37   19   64 1   
    38   20   21 2   
    39   20   22 1   
    40   21   65 1   
    41   22   23 1   
    42   23   24 1   
    43   23   66 1   
    44   23   67 1   
    45   24   25 1   
    46   24   68 1   
    47   24   69 1   
    48   25   26 1   
    49   25   70 1   
    50   25   71 1   
    51   26   27 1   
    52   26   72 1   
    53   26   73 1   
    54   27   28 1   
    55   27   74 1   
    56   27   75 1   
    57   28   29 1   
    58   28   76 1   
    59   28   77 1   
    60   29   30 1   
    61   29   33 2   
    62   30   31 2   
    63   31   32 1   
    64   32   33 1   
    65   32   34 1   
    66   33   78 1   
    67   34   35 1   
    68   34   79 1   
    69   34   80 1   
    70   35   36 1   
    71   35   81 1   
    72   35   82 1   
    73   36   37 1   
    74   36   83 1   
    75   37   38 ar  
    76   37   47 ar  
    77   38   39 ar  
    78   38   40 ar  
    79   39   43 ar  
    80   39   84 1   
    81   40   41 ar  
    82   40   44 ar  
    83   41   42 ar  
    84   41   85 1   
    85   42   43 ar  
    86   42   86 1   
    87   43   87 1   
    88   44   45 ar  
    89   45   46 1   
    90   45   47 ar  
    91   46   50 1   
    92   46   88 1   
    93   46   89 1   
    94   47   48 1   
    95   48   49 1   
    96   48   90 1   
    97   48   91 1   
    98   49   50 1   
    99   49   92 1   
   100   49   93 1   
   101   50   94 1   
   102   50   95 1   
@<TRIPOS>SUBSTRUCTURE
     1 TZ4         1 TEMP              0 ****  ****    0 ROOT
