@<TRIPOS>MOLECULE
TZ4
   98   105     1     0     0
SMALL
bcc


@<TRIPOS>ATOM
      1 N3          2.0730   -1.2460    3.5250 n4        1 TZ4     -0.712000
      2 C19         3.1580   -0.7210    2.6940 ca        1 TZ4     -0.036400
      3 C18         4.3260   -0.2250    3.3260 ca        1 TZ4     -0.038000
      4 C17         5.3620    0.2740    2.5570 ca        1 TZ4     -0.090000
      5 C16         5.2810    0.3020    1.1480 ca        1 TZ4      0.056000
      6 C14         4.1100   -0.1900    0.5250 ca        1 TZ4     -0.103000
      7 C15         3.0480   -0.7050    1.3040 ca        1 TZ4     -0.016000
      8 C7          3.9960   -0.1590   -0.9250 cp        1 TZ4      0.250700
      9 C8          2.7480   -0.6640   -1.5290 cp        1 TZ4     -0.214000
     10 C9          2.6880   -1.9800   -2.0140 ca        1 TZ4     -0.100500
     11 C10         1.4990   -2.4530   -2.5670 ca        1 TZ4     -0.111500
     12 C11         0.3810   -1.6190   -2.6520 ca        1 TZ4     -0.054000
     13 C12         0.4480   -0.3060   -2.1760 ca        1 TZ4     -0.111500
     14 C13         1.6260    0.1760   -1.6120 ca        1 TZ4     -0.100500
     15 C4          6.3480    0.8080    0.3080 ca        1 TZ4     -0.011000
     16 C3          7.5430    1.3100    0.8630 ca        1 TZ4     -0.051000
     17 C2          8.5730    1.7870    0.0720 ca        1 TZ4     -0.080000
     18 C1          8.4260    1.7590   -1.3320 ca        1 TZ4      0.002600
     19 N1          9.5270    2.2630   -2.1590 n4        1 TZ4     -0.715000
     20 C6          6.1960    0.7970   -1.1100 ca        1 TZ4      0.011700
     21 C5          7.2620    1.2660   -1.9240 ca        1 TZ4     -0.091000
     22 N2          4.9880    0.3290   -1.6940 na        1 TZ4      0.027900
     23 C20         4.8070    0.4210   -3.1610 c3        1 TZ4     -0.024700
     24 C21         5.4390   -0.7180   -3.9590 c3        1 TZ4     -0.096400
     25 C22         5.0260   -0.5980   -5.4180 c3        1 TZ4     -0.084400
     26 C23         5.6080   -1.7340   -6.2380 c3        1 TZ4     -0.077400
     27 C24         4.9570   -1.8570   -7.6030 c3        1 TZ4     -0.081400
     28 C25         5.5730   -0.9260   -8.6300 c3        1 TZ4     -0.087700
     29 C26         4.8770   -0.9840   -9.9300 cc        1 TZ4      0.258600
     30 N4          3.4780   -0.7830  -10.1020 nc        1 TZ4     -0.336000
     31 N5          3.1760   -0.8500  -11.3260 nd        1 TZ4     -0.156800
     32 N6          4.2910   -1.1040  -12.0670 na        1 TZ4      0.021400
     33 C27         5.4080   -1.1950  -11.2150 cd        1 TZ4     -0.188600
     34 C28         4.3320   -1.1210  -13.5090 c3        1 TZ4      0.045300
     35 C29         3.2440   -2.0380  -14.1140 c3        1 TZ4      0.089800
     36 N7          3.2350   -2.0230  -15.6090 n4        1 TZ4     -0.629400
     37 C30         4.3010   -2.8340  -16.2140 ca        1 TZ4     -0.047400
     38 C31         5.5170   -2.1860  -16.6170 ca        1 TZ4     -0.138300
     39 C32         5.7820   -0.7990  -16.4830 ca        1 TZ4     -0.187000
     40 C33         6.5100   -3.0230  -17.2200 ca        1 TZ4      0.412600
     41 C34         7.7310   -2.4290  -17.6840 ca        1 TZ4     -0.127300
     42 C35         7.9390   -1.0790  -17.5520 ca        1 TZ4     -0.112000
     43 C36         6.9590   -0.2590  -16.9480 ca        1 TZ4     -0.063000
     44 N8          6.3350   -4.3760  -17.3770 nb        1 TZ4     -0.603000
     45 C37         5.1940   -4.9460  -17.0090 ca        1 TZ4      0.452600
     46 C38         5.0520   -6.4280  -17.2390 c3        1 TZ4     -0.144700
     47 C39         4.0990   -4.1970  -16.4280 ca        1 TZ4     -0.112600
     48 C40         2.8160   -4.8580  -16.0660 c3        1 TZ4     -0.055100
     49 C41         2.6800   -6.2900  -16.5470 c3        1 TZ4     -0.080400
     50 C42         3.9750   -7.0460  -16.3800 c3        1 TZ4     -0.086400
     51 HN31        1.2950   -1.5840    2.9430 hn        1 TZ4      0.487800
     52 HN32        2.4220   -2.0280    4.1010 hn        1 TZ4      0.487800
     53 H18         4.4270   -0.2300    4.4300 ha        1 TZ4      0.202000
     54 H17         6.2590    0.6520    3.0820 ha        1 TZ4      0.195000
     55 H15         2.1460   -1.0840    0.7830 ha        1 TZ4      0.197000
     56 H9          3.5660   -2.6410   -1.9580 ha        1 TZ4      0.153000
     57 H10         1.4440   -3.4900   -2.9430 ha        1 TZ4      0.185000
     58 H11        -0.5570   -1.9960   -3.1020 ha        1 TZ4      0.189000
     59 H12        -0.4340    0.3550   -2.2530 ha        1 TZ4      0.185000
     60 H13         1.6740    1.2150   -1.2490 ha        1 TZ4      0.153000
     61 H3          7.6820    1.3350    1.9600 ha        1 TZ4      0.197000
     62 H2          9.4900    2.1790    0.5530 ha        1 TZ4      0.203000
     63 HN11        9.6820    3.2630   -1.9550 hn        1 TZ4      0.487800
     64 HN12        9.3170    2.1560   -3.1600 hn        1 TZ4      0.487800
     65 H5          7.1750    1.2320   -3.0270 ha        1 TZ4      0.185000
     66 H201        3.6940    0.4350   -3.3710 h1        1 TZ4      0.110200
     67 H202        5.2140    1.4190   -3.4930 h1        1 TZ4      0.110200
     68 H211        5.0910   -1.7080   -3.5590 hc        1 TZ4      0.059700
     69 H212        6.5550   -0.6930   -3.8740 hc        1 TZ4      0.059700
     70 H221        5.3690    0.3850   -5.8350 hc        1 TZ4      0.059200
     71 H222        3.9060   -0.6180   -5.4910 hc        1 TZ4      0.059200
     72 H231        6.7140   -1.5880   -6.3530 hc        1 TZ4      0.048200
     73 H232        5.4560   -2.7000   -5.6860 hc        1 TZ4      0.048200
     74 H241        3.8560   -1.6570   -7.5190 hc        1 TZ4      0.067200
     75 H242        5.0730   -2.9160   -7.9600 hc        1 TZ4      0.067200
     76 H251        6.6530   -1.1950   -8.7870 hc        1 TZ4      0.053200
     77 H252        5.5390    0.1310   -8.2470 hc        1 TZ4      0.053200
     78 H27         6.4180   -1.3930  -11.5720 h4        1 TZ4      0.206000
     79 H281        4.1810   -0.0650  -13.8870 h1        1 TZ4      0.089700
     80 H282        5.3540   -1.4760  -13.8330 h1        1 TZ4      0.089700
     81 H291        2.2220   -1.6970  -13.7730 hx        1 TZ4      0.121700
     82 H292        3.4060   -3.1020  -13.7780 hx        1 TZ4      0.121700
     83 HN7         3.3180   -1.0550  -15.9500 hn        1 TZ4      0.464800
     84 H32         5.0520   -0.1190  -16.0200 ha        1 TZ4      0.109000
     85 H34         8.4910   -3.0770  -18.1580 ha        1 TZ4      0.186000
     86 H35         8.8700   -0.6190  -17.9240 ha        1 TZ4      0.173000
     87 H36         7.1480    0.8240  -16.8600 ha        1 TZ4      0.160000
     88 H381        4.8080   -6.5830  -18.3280 hc        1 TZ4      0.095700
     89 H382        6.0320   -6.9450  -17.0460 hc        1 TZ4      0.095700
     90 H401        1.9490   -4.2810  -16.4960 hc        1 TZ4      0.050700
     91 H402        2.7150   -4.8440  -14.9440 hc        1 TZ4      0.050700
     92 H411        1.8610   -6.7910  -15.9670 hc        1 TZ4      0.072200
     93 H412        2.3760   -6.2980  -17.6280 hc        1 TZ4      0.072200
     94 H421        3.8310   -8.1160  -16.6880 hc        1 TZ4      0.066700
     95 H422        4.2870   -7.0470  -15.3030 hc        1 TZ4      0.066700
     96 H33         1.7230   -0.5040    4.1520 hn        1 TZ4      0.487800
     97 H131       10.3910    1.7420   -1.9410 hn        1 TZ4      0.487800
     98 H72         2.3260   -2.3930  -15.9250 hn        1 TZ4      0.464800
@<TRIPOS>BOND
     1    1    2 1   
     2    1   51 1   
     3    1   52 1   
     4    1   96 1   
     5    2    3 ar  
     6    2    7 ar  
     7    3    4 ar  
     8    3   53 1   
     9    4    5 ar  
    10    4   54 1   
    11    5    6 ar  
    12    5   15 ar  
    13    6    7 ar  
    14    6    8 ar  
    15    7   55 1   
    16    8    9 1   
    17    8   22 1   
    18    9   10 ar  
    19    9   14 ar  
    20   10   11 ar  
    21   10   56 1   
    22   11   12 ar  
    23   11   57 1   
    24   12   13 ar  
    25   12   58 1   
    26   13   14 ar  
    27   13   59 1   
    28   14   60 1   
    29   15   16 ar  
    30   15   20 ar  
    31   16   17 ar  
    32   16   61 1   
    33   17   18 ar  
    34   17   62 1   
    35   18   19 1   
    36   18   21 ar  
    37   19   63 1   
    38   19   64 1   
    39   19   97 1   
    40   20   21 ar  
    41   20   22 2   
    42   21   65 1   
    43   22   23 1   
    44   23   24 1   
    45   23   66 1   
    46   23   67 1   
    47   24   25 1   
    48   24   68 1   
    49   24   69 1   
    50   25   26 1   
    51   25   70 1   
    52   25   71 1   
    53   26   27 1   
    54   26   72 1   
    55   26   73 1   
    56   27   28 1   
    57   27   74 1   
    58   27   75 1   
    59   28   29 1   
    60   28   76 1   
    61   28   77 1   
    62   29   30 1   
    63   29   33 2   
    64   30   31 2   
    65   31   32 1   
    66   32   33 1   
    67   32   34 1   
    68   33   78 1   
    69   34   35 1   
    70   34   79 1   
    71   34   80 1   
    72   35   36 1   
    73   35   81 1   
    74   35   82 1   
    75   36   37 1   
    76   36   83 1   
    77   36   98 1   
    78   37   38 ar  
    79   37   47 ar  
    80   38   39 ar  
    81   38   40 ar  
    82   39   43 ar  
    83   39   84 1   
    84   40   41 ar  
    85   40   44 ar  
    86   41   42 ar  
    87   41   85 1   
    88   42   43 ar  
    89   42   86 1   
    90   43   87 1   
    91   44   45 ar  
    92   45   46 1   
    93   45   47 ar  
    94   46   50 1   
    95   46   88 1   
    96   46   89 1   
    97   47   48 1   
    98   48   49 1   
    99   48   90 1   
   100   48   91 1   
   101   49   50 1   
   102   49   92 1   
   103   49   93 1   
   104   50   94 1   
   105   50   95 1   
@<TRIPOS>SUBSTRUCTURE
     1 TZ4         1 TEMP              0 ****  ****    0 ROOT
