@<TRIPOS>MOLECULE
TZ5
   95   102     1     0     0
SMALL
bcc


@<TRIPOS>ATOM
      1 N2          0.2170    2.3460   -2.0660 nv        1 TZ5     -0.510100
      2 C8          1.2400    1.5230   -1.7050 cc        1 TZ5      0.409900
      3 C7          1.3450    1.0400   -0.3560 cc        1 TZ5     -0.265600
      4 C6          2.3540    0.1900   -0.0010 cd        1 TZ5     -0.038200
      5 C5          3.3380   -0.2500   -0.9230 cd        1 TZ5     -0.102800
      6 C19         2.2150    1.1110   -2.6380 cc        1 TZ5     -0.366600
      7 C18         3.2630    0.2420   -2.2600 cd        1 TZ5      0.051700
      8 N3          4.2450   -0.1520   -3.1980 na        1 TZ5      0.018900
      9 C11         5.2110   -1.0390   -2.8610 cc        1 TZ5      0.165700
     10 C12         6.2010   -1.4760   -3.8710 ca        1 TZ5     -0.133000
     11 C13         7.4520   -0.8470   -3.9390 ca        1 TZ5     -0.099500
     12 C14         8.3920   -1.2840   -4.8700 ca        1 TZ5     -0.123500
     13 C15         8.0910   -2.3440   -5.7280 ca        1 TZ5     -0.092000
     14 C16         6.8450   -2.9690   -5.6570 ca        1 TZ5     -0.123500
     15 C17         5.8960   -2.5370   -4.7330 ca        1 TZ5     -0.099500
     16 C10         5.3140   -1.5710   -1.5320 ca        1 TZ5     -0.069000
     17 C9          6.3400   -2.4870   -1.2100 ca        1 TZ5     -0.189000
     18 C4          4.3750   -1.1610   -0.5510 ca        1 TZ5      0.024000
     19 C3          4.5140   -1.6890    0.7580 ca        1 TZ5     -0.108000
     20 C2          5.5150   -2.5710    1.0750 ca        1 TZ5     -0.112000
     21 C1          6.4690   -2.9940    0.0880 ca        1 TZ5      0.187600
     22 N1          7.5140   -3.8210    0.4420 nv        1 TZ5     -0.843200
     23 C20         4.2160    0.4220   -4.5500 c3        1 TZ5     -0.011700
     24 C21         3.2170   -0.2480   -5.4910 c3        1 TZ5     -0.095400
     25 C22         3.2020    0.4440   -6.8390 c3        1 TZ5     -0.082400
     26 C23         2.7830    1.8980   -6.7510 c3        1 TZ5     -0.088400
     27 C24         1.9980    2.3300   -7.9720 c3        1 TZ5     -0.074400
     28 C25         1.6460    3.8050   -7.9440 c3        1 TZ5     -0.016100
     29 C26         0.8010    4.1690   -6.7900 cc        1 TZ5     -0.162900
     30 N4          0.6660    5.4620   -6.2390 na        1 TZ5      0.056400
     31 N5         -0.1680    5.4130   -5.1730 nc        1 TZ5     -0.168800
     32 N6         -0.5760    4.2220   -4.9920 nd        1 TZ5     -0.381000
     33 C27        -0.0230    3.3730   -5.9660 cd        1 TZ5      0.226200
     34 C28         1.2980    6.6670   -6.7340 c3        1 TZ5      0.008300
     35 C29         0.7780    7.1580   -8.1050 c3        1 TZ5      0.172800
     36 N7         -0.5850    7.6140   -8.1510 nu        1 TZ5     -0.731600
     37 C30        -1.5430    6.8410   -8.8410 ca        1 TZ5      0.163600
     38 C31        -1.2910    6.4390  -10.2050 ca        1 TZ5     -0.165300
     39 C32        -0.1980    6.9170  -10.9770 ca        1 TZ5     -0.114000
     40 C33        -2.2280    5.5560  -10.8200 ca        1 TZ5      0.414600
     41 C34        -1.9700    5.0900  -12.1520 ca        1 TZ5     -0.171300
     42 C35        -0.8740    5.5360  -12.8440 ca        1 TZ5     -0.121000
     43 C36         0.0080    6.4750  -12.2610 ca        1 TZ5     -0.140000
     44 N8         -3.3820    5.1500  -10.1920 nb        1 TZ5     -0.687000
     45 C37        -3.6630    5.6410   -8.9880 ca        1 TZ5      0.465600
     46 C38        -4.9840    5.2350   -8.3850 c3        1 TZ5     -0.134700
     47 C39        -2.7790    6.5130   -8.2630 ca        1 TZ5     -0.239600
     48 C40        -3.1440    7.0440   -6.9210 c3        1 TZ5     -0.032100
     49 C41        -4.5770    6.7870   -6.5040 c3        1 TZ5     -0.074400
     50 C42        -5.0090    5.3910   -6.8820 c3        1 TZ5     -0.079400
     51 HN21        0.1470    2.6940   -2.9910 hn        1 TZ5      0.300700
     52 HN22       -0.4430    2.6450   -1.3920 hn        1 TZ5      0.300700
     53 H7          0.6010    1.3580    0.3930 ha        1 TZ5      0.159000
     54 H6          2.4000   -0.1670    1.0420 ha        1 TZ5      0.154000
     55 H19         2.1290    1.4760   -3.6730 ha        1 TZ5      0.153000
     56 H13         7.6940   -0.0180   -3.2570 ha        1 TZ5      0.149500
     57 H14         9.3760   -0.7920   -4.9250 ha        1 TZ5      0.156500
     58 H15         8.8390   -2.6880   -6.4610 ha        1 TZ5      0.157000
     59 H16         6.6090   -3.8070   -6.3320 ha        1 TZ5      0.156500
     60 H17         4.9150   -3.0350   -4.6760 ha        1 TZ5      0.149500
     61 H9          7.0490   -2.7880   -1.9980 ha        1 TZ5      0.158000
     62 H3          3.8040   -1.3900    1.5460 ha        1 TZ5      0.154000
     63 H2          5.5950   -2.9590    2.1040 ha        1 TZ5      0.158000
     64 HN11        7.4430   -4.3190    1.2960 hn        1 TZ5      0.429800
     65 HN12        8.0340   -4.2490   -0.2860 hn        1 TZ5      0.429800
     66 H201        3.9840    1.5220   -4.4520 h1        1 TZ5      0.093200
     67 H202        5.2500    0.3420   -4.9980 h1        1 TZ5      0.093200
     68 H211        2.1870   -0.2310   -5.0460 hc        1 TZ5      0.062200
     69 H212        3.5040   -1.3250   -5.6350 hc        1 TZ5      0.062200
     70 H221        4.2160    0.3730   -7.3140 hc        1 TZ5      0.059200
     71 H222        2.4900   -0.1180   -7.5020 hc        1 TZ5      0.059200
     72 H231        2.1460    2.0600   -5.8390 hc        1 TZ5      0.041200
     73 H232        3.6910    2.5470   -6.6380 hc        1 TZ5      0.041200
     74 H241        1.0570    1.7230   -8.0460 hc        1 TZ5      0.057700
     75 H242        2.6020    2.1290   -8.8970 hc        1 TZ5      0.057700
     76 H251        2.5910    4.4150   -7.9370 hc        1 TZ5      0.069700
     77 H252        1.0900    4.0600   -8.8910 hc        1 TZ5      0.069700
     78 H27        -0.2670    2.3170   -6.0310 h4        1 TZ5      0.054100
     79 H281        1.1730    7.4850   -5.9670 h1        1 TZ5      0.078700
     80 H282        2.3990    6.4520   -6.8480 h1        1 TZ5      0.078700
     81 H291        1.4310    8.0420   -8.3750 h1        1 TZ5      0.069200
     82 H292        0.9550    6.3460   -8.8660 h1        1 TZ5      0.069200
     83 HN7        -0.9070    7.9560   -7.2680 hn        1 TZ5      0.406800
     84 H32         0.4700    7.6880  -10.5620 ha        1 TZ5      0.136000
     85 H34        -2.6790    4.3830  -12.6130 ha        1 TZ5      0.154000
     86 H35        -0.6800    5.1850  -13.8690 ha        1 TZ5      0.139000
     87 H36         0.8500    6.8590  -12.8560 ha        1 TZ5      0.135000
     88 H381       -5.2250    4.1720   -8.6540 hc        1 TZ5      0.068700
     89 H382       -5.7800    5.8840   -8.8450 hc        1 TZ5      0.068700
     90 H401       -2.9820    8.1580   -6.9010 hc        1 TZ5      0.049200
     91 H402       -2.4600    6.5880   -6.1540 hc        1 TZ5      0.049200
     92 H411       -5.2550    7.5340   -6.9950 hc        1 TZ5      0.048200
     93 H412       -4.6670    6.9310   -5.3950 hc        1 TZ5      0.048200
     94 H421       -6.0470    5.1950   -6.5080 hc        1 TZ5      0.048200
     95 H422       -4.3290    4.6380   -6.4040 hc        1 TZ5      0.048200
@<TRIPOS>BOND
     1    1    2 2   
     2    1   51 1   
     3    1   52 1   
     4    2    3 1   
     5    2    6 1   
     6    3    4 2   
     7    3   53 1   
     8    4    5 1   
     9    4   54 1   
    10    5    7 1   
    11    5   18 2   
    12    6    7 2   
    13    6   55 1   
    14    7    8 1   
    15    8    9 1   
    16    8   23 1   
    17    9   10 1   
    18    9   16 2   
    19   10   11 ar  
    20   10   15 ar  
    21   11   12 ar  
    22   11   56 1   
    23   12   13 ar  
    24   12   57 1   
    25   13   14 ar  
    26   13   58 1   
    27   14   15 ar  
    28   14   59 1   
    29   15   60 1   
    30   16   17 ar  
    31   16   18 ar  
    32   17   21 ar  
    33   17   61 1   
    34   18   19 ar  
    35   19   20 ar  
    36   19   62 1   
    37   20   21 ar  
    38   20   63 1   
    39   21   22 1   
    40   22   64 1   
    41   22   65 1   
    42   23   24 1   
    43   23   66 1   
    44   23   67 1   
    45   24   25 1   
    46   24   68 1   
    47   24   69 1   
    48   25   26 1   
    49   25   70 1   
    50   25   71 1   
    51   26   27 1   
    52   26   72 1   
    53   26   73 1   
    54   27   28 1   
    55   27   74 1   
    56   27   75 1   
    57   28   29 1   
    58   28   76 1   
    59   28   77 1   
    60   29   30 1   
    61   29   33 2   
    62   30   31 1   
    63   30   34 1   
    64   31   32 2   
    65   32   33 1   
    66   33   78 1   
    67   34   35 1   
    68   34   79 1   
    69   34   80 1   
    70   35   36 1   
    71   35   81 1   
    72   35   82 1   
    73   36   37 1   
    74   36   83 1   
    75   37   38 ar  
    76   37   47 ar  
    77   38   39 ar  
    78   38   40 ar  
    79   39   43 ar  
    80   39   84 1   
    81   40   41 ar  
    82   40   44 ar  
    83   41   42 ar  
    84   41   85 1   
    85   42   43 ar  
    86   42   86 1   
    87   43   87 1   
    88   44   45 ar  
    89   45   46 1   
    90   45   47 ar  
    91   46   50 1   
    92   46   88 1   
    93   46   89 1   
    94   47   48 1   
    95   48   49 1   
    96   48   90 1   
    97   48   91 1   
    98   49   50 1   
    99   49   92 1   
   100   49   93 1   
   101   50   94 1   
   102   50   95 1   
@<TRIPOS>SUBSTRUCTURE
     1 TZ5         1 TEMP              0 ****  ****    0 ROOT
