@<TRIPOS>MOLECULE
TZ5
   95   102     1     0     0
SMALL
bcc


@<TRIPOS>ATOM
      1 N2          0.2030    2.3230   -2.0720 nh        1 TZ5     -0.510100
      2 C8          1.2280    1.5030   -1.7100 cc        1 TZ5      0.409900
      3 C7          1.3280    1.0150   -0.3630 cc        1 TZ5     -0.265600
      4 C6          2.3400    0.1670   -0.0070 cd        1 TZ5     -0.038200
      5 C5          3.3310   -0.2640   -0.9270 cd        1 TZ5     -0.102800
      6 C19         2.2090    1.1000   -2.6400 cc        1 TZ5     -0.366600
      7 C18         3.2600    0.2340   -2.2620 cd        1 TZ5      0.051700
      8 N3          4.2480   -0.1500   -3.1970 na        1 TZ5      0.018900
      9 C11         5.2160   -1.0350   -2.8600 cc        1 TZ5      0.165700
     10 C12         6.2130   -1.4620   -3.8680 ca        1 TZ5     -0.133000
     11 C13         7.4610   -0.8280   -3.9270 ca        1 TZ5     -0.099500
     12 C14         8.4080   -1.2560   -4.8560 ca        1 TZ5     -0.123500
     13 C15         8.1150   -2.3130   -5.7200 ca        1 TZ5     -0.092000
     14 C16         6.8720   -2.9440   -5.6580 ca        1 TZ5     -0.123500
     15 C17         5.9160   -2.5210   -4.7350 ca        1 TZ5     -0.099500
     16 C10         5.3150   -1.5730   -1.5330 ca        1 TZ5     -0.069000
     17 C9          6.3440   -2.4850   -1.2110 ca        1 TZ5     -0.189000
     18 C4          4.3700   -1.1710   -0.5540 ca        1 TZ5      0.024000
     19 C3          4.5050   -1.7060    0.7530 ca        1 TZ5     -0.108000
     20 C2          5.5080   -2.5840    1.0700 ca        1 TZ5     -0.112000
     21 C1          6.4690   -2.9980    0.0850 ca        1 TZ5      0.187600
     22 N1          7.5170   -3.8220    0.4400 nh        1 TZ5     -0.843200
     23 C20         4.2230    0.4300   -4.5460 c3        1 TZ5     -0.011700
     24 C21         3.2320   -0.2400   -5.4960 c3        1 TZ5     -0.095400
     25 C22         3.2200    0.4600   -6.8400 c3        1 TZ5     -0.082400
     26 C23         2.7920    1.9110   -6.7460 c3        1 TZ5     -0.088400
     27 C24         2.0120    2.3460   -7.9690 c3        1 TZ5     -0.074400
     28 C25         1.6510    3.8190   -7.9340 c3        1 TZ5     -0.016100
     29 C26         0.7980    4.1710   -6.7830 cc        1 TZ5     -0.162900
     30 N4          0.6510    5.4610   -6.2270 na        1 TZ5      0.056400
     31 N5         -0.1890    5.4010   -5.1660 nc        1 TZ5     -0.168800
     32 N6         -0.5910    4.2070   -4.9930 nd        1 TZ5     -0.381000
     33 C27        -0.0260    3.3660   -5.9680 cd        1 TZ5      0.226200
     34 C28         1.2770    6.6730   -6.7130 c3        1 TZ5      0.008300
     35 C29         0.7620    7.1680   -8.0830 c3        1 TZ5      0.172800
     36 N7         -0.6050    7.6140   -8.1350 nh        1 TZ5     -0.731600
     37 C30        -1.5530    6.8400   -8.8350 ca        1 TZ5      0.163600
     38 C31        -1.2890    6.4490  -10.2010 ca        1 TZ5     -0.165300
     39 C32        -0.1950    6.9390  -10.9630 ca        1 TZ5     -0.114000
     40 C33        -2.2170    5.5640  -10.8280 ca        1 TZ5      0.414600
     41 C34        -1.9470    5.1090  -12.1620 ca        1 TZ5     -0.171300
     42 C35        -0.8500    5.5670  -12.8440 ca        1 TZ5     -0.121000
     43 C36         0.0220    6.5070  -12.2480 ca        1 TZ5     -0.140000
     44 N8         -3.3710    5.1450  -10.2100 nb        1 TZ5     -0.687000
     45 C37        -3.6640    5.6270   -9.0040 ca        1 TZ5      0.465600
     46 C38        -4.9860    5.2080   -8.4120 c3        1 TZ5     -0.134700
     47 C39        -2.7900    6.5000   -8.2680 ca        1 TZ5     -0.239600
     48 C40        -3.1680    7.0190   -6.9250 c3        1 TZ5     -0.032100
     49 C41        -4.6010    6.7500   -6.5180 c3        1 TZ5     -0.074400
     50 C42        -5.0210    5.3530   -6.9090 c3        1 TZ5     -0.079400
     51 HN21       -0.4630    2.6150   -1.4000 hn        1 TZ5      0.300700
     52 HN22        0.1350    2.6750   -2.9960 hn        1 TZ5      0.300700
     53 H7          0.5800    1.3250    0.3840 ha        1 TZ5      0.159000
     54 H6          2.3830   -0.1940    1.0340 ha        1 TZ5      0.154000
     55 H19         2.1260    1.4700   -3.6740 ha        1 TZ5      0.153000
     56 H13         7.6970   -0.0000   -3.2400 ha        1 TZ5      0.149500
     57 H14         9.3890   -0.7600   -4.9030 ha        1 TZ5      0.156500
     58 H15         8.8670   -2.6500   -6.4510 ha        1 TZ5      0.157000
     59 H16         6.6430   -3.7800   -6.3370 ha        1 TZ5      0.156500
     60 H17         4.9380   -3.0240   -4.6850 ha        1 TZ5      0.149500
     61 H9          7.0580   -2.7800   -1.9970 ha        1 TZ5      0.158000
     62 H3          3.7900   -1.4140    1.5390 ha        1 TZ5      0.154000
     63 H2          5.5860   -2.9770    2.0980 ha        1 TZ5      0.158000
     64 HN11        7.4440   -4.3250    1.2920 hn        1 TZ5      0.429800
     65 HN12        8.0420   -4.2440   -0.2870 hn        1 TZ5      0.429800
     66 H201        3.9850    1.5290   -4.4430 h1        1 TZ5      0.093200
     67 H202        5.2590    0.3570   -4.9890 h1        1 TZ5      0.093200
     68 H211        3.5250   -1.3140   -5.6440 hc        1 TZ5      0.062200
     69 H212        2.2000   -0.2300   -5.0560 hc        1 TZ5      0.062200
     70 H221        2.5140   -0.1030   -7.5100 hc        1 TZ5      0.059200
     71 H222        4.2360    0.3970   -7.3100 hc        1 TZ5      0.059200
     72 H231        2.1500    2.0650   -5.8360 hc        1 TZ5      0.041200
     73 H232        3.6960    2.5650   -6.6240 hc        1 TZ5      0.041200
     74 H241        1.0750    1.7340   -8.0520 hc        1 TZ5      0.057700
     75 H242        2.6220    2.1540   -8.8910 hc        1 TZ5      0.057700
     76 H251        2.5930    4.4340   -7.9180 hc        1 TZ5      0.069700
     77 H252        1.1010    4.0770   -8.8840 hc        1 TZ5      0.069700
     78 H27        -0.2630    2.3080   -6.0400 h4        1 TZ5      0.054100
     79 H281        2.3810    6.4660   -6.8220 h1        1 TZ5      0.078700
     80 H282        1.1430    7.4860   -5.9420 h1        1 TZ5      0.078700
     81 H291        1.4090    8.0570   -8.3450 h1        1 TZ5      0.069200
     82 H292        0.9480    6.3600   -8.8480 h1        1 TZ5      0.069200
     83 HN7        -0.9340    7.9470   -7.2500 hn        1 TZ5      0.406800
     84 H32         0.4650    7.7110  -10.5380 ha        1 TZ5      0.136000
     85 H34        -2.6480    4.4000  -12.6310 ha        1 TZ5      0.154000
     86 H35        -0.6470    5.2230  -13.8700 ha        1 TZ5      0.139000
     87 H36         0.8650    6.9010  -12.8350 ha        1 TZ5      0.135000
     88 H381       -5.7830    5.8540   -8.8730 hc        1 TZ5      0.068700
     89 H382       -5.2180    4.1450   -8.6910 hc        1 TZ5      0.068700
     90 H401       -3.0130    8.1340   -6.8960 hc        1 TZ5      0.048700
     91 H402       -2.4850    6.5620   -6.1560 hc        1 TZ5      0.048700
     92 H411       -4.6990    6.8860   -5.4100 hc        1 TZ5      0.048200
     93 H412       -5.2810    7.4950   -7.0090 hc        1 TZ5      0.048200
     94 H421       -6.0610    5.1480   -6.5430 hc        1 TZ5      0.048200
     95 H422       -4.3400    4.6020   -6.4320 hc        1 TZ5      0.048200
@<TRIPOS>BOND
     1    1    2 2   
     2    1   51 1   
     3    1   52 1   
     4    2    3 1   
     5    2    6 1   
     6    3    4 2   
     7    3   53 1   
     8    4    5 1   
     9    4   54 1   
    10    5    7 1   
    11    5   18 2   
    12    6    7 2   
    13    6   55 1   
    14    7    8 1   
    15    8    9 1   
    16    8   23 1   
    17    9   10 1   
    18    9   16 2   
    19   10   11 ar  
    20   10   15 ar  
    21   11   12 ar  
    22   11   56 1   
    23   12   13 ar  
    24   12   57 1   
    25   13   14 ar  
    26   13   58 1   
    27   14   15 ar  
    28   14   59 1   
    29   15   60 1   
    30   16   17 ar  
    31   16   18 ar  
    32   17   21 ar  
    33   17   61 1   
    34   18   19 ar  
    35   19   20 ar  
    36   19   62 1   
    37   20   21 ar  
    38   20   63 1   
    39   21   22 1   
    40   22   64 1   
    41   22   65 1   
    42   23   24 1   
    43   23   66 1   
    44   23   67 1   
    45   24   25 1   
    46   24   68 1   
    47   24   69 1   
    48   25   26 1   
    49   25   70 1   
    50   25   71 1   
    51   26   27 1   
    52   26   72 1   
    53   26   73 1   
    54   27   28 1   
    55   27   74 1   
    56   27   75 1   
    57   28   29 1   
    58   28   76 1   
    59   28   77 1   
    60   29   30 1   
    61   29   33 2   
    62   30   31 1   
    63   30   34 1   
    64   31   32 2   
    65   32   33 1   
    66   33   78 1   
    67   34   35 1   
    68   34   79 1   
    69   34   80 1   
    70   35   36 1   
    71   35   81 1   
    72   35   82 1   
    73   36   37 1   
    74   36   83 1   
    75   37   38 ar  
    76   37   47 ar  
    77   38   39 ar  
    78   38   40 ar  
    79   39   43 ar  
    80   39   84 1   
    81   40   41 ar  
    82   40   44 ar  
    83   41   42 ar  
    84   41   85 1   
    85   42   43 ar  
    86   42   86 1   
    87   43   87 1   
    88   44   45 ar  
    89   45   46 1   
    90   45   47 ar  
    91   46   50 1   
    92   46   88 1   
    93   46   89 1   
    94   47   48 1   
    95   48   49 1   
    96   48   90 1   
    97   48   91 1   
    98   49   50 1   
    99   49   92 1   
   100   49   93 1   
   101   50   94 1   
   102   50   95 1   
@<TRIPOS>SUBSTRUCTURE
     1 TZ5         1 TEMP              0 ****  ****    0 ROOT
