@<TRIPOS>MOLECULE
TZ5
   95   102     1     0     0
SMALL
bcc


@<TRIPOS>ATOM
      1 N2         36.1770   21.7960   12.9100 nh        1 TZ5     -0.511100
      2 C8         36.9580   22.5950   12.1300 cc        1 TZ5      0.409900
      3 C7         38.3890   22.4830   12.1780 cc        1 TZ5     -0.265600
      4 C6         39.1730   23.2640   11.3760 cd        1 TZ5     -0.038200
      5 C5         38.6280   24.2150   10.4750 cd        1 TZ5     -0.101800
      6 C19        36.3930   23.5420   11.2510 cc        1 TZ5     -0.366600
      7 C18        37.2090   24.3570   10.4350 cd        1 TZ5      0.051700
      8 N3         36.6340   25.3170    9.5710 na        1 TZ5      0.018900
      9 C11        37.4060   26.0510    8.7370 cc        1 TZ5      0.165700
     10 C12        36.7810   27.0170    7.8050 ca        1 TZ5     -0.132000
     11 C13        36.6470   28.3610    8.1780 ca        1 TZ5     -0.099500
     12 C14        36.0870   29.2710    7.2830 ca        1 TZ5     -0.123500
     13 C15        35.6640   28.8470    6.0230 ca        1 TZ5     -0.092000
     14 C16        35.7990   27.5080    5.6530 ca        1 TZ5     -0.123500
     15 C17        36.3540   26.5880    6.5420 ca        1 TZ5     -0.099500
     16 C10        38.8360   25.9270    8.7300 ca        1 TZ5     -0.068000
     17 C9         39.6140   26.7150    7.8520 ca        1 TZ5     -0.190000
     18 C4         39.4520   25.0080    9.6180 ca        1 TZ5      0.024000
     19 C3         40.8680   24.9190    9.5980 ca        1 TZ5     -0.108000
     20 C2         41.6240   25.6800    8.7450 ca        1 TZ5     -0.113000
     21 C1         41.0090   26.6020    7.8310 ca        1 TZ5      0.189600
     22 N1         41.7780   27.2970    6.9230 nh        1 TZ5     -0.845200
     23 C20        35.1780   25.5130    9.5860 c3        1 TZ5     -0.011700
     24 C21        34.4020   24.4830    8.7680 c3        1 TZ5     -0.095400
     25 C22        32.9100   24.7180    8.8860 c3        1 TZ5     -0.082400
     26 C23        32.4020   24.5890   10.3080 c3        1 TZ5     -0.088400
     27 C24        31.0060   24.0040   10.3540 c3        1 TZ5     -0.074400
     28 C25        30.4460   23.9470   11.7630 c3        1 TZ5     -0.016100
     29 C26        31.2520   23.1000   12.6630 cc        1 TZ5     -0.162900
     30 N4         31.2690   23.1770   14.0730 na        1 TZ5      0.056400
     31 N5         32.1450   22.2670   14.5630 nc        1 TZ5     -0.168800
     32 N6         32.6840   21.6210   13.6090 nd        1 TZ5     -0.381000
     33 C27        32.1770   22.0740   12.3790 cd        1 TZ5      0.227200
     34 C28        30.4680   24.0680   14.8860 c3        1 TZ5      0.008300
     35 C29        28.9530   23.7630   14.8880 c3        1 TZ5      0.172800
     36 N7         28.5470   22.5230   15.4930 nh        1 TZ5     -0.731600
     37 C30        28.0510   21.4890   14.6700 ca        1 TZ5      0.163600
     38 C31        26.9760   21.7650   13.7440 ca        1 TZ5     -0.165300
     39 C32        26.2530   22.9870   13.7180 ca        1 TZ5     -0.114000
     40 C33        26.5930   20.7230   12.8460 ca        1 TZ5      0.414600
     41 C34        25.5720   20.9900   11.8730 ca        1 TZ5     -0.171300
     42 C35        24.9340   22.2020   11.8490 ca        1 TZ5     -0.121000
     43 C36        25.2610   23.2030   12.7940 ca        1 TZ5     -0.140000
     44 N8         27.1490   19.4670   12.8910 nb        1 TZ5     -0.687000
     45 C37        28.0390   19.1940   13.8410 ca        1 TZ5      0.465600
     46 C38        28.5480   17.7760   13.9020 c3        1 TZ5     -0.134700
     47 C39        28.5210   20.1720   14.7790 ca        1 TZ5     -0.239600
     48 C40        29.5100   19.8130   15.8310 c3        1 TZ5     -0.032100
     49 C41        29.7780   18.3290   15.9740 c3        1 TZ5     -0.074400
     50 C42        29.8710   17.6640   14.6220 c3        1 TZ5     -0.079400
     51 HN21       36.5920   21.1490   13.5330 hn        1 TZ5      0.300700
     52 HN22       35.1900   21.8730   12.8870 hn        1 TZ5      0.300700
     53 H7         38.8540   21.7560   12.8650 ha        1 TZ5      0.159000
     54 H6         40.2680   23.1470   11.4330 ha        1 TZ5      0.154000
     55 H19        35.2950   23.6200   11.2100 ha        1 TZ5      0.153000
     56 H13        36.9870   28.6990    9.1690 ha        1 TZ5      0.149000
     57 H14        35.9820   30.3280    7.5740 ha        1 TZ5      0.156500
     58 H15        35.2250   29.5710    5.3170 ha        1 TZ5      0.157000
     59 H16        35.4680   27.1740    4.6570 ha        1 TZ5      0.156500
     60 H17        36.4640   25.5330    6.2460 ha        1 TZ5      0.149000
     61 H9         39.1020   27.4170    7.1740 ha        1 TZ5      0.158000
     62 H3         41.3810   24.2230   10.2810 ha        1 TZ5      0.154000
     63 H2         42.7230   25.5800    8.7540 ha        1 TZ5      0.157000
     64 HN11       41.3590   28.0530    6.4380 hn        1 TZ5      0.430800
     65 HN12       42.7550   27.3490    7.0820 hn        1 TZ5      0.430800
     66 H201       34.9500   26.5450    9.1860 h1        1 TZ5      0.093200
     67 H202       34.8390   25.4960   10.6620 h1        1 TZ5      0.093200
     68 H211       34.6490   23.4440    9.1120 hc        1 TZ5      0.062700
     69 H212       34.7020   24.5610    7.6880 hc        1 TZ5      0.062700
     70 H221       32.3940   23.9680    8.2270 hc        1 TZ5      0.059200
     71 H222       32.6530   25.7350    8.4860 hc        1 TZ5      0.059200
     72 H231       32.4050   25.5960   10.8040 hc        1 TZ5      0.041200
     73 H232       33.0890   23.9270   10.9030 hc        1 TZ5      0.041200
     74 H241       31.0180   22.9710    9.9150 hc        1 TZ5      0.057700
     75 H242       30.3170   24.6280    9.7250 hc        1 TZ5      0.057700
     76 H251       29.3990   23.5300   11.7170 hc        1 TZ5      0.069700
     77 H252       30.3720   24.9900   12.1780 hc        1 TZ5      0.069700
     78 H27        32.4650   21.6340   11.4280 h4        1 TZ5      0.054100
     79 H281       30.6020   25.1120   14.4800 h1        1 TZ5      0.078700
     80 H282       30.8600   24.0460   15.9440 h1        1 TZ5      0.078700
     81 H291       28.5730   23.8360   13.8290 h1        1 TZ5      0.069200
     82 H292       28.4790   24.5940   15.4910 h1        1 TZ5      0.069200
     83 HN7        29.1900   22.2050   16.1900 hn        1 TZ5      0.406800
     84 H32        26.4540   23.7570   14.4790 ha        1 TZ5      0.136000
     85 H34        25.3000   20.1950   11.1600 ha        1 TZ5      0.154000
     86 H35        24.1460   22.4040   11.1070 ha        1 TZ5      0.139000
     87 H36        24.6970   24.1470   12.7890 ha        1 TZ5      0.135000
     88 H381       28.6490   17.3530   12.8660 hc        1 TZ5      0.068700
     89 H382       27.7730   17.1600   14.4380 hc        1 TZ5      0.068700
     90 H401       29.1500   20.1880   16.8300 hc        1 TZ5      0.049200
     91 H402       30.4820   20.3320   15.6050 hc        1 TZ5      0.049200
     92 H411       28.9560   17.8510   16.5700 hc        1 TZ5      0.048200
     93 H412       30.7330   18.1820   16.5420 hc        1 TZ5      0.048200
     94 H421       30.6830   18.1430   14.0150 hc        1 TZ5      0.048200
     95 H422       30.1350   16.5810   14.7440 hc        1 TZ5      0.048200
@<TRIPOS>BOND
     1    1    2 2   
     2    1   51 1   
     3    1   52 1   
     4    2    3 1   
     5    2    6 1   
     6    3    4 2   
     7    3   53 1   
     8    4    5 1   
     9    4   54 1   
    10    5    7 1   
    11    5   18 2   
    12    6    7 2   
    13    6   55 1   
    14    7    8 1   
    15    8    9 1   
    16    8   23 1   
    17    9   10 1   
    18    9   16 2   
    19   10   11 ar  
    20   10   15 ar  
    21   11   12 ar  
    22   11   56 1   
    23   12   13 ar  
    24   12   57 1   
    25   13   14 ar  
    26   13   58 1   
    27   14   15 ar  
    28   14   59 1   
    29   15   60 1   
    30   16   17 ar  
    31   16   18 ar  
    32   17   21 ar  
    33   17   61 1   
    34   18   19 ar  
    35   19   20 ar  
    36   19   62 1   
    37   20   21 ar  
    38   20   63 1   
    39   21   22 1   
    40   22   64 1   
    41   22   65 1   
    42   23   24 1   
    43   23   66 1   
    44   23   67 1   
    45   24   25 1   
    46   24   68 1   
    47   24   69 1   
    48   25   26 1   
    49   25   70 1   
    50   25   71 1   
    51   26   27 1   
    52   26   72 1   
    53   26   73 1   
    54   27   28 1   
    55   27   74 1   
    56   27   75 1   
    57   28   29 1   
    58   28   76 1   
    59   28   77 1   
    60   29   30 1   
    61   29   33 2   
    62   30   31 1   
    63   30   34 1   
    64   31   32 2   
    65   32   33 1   
    66   33   78 1   
    67   34   35 1   
    68   34   79 1   
    69   34   80 1   
    70   35   36 1   
    71   35   81 1   
    72   35   82 1   
    73   36   37 1   
    74   36   83 1   
    75   37   38 ar  
    76   37   47 ar  
    77   38   39 ar  
    78   38   40 ar  
    79   39   43 ar  
    80   39   84 1   
    81   40   41 ar  
    82   40   44 ar  
    83   41   42 ar  
    84   41   85 1   
    85   42   43 ar  
    86   42   86 1   
    87   43   87 1   
    88   44   45 ar  
    89   45   46 1   
    90   45   47 ar  
    91   46   50 1   
    92   46   88 1   
    93   46   89 1   
    94   47   48 1   
    95   48   49 1   
    96   48   90 1   
    97   48   91 1   
    98   49   50 1   
    99   49   92 1   
   100   49   93 1   
   101   50   94 1   
   102   50   95 1   
@<TRIPOS>SUBSTRUCTURE
     1 TZ5         1 TEMP              0 ****  ****    0 ROOT
