@<TRIPOS>MOLECULE
TZ5
   98   105     1     0     0
SMALL
bcc


@<TRIPOS>ATOM
      1 N2          2.4080    1.8900    2.0940 n4        1 TZ5     -0.715000
      2 C8          3.3210    0.8330    1.6480 ca        1 TZ5      0.004600
      3 C7          3.9330    0.0190    2.6260 ca        1 TZ5     -0.079000
      4 C6          4.7890   -0.9880    2.2170 ca        1 TZ5     -0.050000
      5 C5          5.0720   -1.2190    0.8560 ca        1 TZ5     -0.012000
      6 C19         3.5770    0.6410    0.2890 ca        1 TZ5     -0.094000
      7 C18         4.4710   -0.3820   -0.1280 ca        1 TZ5      0.012700
      8 N3          4.7740   -0.5650   -1.5050 na        1 TZ5      0.019900
      9 C11         5.6010   -1.5550   -1.9020 cp        1 TZ5      0.251700
     10 C12         5.9360   -1.7440   -3.3230 cp        1 TZ5     -0.209000
     11 C13         7.2330   -1.4410   -3.7720 ca        1 TZ5     -0.097000
     12 C14         7.5610   -1.6360   -5.1110 ca        1 TZ5     -0.115000
     13 C15         6.6110   -2.1440   -6.0030 ca        1 TZ5     -0.049000
     14 C16         5.3230   -2.4460   -5.5550 ca        1 TZ5     -0.115000
     15 C17         4.9750   -2.2340   -4.2220 ca        1 TZ5     -0.097000
     16 C10         6.2070   -2.4630   -0.9380 ca        1 TZ5     -0.103000
     17 C9          7.0320   -3.5210   -1.3850 ca        1 TZ5     -0.019000
     18 C4          5.9540   -2.2930    0.4430 ca        1 TZ5      0.057000
     19 C3          6.5570   -3.1800    1.3600 ca        1 TZ5     -0.089000
     20 C2          7.3730   -4.2130    0.9300 ca        1 TZ5     -0.036000
     21 C1          7.6090   -4.3880   -0.4560 ca        1 TZ5     -0.036400
     22 N1          8.4640   -5.4940   -0.8920 n4        1 TZ5     -0.712000
     23 C20         4.2030    0.3700   -2.5010 c3        1 TZ5     -0.022700
     24 C21         2.7390    0.1120   -2.8660 c3        1 TZ5     -0.094400
     25 C22         2.4700    0.3520   -4.3400 c3        1 TZ5     -0.090400
     26 C23         2.3440    1.8160   -4.7160 c3        1 TZ5     -0.085400
     27 C24         2.0300    1.9510   -6.1960 c3        1 TZ5     -0.078400
     28 C25         1.7720    3.3840   -6.6310 c3        1 TZ5     -0.013100
     29 C26         0.3490    3.7640   -6.5220 cc        1 TZ5     -0.151900
     30 N4         -0.3180    4.7630   -7.2690 na        1 TZ5      0.023400
     31 N5         -1.6120    4.8420   -6.8560 nc        1 TZ5     -0.222800
     32 N6         -1.8360    3.9940   -5.9410 nd        1 TZ5     -0.294000
     33 C27        -0.6580    3.2720   -5.6660 cd        1 TZ5      0.249200
     34 C28         0.2490    5.6340   -8.2730 c3        1 TZ5      0.030300
     35 C29        -0.6550    5.9050   -9.4880 c3        1 TZ5      0.096800
     36 N7         -1.9190    6.6350   -9.1680 n4        1 TZ5     -0.625400
     37 C30        -2.4480    7.3390  -10.3460 ca        1 TZ5     -0.046400
     38 C31        -1.8590    8.6000  -10.6970 ca        1 TZ5     -0.139300
     39 C32        -0.7970    9.2190   -9.9920 ca        1 TZ5     -0.184000
     40 C33        -2.4100    9.2590  -11.8420 ca        1 TZ5      0.414600
     41 C34        -1.8790   10.5340  -12.2300 ca        1 TZ5     -0.123300
     42 C35        -0.8570   11.1050  -11.5130 ca        1 TZ5     -0.111000
     43 C36        -0.3120   10.4440  -10.3880 ca        1 TZ5     -0.061000
     44 N8         -3.4270    8.7120  -12.5860 nb        1 TZ5     -0.599000
     45 C37        -3.9520    7.5450  -12.2360 ca        1 TZ5      0.452600
     46 C38        -5.0730    7.0020  -13.0830 c3        1 TZ5     -0.143700
     47 C39        -3.5020    6.7980  -11.0780 ca        1 TZ5     -0.108600
     48 C40        -4.1230    5.4990  -10.7010 c3        1 TZ5     -0.055100
     49 C41        -5.3650    5.1320  -11.4890 c3        1 TZ5     -0.079400
     50 C42        -5.2250    5.5060  -12.9440 c3        1 TZ5     -0.087400
     51 HN21        1.6260    1.4720    2.6240 hn        1 TZ5      0.487800
     52 HN22        2.0270    2.4140    1.2960 hn        1 TZ5      0.487800
     53 H7          3.7430    0.1650    3.7080 ha        1 TZ5      0.205000
     54 H6          5.2540   -1.6170    3.0010 ha        1 TZ5      0.198000
     55 H19         3.0770    1.2810   -0.4620 ha        1 TZ5      0.181000
     56 H13         7.9840   -1.0290   -3.0790 ha        1 TZ5      0.153000
     57 H14         8.5740   -1.3810   -5.4710 ha        1 TZ5      0.185500
     58 H15         6.8800   -2.3050   -7.0640 ha        1 TZ5      0.191000
     59 H16         4.5750   -2.8530   -6.2580 ha        1 TZ5      0.185500
     60 H17         3.9540   -2.4650   -3.8790 ha        1 TZ5      0.153000
     61 H9          7.2030   -3.6400   -2.4740 ha        1 TZ5      0.196000
     62 H3          6.3910   -3.0750    2.4480 ha        1 TZ5      0.196000
     63 H2          7.8280   -4.8900    1.6810 ha        1 TZ5      0.203000
     64 HN11        8.5320   -5.5240   -1.9180 hn        1 TZ5      0.487800
     65 HN12        9.4110   -5.3790   -0.4980 hn        1 TZ5      0.487800
     66 H201        4.8380    0.3060   -3.4370 h1        1 TZ5      0.109700
     67 H202        4.3370    1.4130   -2.0940 h1        1 TZ5      0.109700
     68 H211        2.0770    0.7810   -2.2550 hc        1 TZ5      0.061200
     69 H212        2.4500   -0.9480   -2.6300 hc        1 TZ5      0.061200
     70 H221        3.2740   -0.1310   -4.9580 hc        1 TZ5      0.068700
     71 H222        1.5050   -0.1680   -4.5990 hc        1 TZ5      0.068700
     72 H231        3.2970    2.3560   -4.4780 hc        1 TZ5      0.044200
     73 H232        1.5260    2.2940   -4.1150 hc        1 TZ5      0.044200
     74 H241        1.1410    1.3140   -6.4490 hc        1 TZ5      0.064200
     75 H242        2.9000    1.5550   -6.7860 hc        1 TZ5      0.064200
     76 H251        2.1190    3.4950   -7.6970 hc        1 TZ5      0.070700
     77 H252        2.3850    4.0930   -6.0090 hc        1 TZ5      0.070700
     78 H27        -0.6300    2.4800   -4.9230 h4        1 TZ5      0.057100
     79 H281        1.1900    5.1530   -8.6710 h1        1 TZ5      0.095700
     80 H282        0.5310    6.6150   -7.7860 h1        1 TZ5      0.095700
     81 H291       -0.0610    6.5410  -10.2120 hx        1 TZ5      0.126700
     82 H292       -0.9380    4.9430  -10.0050 hx        1 TZ5      0.126700
     83 HN7        -2.6290    5.9730   -8.8200 hn        1 TZ5      0.466300
     84 H32        -0.3440    8.7370   -9.1140 ha        1 TZ5      0.101000
     85 H34        -2.3090   11.0450  -13.1110 ha        1 TZ5      0.187000
     86 H35        -0.4520   12.0890  -11.8060 ha        1 TZ5      0.174000
     87 H36         0.5080   10.9270   -9.8310 ha        1 TZ5      0.157000
     88 H381       -4.9040    7.2640  -14.1640 hc        1 TZ5      0.095700
     89 H382       -6.0240    7.5160  -12.7650 hc        1 TZ5      0.095700
     90 H401       -4.4120    5.5130   -9.6120 hc        1 TZ5      0.050200
     91 H402       -3.3520    4.6900  -10.8440 hc        1 TZ5      0.050200
     92 H411       -6.2570    5.6570  -11.0520 hc        1 TZ5      0.068700
     93 H412       -5.5450    4.0290  -11.3890 hc        1 TZ5      0.068700
     94 H421       -6.1370    5.1760  -13.5100 hc        1 TZ5      0.068700
     95 H422       -4.3430    4.9810  -13.3960 hc        1 TZ5      0.068700
     96 H23         2.9130    2.5450    2.7130 hn        1 TZ5      0.487800
     97 H131        8.0730   -6.3900   -0.5580 hn        1 TZ5      0.487800
     98 H72        -1.7440    7.3280   -8.4270 hn        1 TZ5      0.466300
@<TRIPOS>BOND
     1    1    2 1   
     2    1   51 1   
     3    1   52 1   
     4    1   96 1   
     5    2    3 ar  
     6    2    6 ar  
     7    3    4 ar  
     8    3   53 1   
     9    4    5 ar  
    10    4   54 1   
    11    5    7 ar  
    12    5   18 ar  
    13    6    7 ar  
    14    6   55 1   
    15    7    8 2   
    16    8    9 1   
    17    8   23 1   
    18    9   10 1   
    19    9   16 ar  
    20   10   11 ar  
    21   10   15 ar  
    22   11   12 ar  
    23   11   56 1   
    24   12   13 ar  
    25   12   57 1   
    26   13   14 ar  
    27   13   58 1   
    28   14   15 ar  
    29   14   59 1   
    30   15   60 1   
    31   16   17 ar  
    32   16   18 ar  
    33   17   21 ar  
    34   17   61 1   
    35   18   19 ar  
    36   19   20 ar  
    37   19   62 1   
    38   20   21 ar  
    39   20   63 1   
    40   21   22 1   
    41   22   64 1   
    42   22   65 1   
    43   22   97 1   
    44   23   24 1   
    45   23   66 1   
    46   23   67 1   
    47   24   25 1   
    48   24   68 1   
    49   24   69 1   
    50   25   26 1   
    51   25   70 1   
    52   25   71 1   
    53   26   27 1   
    54   26   72 1   
    55   26   73 1   
    56   27   28 1   
    57   27   74 1   
    58   27   75 1   
    59   28   29 1   
    60   28   76 1   
    61   28   77 1   
    62   29   30 1   
    63   29   33 2   
    64   30   31 1   
    65   30   34 1   
    66   31   32 2   
    67   32   33 1   
    68   33   78 1   
    69   34   35 1   
    70   34   79 1   
    71   34   80 1   
    72   35   36 1   
    73   35   81 1   
    74   35   82 1   
    75   36   37 1   
    76   36   83 1   
    77   36   98 1   
    78   37   38 ar  
    79   37   47 ar  
    80   38   39 ar  
    81   38   40 ar  
    82   39   43 ar  
    83   39   84 1   
    84   40   41 ar  
    85   40   44 ar  
    86   41   42 ar  
    87   41   85 1   
    88   42   43 ar  
    89   42   86 1   
    90   43   87 1   
    91   44   45 ar  
    92   45   46 1   
    93   45   47 ar  
    94   46   50 1   
    95   46   88 1   
    96   46   89 1   
    97   47   48 1   
    98   48   49 1   
    99   48   90 1   
   100   48   91 1   
   101   49   50 1   
   102   49   92 1   
   103   49   93 1   
   104   50   94 1   
   105   50   95 1   
@<TRIPOS>SUBSTRUCTURE
     1 TZ5         1 TEMP              0 ****  ****    0 ROOT
