@<TRIPOS>MOLECULE
TZA
   29    29     1     0     0
SMALL
bcc


@<TRIPOS>ATOM
      1 NH          1.2800    0.1060   -4.9060 n3        1 TZA     -0.898800
      2 CZ          0.1850   -0.4000   -4.0830 c3        1 TZA      0.235900
      3 CE2        -0.7230    0.7090   -3.6260 c2        1 TZA     -0.221700
      4 CD2        -1.1680    0.8320   -2.3740 c2        1 TZA     -0.126200
      5 CE1         0.6270   -1.2590   -2.9290 c2        1 TZA     -0.221700
      6 CD1         0.1760   -1.1210   -1.6800 c2        1 TZA     -0.126200
      7 CG         -0.8200   -0.0960   -1.2620 c3        1 TZA     -0.021300
      8 CX         -0.3340    0.6810   -0.0380 c3        1 TZA     -0.063400
      9 CB         -0.4190   -0.1440    1.2270 c3        1 TZA     -0.066400
     10 CA         -0.0940    0.6740    2.4780 c3        1 TZA      0.017500
     11 N           1.2800    1.1580    2.5110 n3        1 TZA     -0.891800
     12 C          -0.5150   -0.1690    3.7290 c         1 TZA      0.887600
     13 O           0.3360   -0.3310    4.6490 o         1 TZA     -0.843300
     14 O2         -1.6920   -0.6240    3.7540 o         1 TZA     -0.843300
     15 HNH1        1.7160    0.8880   -4.4560 hn        1 TZA      0.340800
     16 HNH2        1.9680   -0.6120   -5.0230 hn        1 TZA      0.340800
     17 HCZ        -0.4270   -1.0670   -4.7720 h1        1 TZA      0.056700
     18 HE22       -1.0220    1.4210   -4.4120 ha        1 TZA      0.116500
     19 HD22       -1.8490    1.6530   -2.0950 ha        1 TZA      0.128500
     20 HE11        1.3530   -2.0480   -3.1820 ha        1 TZA      0.116500
     21 HD11        0.5240   -1.7840   -0.8700 ha        1 TZA      0.128500
     22 HCG        -1.7680   -0.6450   -0.9710 hc        1 TZA      0.072700
     23 HCX1       -0.9670    1.6000    0.0810 hc        1 TZA      0.043700
     24 HCX2        0.7200    1.0220   -0.2070 hc        1 TZA      0.043700
     25 HCB1        0.2720   -1.0240    1.1580 hc        1 TZA      0.046700
     26 HCB2       -1.4600   -0.5450    1.3610 hc        1 TZA      0.046700
     27 HCA        -0.7530    1.5910    2.4790 h1        1 TZA      0.040700
     28 HN1         1.4600    1.4720    3.4510 hn        1 TZA      0.330800
     29 HN2         1.8950    0.3780    2.3560 hn        1 TZA      0.330800
@<TRIPOS>BOND
     1    1    2 1   
     2    1   15 1   
     3    1   16 1   
     4    2    3 1   
     5    2    5 1   
     6    2   17 1   
     7    3    4 2   
     8    3   18 1   
     9    4    7 1   
    10    4   19 1   
    11    5    6 2   
    12    5   20 1   
    13    6    7 1   
    14    6   21 1   
    15    7    8 1   
    16    7   22 1   
    17    8    9 1   
    18    8   23 1   
    19    8   24 1   
    20    9   10 1   
    21    9   25 1   
    22    9   26 1   
    23   10   11 1   
    24   10   12 1   
    25   10   27 1   
    26   11   28 1   
    27   11   29 1   
    28   12   13 1   
    29   12   14 1   
@<TRIPOS>SUBSTRUCTURE
     1 TZA         1 TEMP              0 ****  ****    0 ROOT
