@<TRIPOS>MOLECULE
TZA
   31    31     1     0     0
SMALL
bcc


@<TRIPOS>ATOM
      1 NH          1.9010   -1.1830   -0.4000 nz        1 TZA     -0.852600
      2 CZ          2.5020    0.0670    0.2400 c3        1 TZA      0.243900
      3 CE2         1.9910    0.2020    1.6370 c2        1 TZA     -0.295200
      4 CD2         1.3710    1.3040    2.0750 c2        1 TZA     -0.026200
      5 CE1         2.2080    1.2470   -0.6210 c2        1 TZA     -0.295200
      6 CD1         1.5820    2.3400   -0.1660 c2        1 TZA     -0.026200
      7 CG          1.1290    2.5110    1.2400 c3        1 TZA     -0.069300
      8 CX         -0.3250    2.9600    1.3480 c3        1 TZA     -0.052400
      9 CB         -0.5860    4.3560    0.8150 c3        1 TZA     -0.080400
     10 CA          0.0870    5.4430    1.6430 c3        1 TZA     -0.086500
     11 N          -0.7890    6.6260    1.8960 nz        1 TZA     -0.829600
     12 C           1.4380    5.9660    0.9220 c         1 TZA      0.942600
     13 O           1.6340    7.1980    1.0200 o         1 TZA     -0.755300
     14 O2          2.1210    5.0800    0.3760 o         1 TZA     -0.755300
     15 HNH1        0.8850   -1.0820   -0.4570 hn        1 TZA      0.449800
     16 HNH2        2.1250   -2.0050    0.1640 hn        1 TZA      0.449800
     17 HCZ         3.6210   -0.1250    0.2600 hx        1 TZA      0.111700
     18 HE22        2.2140   -0.6350    2.3180 ha        1 TZA      0.150000
     19 HD22        1.0410    1.3780    3.1280 ha        1 TZA      0.174000
     20 HE11        2.6130    1.2130   -1.6450 ha        1 TZA      0.150000
     21 HD11        1.4580    3.2360   -0.8080 ha        1 TZA      0.174000
     22 HCG         1.7870    3.3530    1.6540 hc        1 TZA      0.159700
     23 HCX1       -0.9740    2.2420    0.7800 hc        1 TZA      0.048700
     24 HCX2       -0.6340    2.9110    2.4270 hc        1 TZA      0.048700
     25 HCB1       -0.2050    4.4320   -0.2400 hc        1 TZA      0.063200
     26 HCB2       -1.7020    4.4960    0.7770 hc        1 TZA      0.063200
     27 HCA         0.4060    5.0460    2.6460 hx        1 TZA      0.086700
     28 HN1        -0.1510    7.4570    1.9190 hn        1 TZA      0.452133
     29 HN2        -1.4500    6.7520    1.1310 hn        1 TZA      0.452133
     30 HH3         2.2770   -1.2970   -1.3430 hn        1 TZA      0.449800
     31 HN3        -1.2930    6.5450    2.7740 hn        1 TZA      0.452133
@<TRIPOS>BOND
     1    1    2 1   
     2    1   15 1   
     3    1   16 1   
     4    1   30 1   
     5    2    3 1   
     6    2    5 1   
     7    2   17 1   
     8    3    4 2   
     9    3   18 1   
    10    4    7 1   
    11    4   19 1   
    12    5    6 2   
    13    5   20 1   
    14    6    7 1   
    15    6   21 1   
    16    7    8 1   
    17    7   22 1   
    18    8    9 1   
    19    8   23 1   
    20    8   24 1   
    21    9   10 1   
    22    9   25 1   
    23    9   26 1   
    24   10   11 1   
    25   10   12 1   
    26   10   27 1   
    27   11   28 1   
    28   11   29 1   
    29   11   31 1   
    30   12   13 1   
    31   12   14 1   
@<TRIPOS>SUBSTRUCTURE
     1 TZA         1 TEMP              0 ****  ****    0 ROOT
