@<TRIPOS>MOLECULE
TZA
   31    31     1     0     0
SMALL
bcc


@<TRIPOS>ATOM
      1 NH          1.8740   -1.1720   -0.4530 n4        1 TZA     -0.852600
      2 CZ          2.4920    0.0800    0.1660 c3        1 TZA      0.243900
      3 CE2         2.0380    0.2070    1.5830 c2        1 TZA     -0.295200
      4 CD2         1.4290    1.3040    2.0500 c2        1 TZA     -0.026200
      5 CE1         2.1540    1.2600   -0.6790 c2        1 TZA     -0.295200
      6 CD1         1.5400    2.3480   -0.1940 c2        1 TZA     -0.026200
      7 CG          1.1450    2.5110    1.2300 c3        1 TZA     -0.069300
      8 CX         -0.3060    2.9510    1.3990 c3        1 TZA     -0.052400
      9 CB         -0.5980    4.3460    0.8820 c3        1 TZA     -0.080400
     10 CA          0.1020    5.4350    1.6850 c3        1 TZA     -0.086500
     11 N          -0.7700    6.6120    1.9780 n4        1 TZA     -0.829600
     12 C           1.4180    5.9690    0.9110 c         1 TZA      0.942600
     13 O           1.6100    7.2020    1.0050 o         1 TZA     -0.755300
     14 O2          2.0840    5.0890    0.3330 o         1 TZA     -0.755300
     15 HNH1        0.8560   -1.0790   -0.4680 hn        1 TZA      0.449800
     16 HNH2        2.1270   -1.9940    0.0980 hn        1 TZA      0.449800
     17 HCZ         3.6130   -0.1030    0.1400 hx        1 TZA      0.111700
     18 HE22        2.2950   -0.6300    2.2510 ha        1 TZA      0.150000
     19 HD22        1.1430    1.3710    3.1150 ha        1 TZA      0.174000
     20 HE11        2.5170    1.2330   -1.7190 ha        1 TZA      0.150000
     21 HD11        1.3840    3.2450   -0.8280 ha        1 TZA      0.174000
     22 HCG         1.8140    3.3560    1.6190 hc        1 TZA      0.159700
     23 HCX1       -0.5700    2.8960    2.4900 hc        1 TZA      0.048700
     24 HCX2       -0.9740    2.2290    0.8560 hc        1 TZA      0.048700
     25 HCB1       -0.2620    4.4280   -0.1880 hc        1 TZA      0.063200
     26 HCB2       -1.7150    4.4790    0.8910 hc        1 TZA      0.063200
     27 HCA         0.4640    5.0370    2.6730 hx        1 TZA      0.086700
     28 HN1        -0.1370    7.4470    1.9780 hn        1 TZA      0.452133
     29 HN2        -1.2370    6.5240    2.8770 hn        1 TZA      0.452133
     30 HH3         2.2120   -1.2810   -1.4110 hn        1 TZA      0.449800
     31 HN3        -1.4640    6.7350    1.2410 hn        1 TZA      0.452133
@<TRIPOS>BOND
     1    1    2 1   
     2    1   15 1   
     3    1   16 1   
     4    1   30 1   
     5    2    3 1   
     6    2    5 1   
     7    2   17 1   
     8    3    4 2   
     9    3   18 1   
    10    4    7 1   
    11    4   19 1   
    12    5    6 2   
    13    5   20 1   
    14    6    7 1   
    15    6   21 1   
    16    7    8 1   
    17    7   22 1   
    18    8    9 1   
    19    8   23 1   
    20    8   24 1   
    21    9   10 1   
    22    9   25 1   
    23    9   26 1   
    24   10   11 1   
    25   10   12 1   
    26   10   27 1   
    27   11   28 1   
    28   11   29 1   
    29   11   31 1   
    30   12   13 1   
    31   12   14 1   
@<TRIPOS>SUBSTRUCTURE
     1 TZA         1 TEMP              0 ****  ****    0 ROOT
