@<TRIPOS>MOLECULE
TZA
   29    27     1     0     0
SMALL
bcc


@<TRIPOS>ATOM
      1 NH         -3.4780   -2.5210   -1.3700 n3        1 TZA     -0.335000
      2 CZ         -2.0130   -2.5300   -1.4050 c3        1 TZA      0.040000
      3 CE2        -1.4510   -2.6240    0.0180 c2        1 TZA     -0.191000
      4 CD2        -0.0930   -2.0370    0.3350 c1        1 TZA     -0.129500
      5 CE1        -1.4900   -1.3180   -2.2220 c2        1 TZA     -0.191000
      6 CD1        -0.1420   -0.7130   -1.8980 c1        1 TZA     -0.129500
      7 CG          0.4310   -0.8230   -0.4660 c1        1 TZA     -0.065000
      8 CX          0.2140    0.5190    0.3350 c3        1 TZA     -0.145000
      9 CB          1.5520    1.1780    0.5890 c3        1 TZA     -0.145000
     10 CA          1.3470    2.4420    1.3910 c3        1 TZA     -0.130000
     11 N           1.5040    3.5730    0.5420 n3        1 TZA     -0.324000
     12 C           2.3680    2.5030    2.5040 c2        1 TZA      0.307000
     13 O           3.5970    2.4670    2.2340 o         1 TZA     -0.579000
     14 O2          1.9890    2.5880    3.7020 o         1 TZA     -0.579000
     15 HNH1       -3.7760   -3.2410   -0.8880 hn        1 TZA      0.135500
     16 HNH2       -3.8040   -2.5680   -2.2240 hn        1 TZA      0.135500
     17 HCZ        -1.8460   -3.3620   -1.8900 h1        1 TZA      0.046000
     18 HE22       -1.9670   -3.0650    0.7190 ha        1 TZA      0.116000
     19 HD22        0.4510   -2.4230    1.0490 ha        1 TZA      0.136000
     20 HE11       -2.0320   -0.9440   -2.9420 ha        1 TZA      0.116000
     21 HD11        0.3680   -0.2560   -2.5930 ha        1 TZA      0.136000
     22 HCG         1.4060   -0.8530   -0.5050 ha        1 TZA      0.106000
     23 HCX1       -0.3530    1.1220   -0.1860 hc        1 TZA      0.083500
     24 HCX2       -0.2200    0.3230    1.1900 hc        1 TZA      0.083500
     25 HCB1        2.1280    0.5650    1.0880 hc        1 TZA      0.085000
     26 HCB2        1.9740    1.3990   -0.2660 hc        1 TZA      0.085000
     27 HCA         0.4480    2.4440    1.7730 h1        1 TZA      0.081000
     28 HN1         2.1700    4.1100    0.8690 hn        1 TZA      0.125000
     29 HN2         0.7190    4.0440    0.5140 hn        1 TZA      0.125000
@<TRIPOS>BOND
     1    1    2 1   
     2    1   15 1   
     3    1   16 1   
     4    2    3 1   
     5    2    5 1   
     6    2   17 1   
     7    3    4 1   
     8    3   18 1   
     9    4   19 1   
    10    5    6 1   
    11    5   20 1   
    12    6   21 1   
    13    7    8 1   
    14    7   22 1   
    15    8    9 1   
    16    8   23 1   
    17    8   24 1   
    18    9   10 1   
    19    9   25 1   
    20    9   26 1   
    21   10   11 1   
    22   10   12 1   
    23   10   27 1   
    24   11   28 1   
    25   11   29 1   
    26   12   13 1   
    27   12   14 1   
@<TRIPOS>SUBSTRUCTURE
     1 TZA         1 TEMP              0 ****  ****    0 ROOT
