@<TRIPOS>MOLECULE
TZA
   31    31     1     0     0
SMALL
bcc


@<TRIPOS>ATOM
      1 NH          1.8100   -1.1990   -0.4040 n4        1 TZA     -0.852600
      2 CZ          2.4460    0.0510    0.2010 c3        1 TZA      0.243900
      3 CE2         1.9940    0.2020    1.6160 c2        1 TZA     -0.295200
      4 CD2         1.4000    1.3120    2.0700 c2        1 TZA     -0.026200
      5 CE1         2.1250    1.2260   -0.6580 c2        1 TZA     -0.295200
      6 CD1         1.5270    2.3280   -0.1870 c2        1 TZA     -0.026200
      7 CG          1.1330    2.5140    1.2350 c3        1 TZA     -0.069300
      8 CX         -0.3120    2.9750    1.3980 c3        1 TZA     -0.052400
      9 CB         -0.5840    4.3690    0.8640 c3        1 TZA     -0.080400
     10 CA          0.1300    5.4570    1.6550 c3        1 TZA     -0.086500
     11 N          -0.7260    6.6490    1.9330 n4        1 TZA     -0.829600
     12 C           1.4540    5.9640    0.8750 c         1 TZA      0.942600
     13 O           1.6630    7.1960    0.9540 o         1 TZA     -0.755300
     14 O2          2.1080    5.0680    0.3090 o         1 TZA     -0.755300
     15 HNH1        0.7930   -1.0910   -0.4200 hn        1 TZA      0.449800
     16 HNH2        2.0500   -2.0180    0.1570 hn        1 TZA      0.449800
     17 HCZ         3.5630   -0.1490    0.1770 hx        1 TZA      0.111700
     18 HE22        2.2380   -0.6310    2.2940 ha        1 TZA      0.150000
     19 HD22        1.1140    1.3970    3.1340 ha        1 TZA      0.174000
     20 HE11        2.4880    1.1810   -1.6970 ha        1 TZA      0.150000
     21 HD11        1.3840    3.2200   -0.8310 ha        1 TZA      0.174000
     22 HCG         1.8130    3.3540    1.6150 hc        1 TZA      0.159700
     23 HCX1       -0.9890    2.2570    0.8640 hc        1 TZA      0.048700
     24 HCX2       -0.5770    2.9370    2.4890 hc        1 TZA      0.048700
     25 HCB1       -1.6990    4.5170    0.8710 hc        1 TZA      0.063200
     26 HCB2       -0.2460    4.4330   -0.2060 hc        1 TZA      0.063200
     27 HCA         0.4870    5.0660    2.6470 hx        1 TZA      0.086700
     28 HN1        -1.4170    6.7730    1.1950 hn        1 TZA      0.452133
     29 HN2        -0.0820    7.4750    1.9230 hn        1 TZA      0.452133
     30 HH3         2.1460   -1.3240   -1.3610 hn        1 TZA      0.449800
     31 HN3        -1.1940    6.5790    2.8320 hn        1 TZA      0.452133
@<TRIPOS>BOND
     1    1    2 1   
     2    1   15 1   
     3    1   16 1   
     4    1   30 1   
     5    2    3 1   
     6    2    5 1   
     7    2   17 1   
     8    3    4 2   
     9    3   18 1   
    10    4    7 1   
    11    4   19 1   
    12    5    6 2   
    13    5   20 1   
    14    6    7 1   
    15    6   21 1   
    16    7    8 1   
    17    7   22 1   
    18    8    9 1   
    19    8   23 1   
    20    8   24 1   
    21    9   10 1   
    22    9   25 1   
    23    9   26 1   
    24   10   11 1   
    25   10   12 1   
    26   10   27 1   
    27   11   28 1   
    28   11   29 1   
    29   11   31 1   
    30   12   13 1   
    31   12   14 1   
@<TRIPOS>SUBSTRUCTURE
     1 TZA         1 TEMP              0 ****  ****    0 ROOT
