@<TRIPOS>MOLECULE
TZB
   21    21     1     0     0
SMALL
bcc


@<TRIPOS>ATOM
      1 C31         0.1990    0.3930    2.9680 c2        1 TZB     -0.268200
      2 C41        -0.2110    0.5480    4.3730 c3        1 TZB     -0.034900
      3 C21        -0.4880   -0.3380    2.0520 ce        1 TZB      0.061400
      4 N          -1.6260   -1.0970    2.3720 nh        1 TZB     -0.805600
      5 C2          0.0160   -0.3970    0.6620 ce        1 TZB      0.448500
      6 S6          1.7420   -0.1770    0.3970 ss        1 TZB     -0.380300
      7 C4          1.5170   -0.2740   -1.3830 c3        1 TZB      0.000700
      8 C5          0.0280   -0.5870   -1.6280 c3        1 TZB     -0.043500
      9 C6         -0.5730    0.4190   -2.6980 c         1 TZB      0.944600
     10 N1         -0.7170   -0.5920   -0.3910 n2        1 TZB     -0.521900
     11 O71        -1.3350   -0.0930   -3.5540 o         1 TZB     -0.808300
     12 HC3         1.1220    0.9080    2.6580 ha        1 TZB      0.147000
     13 HC1         0.4920    1.2260    4.9170 hc        1 TZB      0.024700
     14 HC2        -1.2400    0.9860    4.4470 hc        1 TZB      0.024700
     15 HC3A       -0.2210   -0.4400    4.9000 hc        1 TZB      0.024700
     16 HN1        -2.1800   -1.3460    1.5790 hn        1 TZB      0.381300
     17 HN2        -2.1770   -0.6700    3.0880 hn        1 TZB      0.381300
     18 HC41        2.1760   -1.0670   -1.7950 h1        1 TZB      0.077700
     19 HC42        1.7740    0.7130   -1.8390 h1        1 TZB      0.077700
     20 HC5        -0.0850   -1.6160   -2.0770 h1        1 TZB      0.077700
     21 O7         -0.2120    1.6190   -2.6330 o         1 TZB     -0.808300
@<TRIPOS>BOND
     1    1    2 1   
     2    1    3 2   
     3    1   12 1   
     4    2   13 1   
     5    2   14 1   
     6    2   15 1   
     7    3    4 1   
     8    3    5 1   
     9    4   16 1   
    10    4   17 1   
    11    5    6 1   
    12    5   10 2   
    13    6    7 1   
    14    7    8 1   
    15    7   18 1   
    16    7   19 1   
    17    8    9 1   
    18    8   10 1   
    19    8   20 1   
    20    9   11 1   
    21    9   21 1   
@<TRIPOS>SUBSTRUCTURE
     1 TZB         1 TEMP              0 ****  ****    0 ROOT
