@<TRIPOS>MOLECULE
TZC
   14    10     1     0     0
SMALL
bcc


@<TRIPOS>ATOM
      1 N1          0.5150    0.3130    0.0400 n1        1 TZC     -0.577600
      2 N2          1.4080   -0.4200    0.7010 ne        1 TZC     -0.263600
      3 C3          1.6400    0.1900    1.8780 c1        1 TZC      0.415300
      4 N4          0.8700    1.3090    1.9210 ne        1 TZC     -0.349400
      5 C5          0.1760    1.3690    0.7670 cg        1 TZC      0.352300
      6 C6         -0.4510   -0.3200   -0.7840 c1        1 TZC      0.658400
      7 N7         -0.3610   -1.7120   -1.0430 n3        1 TZC     -0.413400
      8 N8         -1.4260    0.3810   -1.3070 n2        1 TZC     -0.815800
      9 H3          2.2510   -0.1160    2.5750 DU        1 TZC      0.258667
     10 H5         -0.4600    2.0650    0.5130 DU        1 TZC      0.258667
     11 HN71       -0.8550   -2.0840   -1.7150 hn        1 TZC      0.343700
     12 HN72        0.2250   -2.2270   -0.5670 hn        1 TZC      0.343700
     13 HN81       -1.4840    1.2800   -1.1400 DU        1 TZC      0.258667
     14 HN82       -2.0490   -0.0280   -1.8390 hn        1 TZC      0.530400
@<TRIPOS>BOND
     1    1    2 1   
     2    1    5 3   
     3    2    3 2   
     4    3    4 2   
     5    4    5 1   
     6    6    7 2   
     7    6    8 2   
     8    7   11 1   
     9    7   12 1   
    10    8   14 1   
@<TRIPOS>SUBSTRUCTURE
     1 TZC         1 TEMP              0 ****  ****    0 ROOT
