@<TRIPOS>MOLECULE
TZC
   14    14     1     0     0
SMALL
bcc


@<TRIPOS>ATOM
      1 N1          0.0070   -0.0010    0.0150 na        1 TZC     -0.143100
      2 N2          1.3850    0.0050   -0.0580 nc        1 TZC     -0.533100
      3 C3          1.7930   -0.0010    1.2200 cd        1 TZC      0.588200
      4 N4          0.7070   -0.0090    2.1580 nd        1 TZC     -0.584000
      5 C5         -0.3860   -0.0100    1.4120 cc        1 TZC      0.452700
      6 C6         -0.8230    0.0020   -1.1270 cz        1 TZC      0.570300
      7 N7         -2.1840   -0.0040   -0.9610 nh        1 TZC     -0.470700
      8 N8         -0.2760    0.0100   -2.3770 nh        1 TZC     -0.470700
      9 H3          2.8450    0.0020    1.5520 h5        1 TZC      0.128800
     10 H5         -1.4270   -0.0150    1.7620 h5        1 TZC      0.106800
     11 HN71       -2.7950   -0.0020   -1.7490 hn        1 TZC      0.338700
     12 HN72       -2.5970   -0.0100   -0.0550 hn        1 TZC      0.338700
     13 HN81        0.7170    0.0150   -2.5090 hn        1 TZC      0.338700
     14 HN82       -0.8540    0.0120   -3.1910 hn        1 TZC      0.338700
@<TRIPOS>BOND
     1    1    2 1   
     2    1    5 1   
     3    1    6 2   
     4    2    3 2   
     5    3    4 1   
     6    3    9 1   
     7    4    5 2   
     8    5   10 1   
     9    6    7 1   
    10    6    8 1   
    11    7   11 1   
    12    7   12 1   
    13    8   13 1   
    14    8   14 1   
@<TRIPOS>SUBSTRUCTURE
     1 TZC         1 TEMP              0 ****  ****    0 ROOT
