@<TRIPOS>MOLECULE
TZC
   14    14     1     0     0
SMALL
bcc


@<TRIPOS>ATOM
      1 N1         -0.0610    0.0110   -0.0000 na        1 TZC     -0.143100
      2 N2         -0.8480   -1.1210    0.0010 nc        1 TZC     -0.533100
      3 C3         -2.1080   -0.6580    0.0010 cd        1 TZC      0.588200
      4 N4         -2.1820    0.7750    0.0000 nd        1 TZC     -0.584000
      5 C5         -0.9220    1.1790   -0.0010 cc        1 TZC      0.452700
      6 C6          1.3510   -0.0340   -0.0000 cz        1 TZC      0.570300
      7 N7          2.0550    1.1420   -0.0020 nh        1 TZC     -0.470700
      8 N8          2.0020   -1.2330    0.0010 nh        1 TZC     -0.470700
      9 H3         -3.0150   -1.2860    0.0010 h5        1 TZC      0.128800
     10 H5         -0.5600    2.2160   -0.0010 h5        1 TZC      0.106800
     11 HN71        3.0530    1.1420   -0.0020 hn        1 TZC      0.338700
     12 HN72        1.5930    2.0250   -0.0030 hn        1 TZC      0.338700
     13 HN81        1.4970   -2.0980    0.0020 hn        1 TZC      0.338700
     14 HN82        2.9990   -1.2760    0.0000 hn        1 TZC      0.338700
@<TRIPOS>BOND
     1    1    2 1   
     2    1    5 1   
     3    1    6 2   
     4    2    3 2   
     5    3    4 1   
     6    3    9 1   
     7    4    5 2   
     8    5   10 1   
     9    6    7 1   
    10    6    8 1   
    11    7   11 1   
    12    7   12 1   
    13    8   13 1   
    14    8   14 1   
@<TRIPOS>SUBSTRUCTURE
     1 TZC         1 TEMP              0 ****  ****    0 ROOT
