@<TRIPOS>MOLECULE
TZD
   42    43     1     0     0
SMALL
bcc


@<TRIPOS>ATOM
      1 N1'         0.0000    0.0000    0.0000 nb        1 TZD     -0.710000
      2 C2'         1.3180    0.0000    0.0000 ca        1 TZD      0.432300
      3 C2A         2.0510   -0.0070   -1.3170 c3        1 TZD      0.005600
      4 N3'         2.0130    0.0000    1.1180 nb        1 TZD     -0.608000
      5 C4'         1.3990    0.0110    2.2990 ca        1 TZD      0.388200
      6 N4'         2.1330    0.0170    3.4740 nv        1 TZD     -0.633500
      7 C5'         0.0040    0.0120    2.3340 ca        1 TZD     -0.483900
      8 C6'        -0.6830    0.0060    1.1360 ca        1 TZD      0.465200
      9 C35        -0.7360    0.0180    3.6470 c3        1 TZD      0.125300
     10 N3         -2.1790    0.0150    3.3960 n         1 TZD      0.045000
     11 C2         -2.8550    1.1810    3.2780 c         1 TZD      0.660100
     12 OC2        -2.4310    2.3210    3.3490 o         1 TZD     -0.660500
     13 S1         -4.4770    0.6390    2.9910 ss        1 TZD     -0.340200
     14 C5         -4.1730   -1.1180    3.0530 cc        1 TZD      0.040400
     15 C4         -2.8580   -1.1600    3.2820 cd        1 TZD     -0.202600
     16 C4A        -2.1410   -2.4780    3.4130 c3        1 TZD      0.059100
     17 C5A        -5.1450   -2.2570    2.8890 c3        1 TZD      0.051800
     18 C5B        -5.7220   -2.6350    4.2540 c3        1 TZD      0.244400
     19 O5G        -6.6450   -3.7150    4.0990 os        1 TZD     -0.486200
     20 P1         -7.2110   -4.0590    5.5670 p5        1 TZD      0.874800
     21 O11        -8.2610   -5.2740    5.4660 os        1 TZD     -0.467800
     22 O12        -6.0890   -4.4490    6.4490 o         1 TZD     -0.668500
     23 O13        -7.9460   -2.7630    6.1750 o         1 TZD     -0.668500
     24 P2         -8.7840   -5.5630    6.9610 p5        1 TZD      0.794900
     25 O21        -9.8440   -6.7750    6.9350 o         1 TZD     -0.610500
     26 O22        -9.4350   -4.3500    7.4990 o         1 TZD     -0.610500
     27 O23        -7.5370   -5.9630    7.8970 o         1 TZD     -0.610500
     28 H2A1        2.7520    0.8180   -1.3440 hc        1 TZD     -0.016300
     29 H2A2        1.3390    0.0970   -2.1270 hc        1 TZD     -0.016300
     30 H2A3        2.5880   -0.9420   -1.4260 hc        1 TZD     -0.016300
     31 H4'1        2.4990   -0.8400    3.8390 hn        1 TZD      0.242300
     32 H4'2        2.3450    0.8840    3.9260 hn        1 TZD      0.242300
     33 H6'        -1.7530   -0.1620    1.1260 h4        1 TZD     -0.025900
     34 H351       -0.4670   -0.8630    4.2170 h1        1 TZD      0.024700
     35 H352       -0.4690    0.9050    4.2080 h1        1 TZD      0.024700
     36 H4A1       -2.6880   -3.2420    2.8730 hc        1 TZD      0.022033
     37 H4A2       -2.0780   -2.7520    4.4600 hc        1 TZD      0.022033
     38 H4A3       -1.1430   -2.3890    3.0020 hc        1 TZD      0.022033
     39 H5A1       -4.6310   -3.1120    2.4650 hc        1 TZD      0.014200
     40 H5A2       -5.9480   -1.9540    2.2290 hc        1 TZD      0.014200
     41 H5B1       -4.9180   -2.9390    4.9150 h1        1 TZD      0.011200
     42 H5B2       -6.2340   -1.7810    4.6790 h1        1 TZD      0.011200
@<TRIPOS>BOND
     1    1    2 ar  
     2    1    8 ar  
     3    2    3 1   
     4    2    4 ar  
     5    3   28 1   
     6    3   29 1   
     7    3   30 1   
     8    4    5 ar  
     9    5    6 1   
    10    5    7 ar  
    11    6   31 1   
    12    6   32 1   
    13    7    8 ar  
    14    7    9 1   
    15    8   33 1   
    16    9   10 1   
    17    9   34 1   
    18    9   35 1   
    19   10   11 1   
    20   10   15 1   
    21   11   12 2   
    22   11   13 1   
    23   13   14 1   
    24   14   15 2   
    25   14   17 1   
    26   15   16 1   
    27   16   36 1   
    28   16   37 1   
    29   16   38 1   
    30   17   18 1   
    31   17   39 1   
    32   17   40 1   
    33   18   19 1   
    34   18   41 1   
    35   18   42 1   
    36   19   20 1   
    37   20   21 1   
    38   20   22 1   
    39   20   23 1   
    40   21   24 1   
    41   24   25 1   
    42   24   26 1   
    43   24   27 1   
@<TRIPOS>SUBSTRUCTURE
     1 TZD         1 TEMP              0 ****  ****    0 ROOT
