@<TRIPOS>MOLECULE
TZE
   18    15     1     0     0
SMALL
bcc


@<TRIPOS>ATOM
      1 C1         -0.8890    0.0530   -2.7360 c1        1 TZE     -0.343000
      2 N1          0.5390    0.0210   -2.7280 n2        1 TZE     -0.098000
      3 C2          1.0290    0.1060   -1.2390 c1        1 TZE     -0.076000
      4 C3         -0.1310    0.1870   -0.3840 c1        1 TZE     -0.393000
      5 S1         -1.3700    0.1570   -1.2740 ss        1 TZE      0.482000
      6 CM          2.4700    0.1030   -0.7790 c2        1 TZE     -0.150000
      7 C1'        -0.1230    0.1870    1.1280 c2        1 TZE     -0.094000
      8 C2'        -1.4820   -0.2340    1.6410 c3        1 TZE     -0.017000
      9 OXT        -1.4700   -0.2480    3.0510 oh        1 TZE     -0.330000
     10 H1         -1.4600    0.0150   -3.5270 DU        1 TZE      0.191000
     11 H1M         2.6350   -0.6900   -0.2270 ha        1 TZE      0.092667
     12 H2M         2.6460    0.9100   -0.2530 ha        1 TZE      0.092667
     13 H3M         3.0620    0.0860   -1.5600 ha        1 TZE      0.092667
     14 H11'        0.0840    1.0860    1.4530 ha        1 TZE      0.108500
     15 H12'        0.5560   -0.4400    1.4510 ha        1 TZE      0.108500
     16 H21'       -1.6930   -1.1310    1.3070 h1        1 TZE      0.066000
     17 H22'       -2.1600    0.3990    1.3260 h1        1 TZE      0.066000
     18 HXT        -2.2430   -0.5690    3.3510 ho        1 TZE      0.202000
@<TRIPOS>BOND
     1    1    2 1   
     2    1    5 1   
     3    2    3 1   
     4    3    4 1   
     5    4    5 1   
     6    6   11 1   
     7    6   12 1   
     8    6   13 1   
     9    7    8 1   
    10    7   14 1   
    11    7   15 1   
    12    8    9 1   
    13    8   16 1   
    14    8   17 1   
    15    9   18 1   
@<TRIPOS>SUBSTRUCTURE
     1 TZE         1 TEMP              0 ****  ****    0 ROOT
