@<TRIPOS>MOLECULE
TZE
   18    18     1     0     0
SMALL
bcc


@<TRIPOS>ATOM
      1 C1          0.0490   -0.0510    0.1670 cc        1 TZE      0.371300
      2 N1          1.3490   -0.0440   -0.0950 nd        1 TZE     -0.624000
      3 C2          2.0640   -0.0050    1.1030 cd        1 TZE      0.346600
      4 C3          1.2650    0.0200    2.2510 cc        1 TZE     -0.195700
      5 S1         -0.3650   -0.0130    1.8210 ss        1 TZE     -0.102300
      6 CM          3.5450   -0.0090    1.1270 c3        1 TZE     -0.126400
      7 C1'         1.7500    0.0440    3.6370 c3        1 TZE     -0.008100
      8 C2'         1.9810    1.4710    4.1240 c3        1 TZE      0.133400
      9 OXT         2.4670    1.3710    5.4540 oh        1 TZE     -0.602800
     10 H1         -0.6940   -0.0810   -0.6350 h5        1 TZE      0.054100
     11 H1M         3.9090   -1.0210    1.4410 hc        1 TZE      0.053700
     12 H2M         3.9780    0.2290    0.1250 hc        1 TZE      0.053700
     13 H3M         3.9120    0.7450    1.8670 hc        1 TZE      0.053700
     14 H11'        1.0180   -0.4590    4.3250 hc        1 TZE      0.069200
     15 H12'        2.7180   -0.5240    3.7140 hc        1 TZE      0.069200
     16 H21'        2.7370    1.9910    3.4760 h1        1 TZE      0.026700
     17 H22'        1.0230    2.0560    4.1090 h1        1 TZE      0.026700
     18 HXT         2.6240    2.2720    5.7570 ho        1 TZE      0.403000
@<TRIPOS>BOND
     1    1    2 2   
     2    1    5 1   
     3    1   10 1   
     4    2    3 1   
     5    3    4 2   
     6    3    6 1   
     7    4    5 1   
     8    4    7 1   
     9    6   11 1   
    10    6   12 1   
    11    6   13 1   
    12    7    8 1   
    13    7   14 1   
    14    7   15 1   
    15    8    9 1   
    16    8   16 1   
    17    8   17 1   
    18    9   18 1   
@<TRIPOS>SUBSTRUCTURE
     1 TZE         1 TEMP              0 ****  ****    0 ROOT
