@<TRIPOS>MOLECULE
TZE
   18    18     1     0     0
SMALL
bcc


@<TRIPOS>ATOM
      1 C1         -0.4090   -0.1850    2.4540 cc        1 TZE      0.371300
      2 N1          0.8720   -0.3020    2.1310 nd        1 TZE     -0.625000
      3 C2          1.0380   -0.0070    0.7750 cd        1 TZE      0.345600
      4 C3         -0.1440    0.3260    0.1090 cc        1 TZE     -0.191700
      5 S1         -1.4460    0.2720    1.1820 ss        1 TZE     -0.103300
      6 CM          2.3750   -0.0650    0.1400 c3        1 TZE     -0.126400
      7 C1'        -0.2820    0.6990   -1.3050 c3        1 TZE     -0.007100
      8 C2'        -0.1030   -0.5070   -2.2200 c3        1 TZE      0.133400
      9 OXT        -0.1970   -0.0230   -3.5510 oh        1 TZE     -0.603800
     10 H1         -0.7590   -0.3710    3.4740 h5        1 TZE      0.054100
     11 H1M         2.6130   -1.1220   -0.1430 hc        1 TZE      0.053033
     12 H2M         2.3850    0.5640   -0.7850 hc        1 TZE      0.053033
     13 H3M         3.1710    0.3010    0.8350 hc        1 TZE      0.053033
     14 H11'       -1.2900    1.1540   -1.5000 hc        1 TZE      0.068200
     15 H12'        0.4850    1.4750   -1.5760 hc        1 TZE      0.068200
     16 H21'        0.9030   -0.9780   -2.0500 h1        1 TZE      0.027700
     17 H22'       -0.9030   -1.2720   -2.0320 h1        1 TZE      0.027700
     18 HXT        -0.0850   -0.7860   -4.1290 ho        1 TZE      0.403000
@<TRIPOS>BOND
     1    1    2 2   
     2    1    5 1   
     3    1   10 1   
     4    2    3 1   
     5    3    4 2   
     6    3    6 1   
     7    4    5 1   
     8    4    7 1   
     9    6   11 1   
    10    6   12 1   
    11    6   13 1   
    12    7    8 1   
    13    7   14 1   
    14    7   15 1   
    15    8    9 1   
    16    8   16 1   
    17    8   17 1   
    18    9   18 1   
@<TRIPOS>SUBSTRUCTURE
     1 TZE         1 TEMP              0 ****  ****    0 ROOT
