@<TRIPOS>MOLECULE
TZE
   18    18     1     0     0
SMALL
bcc


@<TRIPOS>ATOM
      1 C1          0.0440   -0.0550    0.1720 cc        1 TZE      0.371300
      2 N1          1.3440   -0.0460   -0.0930 nd        1 TZE     -0.624000
      3 C2          2.0620   -0.0050    1.1030 cd        1 TZE      0.346600
      4 C3          1.2660    0.0190    2.2530 cc        1 TZE     -0.195700
      5 S1         -0.3660   -0.0160    1.8260 ss        1 TZE     -0.102300
      6 CM          3.5420   -0.0080    1.1230 c3        1 TZE     -0.126400
      7 C1'         1.7530    0.0440    3.6380 c3        1 TZE     -0.008100
      8 C2'         1.9840    1.4720    4.1240 c3        1 TZE      0.133400
      9 OXT         2.4720    1.3720    5.4520 oh        1 TZE     -0.602800
     10 H1         -0.7010   -0.0860   -0.6280 h5        1 TZE      0.054100
     11 H1M         3.9080   -1.0210    1.4270 hc        1 TZE      0.053367
     12 H2M         3.9730    0.2410    0.1220 hc        1 TZE      0.053367
     13 H3M         3.9100    0.7400    1.8700 hc        1 TZE      0.053367
     14 H11'        1.0240   -0.4590    4.3270 hc        1 TZE      0.069200
     15 H12'        2.7220   -0.5230    3.7130 hc        1 TZE      0.069200
     16 H21'        2.7380    1.9920    3.4740 h1        1 TZE      0.026700
     17 H22'        1.0250    2.0550    4.1100 h1        1 TZE      0.026700
     18 HXT         2.6290    2.2740    5.7550 ho        1 TZE      0.403000
@<TRIPOS>BOND
     1    1    2 2   
     2    1    5 1   
     3    1   10 1   
     4    2    3 1   
     5    3    4 2   
     6    3    6 1   
     7    4    5 1   
     8    4    7 1   
     9    6   11 1   
    10    6   12 1   
    11    6   13 1   
    12    7    8 1   
    13    7   14 1   
    14    7   15 1   
    15    8    9 1   
    16    8   16 1   
    17    8   17 1   
    18    9   18 1   
@<TRIPOS>SUBSTRUCTURE
     1 TZE         1 TEMP              0 ****  ****    0 ROOT
