@<TRIPOS>MOLECULE
TZF
   19    15     1     0     0
SMALL
bcc


@<TRIPOS>ATOM
      1 CAD         0.5230   -0.0100   -1.1990 c1        1 TZF     -0.111000
      2 CAB         1.9090   -0.0060   -1.1800 c1        1 TZF     -0.143000
      3 CAJ         2.5860   -0.0180    0.0290 c1        1 TZF      0.081000
      4 OAA         3.9930   -0.0450    0.0480 o         1 TZF     -0.245000
      5 CAC         1.8770   -0.0340    1.2200 c2        1 TZF     -0.202000
      6 CAE         0.4910   -0.0380    1.2010 c1        1 TZF     -0.076000
      7 CAK        -0.1860   -0.0260   -0.0080 c1        1 TZF      0.027000
      8 NAL        -1.6040    0.0060   -0.0270 n3        1 TZF     -0.110000
      9 CAG        -2.4160   -1.0590   -0.0860 c1        1 TZF     -0.077000
     10 NAH        -3.6840   -0.6160   -0.0770 n2        1 TZF     -0.155000
     11 CAF        -3.6540    0.7240   -0.0110 c1        1 TZF     -0.158000
     12 NAI        -2.3700    1.1100    0.0190 n2        1 TZF     -0.081000
     13 H1          0.0470   -0.0020   -2.0510 ha        1 TZF      0.143000
     14 H2          2.4080    0.0050   -2.0190 ha        1 TZF      0.158000
     15 H3          4.3030    0.7820    0.1500 ho        1 TZF      0.222000
     16 H4          2.3530   -0.0430    2.0720 ha        1 TZF      0.143000
     17 H5         -0.0090   -0.0490    2.0400 ha        1 TZF      0.162000
     18 H6         -2.1350   -1.9930   -0.1290 DU        1 TZF      0.210500
     19 H7         -4.4310    1.3150    0.0100 DU        1 TZF      0.210500
@<TRIPOS>BOND
     1    1    7 1   
     2    1   13 1   
     3    2    3 1   
     4    2   14 1   
     5    3    5 1   
     6    4   15 1   
     7    5    6 1   
     8    5   16 1   
     9    6   17 1   
    10    7    8 1   
    11    8    9 1   
    12    8   12 1   
    13    9   10 1   
    14   10   11 1   
    15   11   12 1   
@<TRIPOS>SUBSTRUCTURE
     1 TZF         1 TEMP              0 ****  ****    0 ROOT
