@<TRIPOS>MOLECULE
TZF
   19    20     1     0     0
SMALL
bcc


@<TRIPOS>ATOM
      1 CAD         0.6630   -1.2320    0.1930 ca        1 TZF     -0.093500
      2 CAB         2.0500   -1.2710    0.1540 ca        1 TZF     -0.172500
      3 CAJ         2.7700   -0.0870   -0.0740 ca        1 TZF      0.126100
      4 OAA         4.1400   -0.1980   -0.1000 oh        1 TZF     -0.491100
      5 CAC         2.1020    1.1300   -0.2610 ca        1 TZF     -0.172500
      6 CAE         0.7120    1.1690   -0.2300 ca        1 TZF     -0.093500
      7 CAK        -0.0220   -0.0130   -0.0070 ca        1 TZF     -0.018200
      8 NAL        -1.4430    0.0070    0.0180 na        1 TZF      0.016500
      9 CAG        -2.2910   -1.0760   -0.3230 cc        1 TZF      0.411400
     10 NAH        -3.5750   -0.6950   -0.1850 nd        1 TZF     -0.681000
     11 CAF        -3.4780    0.6430    0.2440 cd        1 TZF      0.504900
     12 NAI        -2.1920    1.0730    0.3670 nc        1 TZF     -0.513800
     13 H1          0.1090   -2.1630    0.3890 ha        1 TZF      0.152500
     14 H2          2.5920   -2.2160    0.3040 ha        1 TZF      0.150500
     15 H3          4.5100    0.6840   -0.2530 ho        1 TZF      0.423000
     16 H4          2.6710    2.0550   -0.4330 ha        1 TZF      0.150500
     17 H5          0.1970    2.1330   -0.3750 ha        1 TZF      0.152500
     18 H6         -1.9220   -2.0520   -0.6530 h5        1 TZF      0.073100
     19 H7         -4.3560    1.2640    0.4560 h5        1 TZF      0.074100
@<TRIPOS>BOND
     1    1    2 ar  
     2    1    7 ar  
     3    1   13 1   
     4    2    3 ar  
     5    2   14 1   
     6    3    4 1   
     7    3    5 ar  
     8    4   15 1   
     9    5    6 ar  
    10    5   16 1   
    11    6    7 ar  
    12    6   17 1   
    13    7    8 1   
    14    8    9 1   
    15    8   12 1   
    16    9   10 2   
    17    9   18 1   
    18   10   11 1   
    19   11   12 2   
    20   11   19 1   
@<TRIPOS>SUBSTRUCTURE
     1 TZF         1 TEMP              0 ****  ****    0 ROOT
