@<TRIPOS>MOLECULE
TZF
   19    20     1     0     0
SMALL
bcc


@<TRIPOS>ATOM
      1 CAD        -0.0420   -0.2340   -0.0400 ca        1 TZF     -0.093500
      2 CAB         1.3440   -0.2700   -0.0870 ca        1 TZF     -0.172500
      3 CAJ         2.0810   -0.1560    1.1040 ca        1 TZF      0.126100
      4 OAA         3.4490   -0.2010    0.9850 oh        1 TZF     -0.491100
      5 CAC         1.4290   -0.0060    2.3350 ca        1 TZF     -0.172500
      6 CAE         0.0390    0.0380    2.3820 ca        1 TZF     -0.093500
      7 CAK        -0.7100   -0.0700    1.1930 ca        1 TZF     -0.018200
      8 NAL        -2.1300   -0.0150    1.2220 na        1 TZF      0.016500
      9 CAG        -2.9610    0.4380    0.1670 cc        1 TZF      0.411400
     10 NAH        -4.2500    0.3500    0.5490 nd        1 TZF     -0.681000
     11 CAF        -4.1730   -0.1650    1.8580 cd        1 TZF      0.504900
     12 NAI        -2.8940   -0.3860    2.2700 nc        1 TZF     -0.513800
     13 H1         -0.6100   -0.3400   -0.9780 ha        1 TZF      0.152500
     14 H2          1.8740   -0.3930   -1.0430 ha        1 TZF      0.150500
     15 H3          3.8300   -0.1230    1.8720 ho        1 TZF      0.423000
     16 H4          2.0100    0.0760    3.2640 ha        1 TZF      0.150500
     17 H5         -0.4630    0.1540    3.3560 ha        1 TZF      0.152500
     18 H6         -2.5770    0.8060   -0.7890 h5        1 TZF      0.073100
     19 H7         -5.0580   -0.3640    2.4700 h5        1 TZF      0.074100
@<TRIPOS>BOND
     1    1    2 ar  
     2    1    7 ar  
     3    1   13 1   
     4    2    3 ar  
     5    2   14 1   
     6    3    4 1   
     7    3    5 ar  
     8    4   15 1   
     9    5    6 ar  
    10    5   16 1   
    11    6    7 ar  
    12    6   17 1   
    13    7    8 1   
    14    8    9 1   
    15    8   12 1   
    16    9   10 2   
    17    9   18 1   
    18   10   11 1   
    19   11   12 2   
    20   11   19 1   
@<TRIPOS>SUBSTRUCTURE
     1 TZF         1 TEMP              0 ****  ****    0 ROOT
