@<TRIPOS>MOLECULE
TZG
   33    34     1     0     0
SMALL
bcc


@<TRIPOS>ATOM
      1 N1         -0.1790   -0.7440   -0.1720 no        1 TZG      0.572000
      2 C4          3.5960   -0.6450    0.1710 ca        1 TZG     -0.141000
      3 C5          2.2530   -0.7320    0.5280 ca        1 TZG     -0.029000
      4 C6          1.2760   -0.6920   -0.4850 ca        1 TZG     -0.118000
      5 C7          5.4520   -0.4070   -1.4450 c3        1 TZG     -0.133000
      6 C8          6.0350    0.8860   -0.8690 c3        1 TZG     -0.145000
      7 C12         7.5720    0.7090   -0.7700 cu        1 TZG     -0.141000
      8 O5          8.2700    1.9570   -0.7580 os        1 TZG     -0.264500
      9 N2          5.5720    2.0920   -1.6320 n4        1 TZG     -0.091000
     10 C3          3.9930   -0.5390   -1.1710 ca        1 TZG     -0.043000
     11 O1         -0.6400   -0.0260    0.6720 o         1 TZG     -0.358500
     12 O2         -0.8670   -1.5100   -0.7960 o         1 TZG     -0.358500
     13 C1          1.6640   -0.6190   -1.8280 ca        1 TZG     -0.046000
     14 C2          3.0220   -0.5720   -2.1830 ca        1 TZG     -0.041000
     15 C9          3.3500   -0.6100   -3.6390 c3        1 TZG     -0.111000
     16 C11         2.8430    1.8710   -3.8150 c2        1 TZG      0.331000
     17 O7          3.3390    2.7760   -3.0610 o         1 TZG     -0.570000
     18 O6          1.6580    1.8950   -4.2290 o         1 TZG     -0.570000
     19 H4          4.3700   -0.6650    0.9580 ha        1 TZG      0.159000
     20 H7          5.6700   -0.4720   -2.5430 hc        1 TZG      0.123500
     21 H7A         6.0050   -1.2520   -0.9470 hc        1 TZG      0.123500
     22 H8          5.6680    1.0200    0.1900 hx        1 TZG      0.106000
     23 H10         4.8210    0.9550   -3.9660 hc        1 TZG      0.072000
     24 H10A        3.7150    0.6330   -5.3540 hc        1 TZG      0.072000
     25 HN2         6.1470    2.1710   -2.4730 hn        1 TZG      0.243667
     26 HN2A        4.5680    2.0460   -1.9290 hn        1 TZG      0.243667
     27 H1          0.8990   -0.5720   -2.6260 ha        1 TZG      0.185000
     28 H9          4.1660   -1.3650   -3.8060 hc        1 TZG      0.086500
     29 H9A         2.4450   -0.9730   -4.2010 hc        1 TZG      0.086500
     30 O4          8.2800    1.2390   -1.8930 os        1 TZG     -0.264500
     31 H23         5.7260    2.9250   -1.0720 hn        1 TZG      0.243667
     32 CL1         1.8520   -0.9190    2.1660 cl        1 TZG      0.006000
     33 C10         3.7620    0.7180   -4.2370 c3        1 TZG     -0.229000
@<TRIPOS>BOND
     1    1    4 1   
     2    1   11 1   
     3    1   12 1   
     4    2    3 1   
     5    2   10 1   
     6    2   19 1   
     7    3    4 1   
     8    3   32 1   
     9    4   13 1   
    10    5    6 1   
    11    5   10 1   
    12    5   20 1   
    13    5   21 1   
    14    6    7 1   
    15    6    9 1   
    16    6   22 1   
    17    7    8 1   
    18    7   30 1   
    19    8   30 1   
    20    9   25 1   
    21    9   26 1   
    22    9   31 1   
    23   10   14 1   
    24   13   14 1   
    25   13   27 1   
    26   14   15 1   
    27   15   28 1   
    28   15   29 1   
    29   15   33 1   
    30   16   17 1   
    31   16   18 1   
    32   16   33 1   
    33   23   33 1   
    34   24   33 1   
@<TRIPOS>SUBSTRUCTURE
     1 TZG         1 TEMP              0 ****  ****    0 ROOT
