@<TRIPOS>MOLECULE
TZG
   32    32     1     0     0
SMALL
bcc


@<TRIPOS>ATOM
      1 N1          3.3490    1.6580   -0.0740 no        1 TZG      0.322200
      2 C4          0.9250   -1.2480   -0.0380 ca        1 TZG     -0.121000
      3 C5          2.1170   -0.5280   -0.0410 ca        1 TZG      0.028400
      4 C6          2.0790    0.8760   -0.0610 ca        1 TZG     -0.171200
      5 C7         -1.5880   -1.3680   -0.0370 c3        1 TZG     -0.042100
      6 C8         -1.4920   -2.8770   -0.2700 c3        1 TZG      0.020500
      7 C10        -1.6190    2.8870    0.6900 c3        1 TZG     -0.197400
      8 C12        -2.8810   -3.5140    0.0840 c         1 TZG      0.889600
      9 O5         -3.3760   -3.2460    1.2130 o         1 TZG     -0.845300
     10 N2         -0.9860   -3.2410   -1.5870 n3        1 TZG     -0.897800
     11 C3         -0.3150   -0.5930   -0.0470 ca        1 TZG     -0.022300
     12 O1          3.9680    1.7650   -1.1000 o         1 TZG     -0.224500
     13 O2          3.7440    2.1550    0.9470 o         1 TZG     -0.224500
     14 C1          0.8530    1.5470   -0.0660 ca        1 TZG     -0.080000
     15 C2         -0.3460    0.8180   -0.0450 ca        1 TZG     -0.066300
     16 C9         -1.6390    1.5630   -0.0490 c3        1 TZG     -0.027100
     17 C11        -1.3480    4.0840   -0.2370 c         1 TZG      0.904600
     18 O7         -0.1490    4.4700   -0.3870 o         1 TZG     -0.852300
     19 O6         -2.3330    4.6500   -0.7920 o         1 TZG     -0.852300
     20 H4          0.9690   -2.3490   -0.0410 ha        1 TZG      0.170000
     21 H7         -2.2820   -0.9260   -0.8040 hc        1 TZG      0.073700
     22 H7A        -2.0800   -1.2350    0.9710 hc        1 TZG      0.073700
     23 H8         -0.7700   -3.3170    0.4810 h1        1 TZG      0.040700
     24 H10        -2.6210    3.0440    1.1650 hc        1 TZG      0.029200
     25 H10A       -0.8510    2.8720    1.5030 hc        1 TZG      0.029200
     26 HN2        -1.3520   -4.1540   -1.8090 hn        1 TZG      0.334300
     27 HN2A       -1.3640   -2.6080   -2.2690 hn        1 TZG      0.334300
     28 H1          0.8030    2.6630   -0.1010 ha        1 TZG      0.235000
     29 H9         -2.4370    0.9170    0.4100 hc        1 TZG      0.053700
     30 H9A        -1.9360    1.7430   -1.1190 hc        1 TZG      0.053700
     31 O4         -3.4150   -4.2900   -0.7610 o         1 TZG     -0.845300
     32 CL1         3.6010   -1.3690   -0.0090 cl        1 TZG     -0.123400
@<TRIPOS>BOND
     1    1    4 1   
     2    1   12 1   
     3    1   13 1   
     4    2    3 ar  
     5    2   11 ar  
     6    2   20 1   
     7    3    4 ar  
     8    3   32 1   
     9    4   14 ar  
    10    5    6 1   
    11    5   11 1   
    12    5   21 1   
    13    5   22 1   
    14    6    8 1   
    15    6   10 1   
    16    6   23 1   
    17    7   16 1   
    18    7   17 1   
    19    7   24 1   
    20    7   25 1   
    21    8    9 1   
    22    8   31 1   
    23   10   26 1   
    24   10   27 1   
    25   11   15 ar  
    26   14   15 ar  
    27   14   28 1   
    28   15   16 1   
    29   16   29 1   
    30   16   30 1   
    31   17   18 1   
    32   17   19 1   
@<TRIPOS>SUBSTRUCTURE
     1 TZG         1 TEMP              0 ****  ****    0 ROOT
