@<TRIPOS>MOLECULE
TZG
   33    34     1     0     0
SMALL
bcc


@<TRIPOS>ATOM
      1 N1         -0.2850   -0.2900    0.3070 no        1 TZG      0.568000
      2 C4          3.4940   -0.5470    0.1530 ca        1 TZG     -0.132000
      3 C5          2.1990   -0.5790    0.6680 ca        1 TZG     -0.038000
      4 C6          1.1210   -0.2890   -0.1890 ca        1 TZG     -0.115000
      5 C7          5.1580   -0.2470   -1.6450 c3        1 TZG     -0.139000
      6 C8          5.9970    0.8520   -0.9890 c3        1 TZG     -0.137000
      7 C12         7.3830    0.2800   -0.6220 cu        1 TZG     -0.126000
      8 O5          8.3790    1.2940   -0.4650 os        1 TZG     -0.258000
      9 N2          6.0430    2.1110   -1.8310 nz        1 TZG     -0.081000
     10 C3          3.7360   -0.2340   -1.1920 ca        1 TZG     -0.055000
     11 O1         -0.5800    0.3770    1.2600 o         1 TZG     -0.355000
     12 O2         -1.1010   -0.9460   -0.2860 o         1 TZG     -0.355000
     13 C1          1.3520   -0.0010   -1.5380 ca        1 TZG     -0.072000
     14 C2          2.6570    0.0340   -2.0520 ca        1 TZG     -0.038000
     15 C9          2.8240    0.3620   -3.4980 c3        1 TZG     -0.137000
     16 C11         2.9480    2.5220   -4.8900 c2        1 TZG      0.336000
     17 O7          1.8810    2.1560   -5.4480 o         1 TZG     -0.564000
     18 O6          3.6260    3.5450   -5.1910 o         1 TZG     -0.564000
     19 H4          4.3490   -0.7800    0.8110 ha        1 TZG      0.167000
     20 H7          5.2200   -0.1990   -2.7650 hc        1 TZG      0.130000
     21 H7A         5.6220   -1.2280   -1.3370 hc        1 TZG      0.130000
     22 H8          5.5230    1.1570   -0.0100 hx        1 TZG      0.114000
     23 H10         4.5960    1.5260   -3.9320 hc        1 TZG      0.047000
     24 H10A        3.4020    2.3330   -2.8030 hc        1 TZG      0.047000
     25 HN2         6.3800    1.8680   -2.7650 hn        1 TZG      0.235000
     26 HN2A        6.7260    2.7360   -1.3990 hn        1 TZG      0.235000
     27 H1          0.5030    0.2080   -2.2150 ha        1 TZG      0.177000
     28 H9          1.8200    0.4070   -4.0120 hc        1 TZG      0.115500
     29 H9A         3.4040   -0.4600   -3.9980 hc        1 TZG      0.115500
     30 O4          8.4040    0.5430   -1.5790 os        1 TZG     -0.258000
     31 H23         5.1380    2.5740   -1.9200 hn        1 TZG      0.235000
     32 Cl1         1.9700   -1.0000    2.2940 cl        1 TZG      0.011000
     33 C10         3.5110    1.6890   -3.7120 c3        1 TZG     -0.239000
@<TRIPOS>BOND
     1    1    4 1   
     2    1   11 1   
     3    1   12 1   
     4    2    3 1   
     5    2   10 1   
     6    2   19 1   
     7    3    4 1   
     8    3   32 1   
     9    4   13 1   
    10    5    6 1   
    11    5   10 1   
    12    5   20 1   
    13    5   21 1   
    14    6    7 1   
    15    6    9 1   
    16    6   22 1   
    17    7    8 1   
    18    7   30 1   
    19    8   30 1   
    20    9   25 1   
    21    9   26 1   
    22    9   31 1   
    23   10   14 1   
    24   13   14 1   
    25   13   27 1   
    26   14   15 1   
    27   15   28 1   
    28   15   29 1   
    29   15   33 1   
    30   16   17 1   
    31   16   18 1   
    32   16   33 1   
    33   23   33 1   
    34   24   33 1   
@<TRIPOS>SUBSTRUCTURE
     1 TZG         1 TEMP              0 ****  ****    0 ROOT
