@<TRIPOS>MOLECULE
TZG
   32    32     1     0     0
SMALL
bcc


@<TRIPOS>ATOM
      1 N1          0.1520   -0.2040    0.0440 no        1 TZG      0.588000
      2 C4          3.8320   -1.1100   -0.2480 c2        1 TZG     -0.275000
      3 C5          2.4760   -1.1310    0.1660 c2        1 TZG      0.136000
      4 C6          1.5560   -0.2900   -0.4500 c2        1 TZG     -0.240000
      5 C7          5.7000   -0.1790   -1.5690 c3        1 TZG     -0.159000
      6 C8          6.3540    0.8020   -0.5800 c3        1 TZG     -0.123000
      7 C10         2.8680   -1.2440   -3.9000 c3        1 TZG     -0.237000
      8 C12         7.8850    0.4860   -0.4770 c2        1 TZG      0.312000
      9 O5          8.2240   -0.7190   -0.3230 o         1 TZG     -0.573000
     10 N2          6.0390    2.1910   -0.8780 n3        1 TZG     -0.329000
     11 C3          4.2490   -0.3100   -1.2870 c2        1 TZG      0.114000
     12 O1         -0.5860   -1.1460   -0.0840 o         1 TZG     -0.384500
     13 O2         -0.2220    0.8050    0.5830 o         1 TZG     -0.384500
     14 C1          1.8890    0.4950   -1.5680 c1        1 TZG     -0.073000
     15 C2          3.2620    0.4910   -2.0600 c3        1 TZG     -0.160000
     16 C9          3.2670    0.1700   -3.5710 c3        1 TZG     -0.082000
     17 C11         2.8630   -1.4940   -5.4200 c2        1 TZG      0.333000
     18 O7          3.0970   -0.5300   -6.2060 o         1 TZG     -0.590500
     19 O6          2.6150   -2.6710   -5.8130 o         1 TZG     -0.590500
     20 H4          4.5640   -1.7270    0.2980 ha        1 TZG      0.163000
     21 H7          6.2180   -1.1710   -1.4320 hc        1 TZG      0.126500
     22 H7A         5.9360    0.5900    0.4490 h1        1 TZG      0.083000
     23 H8          5.8720    0.1520   -2.6270 hc        1 TZG      0.126500
     24 H10         3.5720   -1.9730   -3.4270 hc        1 TZG      0.071000
     25 H10A        1.8400   -1.4590   -3.5120 hc        1 TZG      0.071000
     26 HN2         6.3190    2.3880   -1.8240 hn        1 TZG      0.133000
     27 HN2A        6.6190    2.7630   -0.2860 hn        1 TZG      0.133000
     28 H1          3.6030    1.5810   -1.9750 hc        1 TZG      0.192000
     29 H9          4.2920    0.3740   -3.9760 hc        1 TZG      0.103500
     30 H9A         2.5570    0.8770   -4.0760 hc        1 TZG      0.103500
     31 O4          8.6890    1.4610   -0.5070 o         1 TZG     -0.573000
     32 CL1         2.0620   -2.1620    1.4530 cl        1 TZG     -0.016000
@<TRIPOS>BOND
     1    1    4 1   
     2    1   12 1   
     3    1   13 1   
     4    2    3 1   
     5    2   11 1   
     6    2   20 1   
     7    3    4 1   
     8    3   32 1   
     9    4   14 1   
    10    5    6 1   
    11    5   11 1   
    12    5   21 1   
    13    5   23 1   
    14    6    8 1   
    15    6   10 1   
    16    6   22 1   
    17    7   16 1   
    18    7   17 1   
    19    7   24 1   
    20    7   25 1   
    21    8    9 1   
    22    8   31 1   
    23   10   26 1   
    24   10   27 1   
    25   11   15 1   
    26   14   15 1   
    27   15   16 1   
    28   15   28 1   
    29   16   29 1   
    30   16   30 1   
    31   17   18 1   
    32   17   19 1   
@<TRIPOS>SUBSTRUCTURE
     1 TZG         1 TEMP              0 ****  ****    0 ROOT
