@<TRIPOS>MOLECULE
TZL
   20    17     1     0     0
SMALL
bcc


@<TRIPOS>ATOM
      1 S1         -0.2350   -0.5300    1.9940 ss        1 TZL      0.475000
      2 C2         -0.6910   -0.3400    0.5310 c1        1 TZL     -0.267000
      3 N3         -2.1190   -0.3290    0.5140 n2        1 TZL     -0.112000
      4 C4         -2.6340   -0.5130    1.9850 c1        1 TZL     -0.134000
      5 C5         -1.4890   -0.6320    2.8550 c1        1 TZL     -0.461000
      6 C6          0.2140   -0.2660   -0.6800 c2        1 TZL     -0.043000
      7 C7          1.1070    0.9500   -0.5670 c3        1 TZL     -0.154000
      8 C8          0.9130    1.8330   -1.7800 c3        1 TZL     -0.212000
      9 C9          1.0660   -1.5140   -0.7500 c3        1 TZL     -0.222000
     10 H4         -3.5690   -0.5420    2.2640 DU        1 TZL      0.179500
     11 H5         -1.5130   -0.7550    3.8230 DU        1 TZL      0.179500
     12 H6         -0.3290   -0.1970   -1.4880 ha        1 TZL      0.119000
     13 H71         2.0420    0.6640   -0.5180 hc        1 TZL      0.089500
     14 H72         0.8770    1.4510    0.2410 hc        1 TZL      0.089500
     15 H81        -0.0200    2.1310   -1.8210 hc        1 TZL      0.074333
     16 H82         1.5020    2.6130   -1.7150 hc        1 TZL      0.074333
     17 H83         1.1300    1.3260   -2.5910 hc        1 TZL      0.074333
     18 H91         1.6160   -1.5800    0.0590 hc        1 TZL      0.082667
     19 H92         1.6480   -1.4680   -1.5370 hc        1 TZL      0.082667
     20 H93         0.4870   -2.3020   -0.8170 hc        1 TZL      0.082667
@<TRIPOS>BOND
     1    1    2 1   
     2    1    5 1   
     3    2    3 1   
     4    3    4 1   
     5    4    5 1   
     6    6    7 1   
     7    6    9 1   
     8    6   12 1   
     9    7    8 1   
    10    7   13 1   
    11    7   14 1   
    12    8   15 1   
    13    8   16 1   
    14    8   17 1   
    15    9   18 1   
    16    9   19 1   
    17    9   20 1   
@<TRIPOS>SUBSTRUCTURE
     1 TZL         1 TEMP              0 ****  ****    0 ROOT
