@<TRIPOS>MOLECULE
TZL
   20    20     1     0     0
SMALL
bcc


@<TRIPOS>ATOM
      1 S1          0.1200   -0.0820   -0.1240 ss        1 TZL     -0.117300
      2 C2          1.8300   -0.0210    0.1260 cc        1 TZL      0.404700
      3 N3          2.1880    0.0870    1.4060 nd        1 TZL     -0.633000
      4 C4          1.0540    0.1210    2.2030 cd        1 TZL      0.331200
      5 C5         -0.1510    0.0390    1.5210 cc        1 TZL     -0.251400
      6 C6          2.7670   -0.0910   -1.0340 c3        1 TZL     -0.091000
      7 C7          3.6330    1.1640   -1.0900 c3        1 TZL     -0.073400
      8 C8          4.2900    1.3400   -2.4340 c3        1 TZL     -0.094100
      9 C9          3.6140   -1.3470   -0.9530 c3        1 TZL     -0.087100
     10 H4          1.1810    0.2090    3.2880 h4        1 TZL      0.043100
     11 H5         -1.1370    0.0510    1.9790 h4        1 TZL      0.180000
     12 H6          2.1450   -0.1370   -1.9750 hc        1 TZL      0.051700
     13 H71         2.9940    2.0610   -0.8710 hc        1 TZL      0.052700
     14 H72         4.4130    1.1080   -0.2850 hc        1 TZL      0.052700
     15 H81         4.9760    0.4870   -2.6590 hc        1 TZL      0.034367
     16 H82         4.8880    2.2830   -2.4450 hc        1 TZL      0.034367
     17 H83         3.5260    1.3980   -3.2470 hc        1 TZL      0.034367
     18 H91         4.2630   -1.4260   -1.8570 hc        1 TZL      0.043033
     19 H92         2.9630   -2.2520   -0.9010 hc        1 TZL      0.043033
     20 H93         4.2640   -1.3240   -0.0450 hc        1 TZL      0.043033
@<TRIPOS>BOND
     1    1    2 1   
     2    1    5 1   
     3    2    3 2   
     4    2    6 1   
     5    3    4 1   
     6    4    5 2   
     7    4   10 1   
     8    5   11 1   
     9    6    7 1   
    10    6    9 1   
    11    6   12 1   
    12    7    8 1   
    13    7   13 1   
    14    7   14 1   
    15    8   15 1   
    16    8   16 1   
    17    8   17 1   
    18    9   18 1   
    19    9   19 1   
    20    9   20 1   
@<TRIPOS>SUBSTRUCTURE
     1 TZL         1 TEMP              0 ****  ****    0 ROOT
