@<TRIPOS>MOLECULE
TZL
   20    20     1     0     0
SMALL
bcc


@<TRIPOS>ATOM
      1 S1          0.1180   -0.1020   -0.1620 ss        1 TZL     -0.117300
      2 C2          1.8230   -0.0280    0.1130 cc        1 TZL      0.404700
      3 N3          2.1610    0.0840    1.3990 nd        1 TZL     -0.633000
      4 C4          1.0160    0.1110    2.1790 cd        1 TZL      0.331200
      5 C5         -0.1790    0.0180    1.4800 cc        1 TZL     -0.251400
      6 C6          2.7780   -0.0910   -1.0330 c3        1 TZL     -0.091000
      7 C7          3.6330    1.1710   -1.0770 c3        1 TZL     -0.073400
      8 C8          4.3090    1.3510   -2.4120 c3        1 TZL     -0.094100
      9 C9          3.6330   -1.3390   -0.9370 c3        1 TZL     -0.087100
     10 H4          1.1260    0.2000    3.2650 h4        1 TZL      0.043100
     11 H5         -1.1710    0.0220    1.9230 h4        1 TZL      0.180000
     12 H6          2.1700   -0.1430   -1.9820 hc        1 TZL      0.051700
     13 H71         2.9840    2.0630   -0.8700 hc        1 TZL      0.052700
     14 H72         4.4020    1.1230   -0.2610 hc        1 TZL      0.052700
     15 H81         3.5570    1.4010   -3.2360 hc        1 TZL      0.034367
     16 H82         5.0060    0.5040   -2.6250 hc        1 TZL      0.034367
     17 H83         4.9000    2.2990   -2.4160 hc        1 TZL      0.034367
     18 H91         4.2970   -1.4140   -1.8330 hc        1 TZL      0.043033
     19 H92         2.9900   -2.2510   -0.8940 hc        1 TZL      0.043033
     20 H93         4.2710   -1.3100   -0.0210 hc        1 TZL      0.043033
@<TRIPOS>BOND
     1    1    2 1   
     2    1    5 1   
     3    2    3 2   
     4    2    6 1   
     5    3    4 1   
     6    4    5 2   
     7    4   10 1   
     8    5   11 1   
     9    6    7 1   
    10    6    9 1   
    11    6   12 1   
    12    7    8 1   
    13    7   13 1   
    14    7   14 1   
    15    8   15 1   
    16    8   16 1   
    17    8   17 1   
    18    9   18 1   
    19    9   19 1   
    20    9   20 1   
@<TRIPOS>SUBSTRUCTURE
     1 TZL         1 TEMP              0 ****  ****    0 ROOT
