@<TRIPOS>MOLECULE
TZL
   20    20     1     0     0
SMALL
bcc


@<TRIPOS>ATOM
      1 S1          1.1510   -0.0700   -1.3580 ss        1 TZL     -0.117300
      2 C2         -0.1220   -0.1040   -0.1890 cc        1 TZL      0.404700
      3 N3         -1.3350    0.1140   -0.7010 nd        1 TZL     -0.633000
      4 C4         -1.2320    0.3120   -2.0690 cd        1 TZL      0.331200
      5 C5          0.0550    0.2430   -2.5820 cc        1 TZL     -0.251400
      6 C6          0.1780   -0.3620    1.2500 c3        1 TZL     -0.091000
      7 C7         -0.2790    0.8160    2.1040 c3        1 TZL     -0.073400
      8 C8          0.3500    0.8020    3.4730 c3        1 TZL     -0.094100
      9 C9         -0.4680   -1.6580    1.6990 c3        1 TZL     -0.087100
     10 H4         -2.1470    0.5050   -2.6390 h4        1 TZL      0.043100
     11 H5          0.3260    0.3720   -3.6270 h4        1 TZL      0.180000
     12 H6          1.2980   -0.4640    1.3530 hc        1 TZL      0.051700
     13 H71        -1.3970    0.7920    2.1960 hc        1 TZL      0.052700
     14 H72        -0.0100    1.7740    1.5840 hc        1 TZL      0.052700
     15 H81         0.0160    1.6940    4.0560 hc        1 TZL      0.034367
     16 H82         0.0580   -0.1160    4.0390 hc        1 TZL      0.034367
     17 H83         1.4650    0.8270    3.3990 hc        1 TZL      0.034367
     18 H91        -1.5810   -1.5850    1.6360 hc        1 TZL      0.043033
     19 H92        -0.1310   -2.5050    1.0550 hc        1 TZL      0.043033
     20 H93        -0.1830   -1.8780    2.7560 hc        1 TZL      0.043033
@<TRIPOS>BOND
     1    1    2 1   
     2    1    5 1   
     3    2    3 2   
     4    2    6 1   
     5    3    4 1   
     6    4    5 2   
     7    4   10 1   
     8    5   11 1   
     9    6    7 1   
    10    6    9 1   
    11    6   12 1   
    12    7    8 1   
    13    7   13 1   
    14    7   14 1   
    15    8   15 1   
    16    8   16 1   
    17    8   17 1   
    18    9   18 1   
    19    9   19 1   
    20    9   20 1   
@<TRIPOS>SUBSTRUCTURE
     1 TZL         1 TEMP              0 ****  ****    0 ROOT
