@<TRIPOS>MOLECULE
TZM
   23    24     1     0     0
SMALL
bcc


@<TRIPOS>ATOM
      1 CAG        -1.4680    0.8590    0.6440 ca        1 TZM     -0.178000
      2 CAK        -2.7260    0.7260    0.0130 ca        1 TZM      0.137600
      3 NAA        -3.6740    1.7520    0.0880 nh        1 TZM     -0.818200
      4 CAC        -3.0350   -0.4980   -0.6260 ca        1 TZM     -0.178000
      5 CAB        -2.1220   -1.5460   -0.6140 ca        1 TZM     -0.094000
      6 CAD        -0.8880   -1.4110    0.0210 ca        1 TZM     -0.143000
      7 CAL        -0.5680   -0.2060    0.6510 ca        1 TZM     -0.087300
      8 CAH         0.7420   -0.0620    1.3730 c3        1 TZM      0.102600
      9 NAM         1.9070   -0.0870    0.5080 na        1 TZM     -0.054400
     10 NAJ         2.5120   -1.2030    0.0640 nc        1 TZM     -0.520800
     11 CAE         3.4890   -0.7570   -0.7750 cd        1 TZM      0.499900
     12 NAI         3.5130    0.6450   -0.8940 nd        1 TZM     -0.685000
     13 CAF         2.5060    1.0450   -0.0900 cc        1 TZM      0.403400
     14 H1         -1.2020    1.8020    1.1440 ha        1 TZM      0.129000
     15 H2         -3.2870    2.6600    0.2250 hn        1 TZM      0.389800
     16 H3         -4.3650    1.7250   -0.6280 hn        1 TZM      0.389800
     17 H4         -4.0050   -0.6290   -1.1290 ha        1 TZM      0.134000
     18 H5         -2.3770   -2.4930   -1.1130 ha        1 TZM      0.135000
     19 H6         -0.1700   -2.2440    0.0240 ha        1 TZM      0.150000
     20 H7          0.7720    0.9180    1.9290 h1        1 TZM      0.074200
     21 H8          0.8330   -0.9020    2.1230 h1        1 TZM      0.074200
     22 H9          4.1890   -1.4100   -1.3040 h5        1 TZM      0.070100
     23 H10         2.1860    2.0720    0.1070 h5        1 TZM      0.068100
@<TRIPOS>BOND
     1    1    2 ar  
     2    1    7 ar  
     3    1   14 1   
     4    2    3 1   
     5    2    4 ar  
     6    3   15 1   
     7    3   16 1   
     8    4    5 ar  
     9    4   17 1   
    10    5    6 ar  
    11    5   18 1   
    12    6    7 ar  
    13    6   19 1   
    14    7    8 1   
    15    8    9 1   
    16    8   20 1   
    17    8   21 1   
    18    9   10 1   
    19    9   13 1   
    20   10   11 2   
    21   11   12 1   
    22   11   22 1   
    23   12   13 2   
    24   13   23 1   
@<TRIPOS>SUBSTRUCTURE
     1 TZM         1 TEMP              0 ****  ****    0 ROOT
