@<TRIPOS>MOLECULE
TZM
   23    24     1     0     0
SMALL
bcc


@<TRIPOS>ATOM
      1 CAG        -0.0460   -0.2180   -0.1060 ca        1 TZM     -0.178000
      2 CAK         1.3640   -0.2980   -0.1760 ca        1 TZM      0.137600
      3 NAA         1.9960   -0.7170   -1.3530 nh        1 TZM     -0.818200
      4 CAC         2.1150   -0.0250    0.9910 ca        1 TZM     -0.178000
      5 CAB         1.4710    0.2980    2.1790 ca        1 TZM     -0.094000
      6 CAD         0.0810    0.3630    2.2440 ca        1 TZM     -0.143000
      7 CAL        -0.6730    0.1020    1.0970 ca        1 TZM     -0.087300
      8 CAH        -2.1740    0.1300    1.1640 c3        1 TZM      0.102600
      9 NAM        -2.7370    1.4460    1.4050 na        1 TZM     -0.054400
     10 NAJ        -2.8760    2.0120    2.6170 nc        1 TZM     -0.520800
     11 CAE        -3.3570    3.2620    2.3610 cd        1 TZM      0.499900
     12 NAI        -3.5170    3.5180    0.9860 nd        1 TZM     -0.685000
     13 CAF        -3.1120    2.3700    0.4050 cc        1 TZM      0.402400
     14 H1         -0.6530   -0.4210   -1.0010 ha        1 TZM      0.129000
     15 H2          2.9490   -0.4360   -1.4270 hn        1 TZM      0.389800
     16 H3          1.4720   -0.5500   -2.1830 hn        1 TZM      0.389800
     17 H4          3.2140   -0.0750    0.9650 ha        1 TZM      0.134000
     18 H5          2.0690    0.5060    3.0800 ha        1 TZM      0.135000
     19 H6         -0.4210    0.6230    3.1880 ha        1 TZM      0.150000
     20 H7         -2.6120   -0.2360    0.1920 h1        1 TZM      0.074200
     21 H8         -2.5100   -0.5620    1.9910 h1        1 TZM      0.074200
     22 H9         -3.6000    3.9970    3.1340 h5        1 TZM      0.070100
     23 H10        -3.0820    2.1480   -0.6660 h5        1 TZM      0.068100
@<TRIPOS>BOND
     1    1    2 ar  
     2    1    7 ar  
     3    1   14 1   
     4    2    3 1   
     5    2    4 ar  
     6    3   15 1   
     7    3   16 1   
     8    4    5 ar  
     9    4   17 1   
    10    5    6 ar  
    11    5   18 1   
    12    6    7 ar  
    13    6   19 1   
    14    7    8 1   
    15    8    9 1   
    16    8   20 1   
    17    8   21 1   
    18    9   10 1   
    19    9   13 1   
    20   10   11 2   
    21   11   12 1   
    22   11   22 1   
    23   12   13 2   
    24   13   23 1   
@<TRIPOS>SUBSTRUCTURE
     1 TZM         1 TEMP              0 ****  ****    0 ROOT
