@<TRIPOS>MOLECULE
TZM
   24    25     1     0     0
SMALL
bcc


@<TRIPOS>ATOM
      1 CAG         0.0780   -0.0660   -0.0800 ca        1 TZM     -0.090000
      2 CAK         1.4820   -0.0990   -0.0000 ca        1 TZM     -0.082400
      3 NAA         2.2670   -0.2280   -1.2290 n4        1 TZM     -0.700000
      4 CAC         2.1430    0.0070    1.2350 ca        1 TZM     -0.091000
      5 CAB         1.3840    0.1550    2.3930 ca        1 TZM     -0.102000
      6 CAD        -0.0100    0.1930    2.3290 ca        1 TZM     -0.030000
      7 CAL        -0.6620    0.0770    1.0940 ca        1 TZM     -0.074300
      8 CAH        -2.1660    0.1110    1.0400 c3        1 TZM      0.103600
      9 NAM        -2.7150    1.4370    1.2150 na        1 TZM     -0.089400
     10 NAJ        -2.3770    2.2740    2.2190 nc        1 TZM     -0.537800
     11 CAE        -3.1450    3.3770    2.0180 cd        1 TZM      0.530900
     12 NAI        -3.9830    3.2640    0.8890 nd        1 TZM     -0.659000
     13 CAF        -3.7020    2.0440    0.4000 cc        1 TZM      0.419400
     14 H1         -0.4430   -0.1460   -1.0480 ha        1 TZM      0.155000
     15 H2          2.3890    0.6990   -1.6550 hn        1 TZM      0.463800
     16 H3          1.7810   -0.8410   -1.8930 hn        1 TZM      0.463800
     17 H4          3.2430   -0.0200    1.3070 ha        1 TZM      0.159000
     18 H5          1.8930    0.2470    3.3690 ha        1 TZM      0.179000
     19 H6         -0.6030    0.3270    3.2520 ha        1 TZM      0.190000
     20 H7         -2.5670   -0.5630    1.8550 h1        1 TZM      0.081700
     21 H8         -2.5310   -0.2780    0.0470 h1        1 TZM      0.081700
     22 H9         -3.1320    4.2670    2.6590 h5        1 TZM      0.086100
     23 H10        -4.1530    1.5600   -0.4720 h5        1 TZM      0.077100
     24 HAA3        3.1890   -0.6240   -1.0160 hn        1 TZM      0.463800
@<TRIPOS>BOND
     1    1    2 ar  
     2    1    7 ar  
     3    1   14 1   
     4    2    3 1   
     5    2    4 ar  
     6    3   15 1   
     7    3   16 1   
     8    3   24 1   
     9    4    5 ar  
    10    4   17 1   
    11    5    6 ar  
    12    5   18 1   
    13    6    7 ar  
    14    6   19 1   
    15    7    8 1   
    16    8    9 1   
    17    8   20 1   
    18    8   21 1   
    19    9   10 1   
    20    9   13 1   
    21   10   11 2   
    22   11   12 1   
    23   11   22 1   
    24   12   13 2   
    25   13   23 1   
@<TRIPOS>SUBSTRUCTURE
     1 TZM         1 TEMP              0 ****  ****    0 ROOT
