@<TRIPOS>MOLECULE
TZM
   23    24     1     0     0
SMALL
bcc


@<TRIPOS>ATOM
      1 CAG        -0.0370   -0.2160   -0.1040 ca        1 TZM     -0.178000
      2 CAK         1.3730   -0.2940   -0.1650 ca        1 TZM      0.137600
      3 NAA         2.0140   -0.7100   -1.3370 nv        1 TZM     -0.818200
      4 CAC         2.1160   -0.0200    1.0080 ca        1 TZM     -0.178000
      5 CAB         1.4640    0.3010    2.1920 ca        1 TZM     -0.094000
      6 CAD         0.0720    0.3630    2.2470 ca        1 TZM     -0.143000
      7 CAL        -0.6730    0.1020    1.0950 ca        1 TZM     -0.087300
      8 CAH        -2.1740    0.1270    1.1510 c3        1 TZM      0.102600
      9 NAM        -2.7420    1.4410    1.3920 na        1 TZM     -0.054400
     10 NAJ        -2.8930    2.0030    2.6050 nc        1 TZM     -0.520800
     11 CAE        -3.3730    3.2520    2.3490 cd        1 TZM      0.499900
     12 NAI        -3.5200    3.5140    0.9740 nd        1 TZM     -0.685000
     13 CAF        -3.1090    2.3690    0.3920 cc        1 TZM      0.402400
     14 H1         -0.6370   -0.4200   -1.0040 ha        1 TZM      0.129000
     15 H2          1.4950   -0.5440   -2.1710 hn        1 TZM      0.389800
     16 H3          2.9670   -0.4270   -1.4050 hn        1 TZM      0.389800
     17 H4          3.2150   -0.0680    0.9890 ha        1 TZM      0.134000
     18 H5          2.0540    0.5090    3.0970 ha        1 TZM      0.135000
     19 H6         -0.4370    0.6220    3.1870 ha        1 TZM      0.150000
     20 H7         -2.5150   -0.5680    1.9740 h1        1 TZM      0.074200
     21 H8         -2.6050   -0.2370    0.1750 h1        1 TZM      0.074200
     22 H9         -3.6250    3.9840    3.1230 h5        1 TZM      0.070100
     23 H10        -3.0680    2.1510   -0.6790 h5        1 TZM      0.068100
@<TRIPOS>BOND
     1    1    2 ar  
     2    1    7 ar  
     3    1   14 1   
     4    2    3 1   
     5    2    4 ar  
     6    3   15 1   
     7    3   16 1   
     8    4    5 ar  
     9    4   17 1   
    10    5    6 ar  
    11    5   18 1   
    12    6    7 ar  
    13    6   19 1   
    14    7    8 1   
    15    8    9 1   
    16    8   20 1   
    17    8   21 1   
    18    9   10 1   
    19    9   13 1   
    20   10   11 2   
    21   11   12 1   
    22   11   22 1   
    23   12   13 2   
    24   13   23 1   
@<TRIPOS>SUBSTRUCTURE
     1 TZM         1 TEMP              0 ****  ****    0 ROOT
