@<TRIPOS>MOLECULE
TZM
   23    18     1     0     0
SMALL
bcc


@<TRIPOS>ATOM
      1 CAG         0.7050   -0.6340   -1.1280 c1        1 TZM     -0.165000
      2 CAK         2.0660   -0.7400   -1.1410 c1        1 TZM      0.060000
      3 NAA         2.8000   -0.6630   -2.4110 n3        1 TZM     -0.329000
      4 CAC         2.7860   -0.8090    0.0840 c1        1 TZM     -0.180000
      5 CAB         2.1190   -0.7680    1.2740 c1        1 TZM     -0.127500
      6 CAD         0.7250   -0.6590    1.2910 c1        1 TZM     -0.127500
      7 CAL         0.0170   -0.5920    0.0920 c1        1 TZM     -0.079000
      8 CAH        -1.5770   -0.6640    0.1100 c2        1 TZM      0.035000
      9 NAM        -2.1020    0.5930    0.4200 n3        1 TZM     -0.155000
     10 NAJ        -1.7050    1.7800   -0.1210 n2        1 TZM     -0.091000
     11 CAE        -2.4640    2.7180    0.3580 c1        1 TZM     -0.164000
     12 NAI        -3.3590    2.1390    1.2150 n2        1 TZM     -0.160000
     13 CAF        -3.1160    0.8310    1.2350 c1        1 TZM     -0.084000
     14 H1          0.2270   -0.5910   -1.9400 ha        1 TZM      0.150000
     15 H2          2.6940   -1.2580   -2.9940 hn        1 TZM      0.188000
     16 H3          3.3550    0.0690   -2.5860 hn        1 TZM      0.188000
     17 H4          3.7020   -0.8810    0.0740 ha        1 TZM      0.134000
     18 H5          2.6620   -0.8200    2.1880 ha        1 TZM      0.131500
     19 H6          0.2420   -0.6260    2.1520 ha        1 TZM      0.131500
     20 H7         -1.9230   -0.9610   -0.8260 h4        1 TZM      0.114500
     21 H8         -1.8450   -1.2690    0.7450 h4        1 TZM      0.114500
     22 H9         -2.4050    3.6450    0.1490 DU        1 TZM      0.207000
     23 H10        -3.6040    0.1610    1.7620 DU        1 TZM      0.207000
@<TRIPOS>BOND
     1    1    7 1   
     2    1   14 1   
     3    2    3 1   
     4    2    4 1   
     5    3   15 1   
     6    3   16 1   
     7    4   17 1   
     8    5    6 1   
     9    5   18 1   
    10    6   19 1   
    11    8    9 1   
    12    8   20 1   
    13    8   21 1   
    14    9   10 1   
    15    9   13 1   
    16   10   11 1   
    17   11   12 1   
    18   12   13 1   
@<TRIPOS>SUBSTRUCTURE
     1 TZM         1 TEMP              0 ****  ****    0 ROOT
