@<TRIPOS>MOLECULE
TZN
   53    56     1     0     0
SMALL
bcc


@<TRIPOS>ATOM
      1 CAO         0.1680    0.0510   -0.0040 c3        1 TZN     -0.102400
      2 CAQ         1.0310    1.2220    0.4550 c3        1 TZN     -0.107400
      3 CAR         1.2190    1.0240    1.9580 c3        1 TZN      0.121400
      4 OAA         0.7600   -0.2960    2.2850 os        1 TZN     -0.392600
      5 CAJ        -0.1280   -0.7560    1.2680 c3        1 TZN      0.076100
      6 CAP        -1.5720   -0.5370    1.7350 c         1 TZN      0.633100
      7 OAB        -1.8310    0.2950    2.6240 o         1 TZN     -0.582100
      8 NAE        -2.5800   -1.3410    1.2050 n         1 TZN     -0.465800
      9 CAL        -3.9580   -1.1220    1.5880 c3        1 TZN      0.075500
     10 CAN        -4.8360   -0.5190    0.4710 c3        1 TZN      0.171300
     11 CAK        -2.4500   -2.0460   -0.0450 c3        1 TZN      0.075500
     12 CAM        -3.2980   -1.4530   -1.1950 c3        1 TZN      0.171300
     13 NAF        -4.6750   -1.1850   -0.8140 nh        1 TZN     -0.722300
     14 C2         -5.5530   -0.7630   -1.8580 ca        1 TZN      0.898900
     15 N3         -5.2090   -1.1410   -3.1630 nb        1 TZN     -0.818000
     16 N1         -6.6970   -0.1020   -1.5160 nb        1 TZN     -0.777000
     17 C6         -7.5830    0.1840   -2.5240 ca        1 TZN      0.490600
     18 CAW        -8.8050    0.8570   -2.1930 ca        1 TZN     -0.269300
     19 CAY        -9.7100    1.1740   -3.1790 ca        1 TZN      0.154100
     20 OAC       -10.9110    1.8150   -2.9740 os        1 TZN     -0.300900
     21 CBA       -11.2100    2.1680   -1.6260 c3        1 TZN      0.106700
     22 CAZ        -9.4420    0.8380   -4.5520 ca        1 TZN      0.088100
     23 OAD       -10.4340    1.2150   -5.4350 os        1 TZN     -0.300900
     24 CBB       -10.1640    0.9820   -6.8120 c3        1 TZN      0.109700
     25 CAX        -8.2750    0.1890   -4.8870 ca        1 TZN     -0.147000
     26 C5         -7.3350   -0.1540   -3.8870 ca        1 TZN     -0.319600
     27 C4         -6.0760   -0.8370   -4.1520 ca        1 TZN      0.714200
     28 NAI        -5.7070   -1.1340   -5.4630 nh        1 TZN     -0.936500
     29 HAS        -0.7750    0.4040   -0.4900 hc        1 TZN      0.057700
     30 HAT         0.7170   -0.5860   -0.7400 hc        1 TZN      0.057700
     31 HAV         2.0150    1.2200   -0.0730 hc        1 TZN      0.056200
     32 HAU         0.5300    2.1980    0.2450 hc        1 TZN      0.056200
     33 HAX         2.2920    1.0550    2.2740 h1        1 TZN      0.060200
     34 HAW         0.6140    1.7560    2.5530 h1        1 TZN      0.060200
     35 HAJ         0.0950   -1.8520    1.1630 h1        1 TZN      0.087700
     36 HAN        -4.3850   -2.1210    1.8920 h1        1 TZN      0.066950
     37 HAM        -4.0040   -0.4270    2.4740 h1        1 TZN      0.066950
     38 HAR        -5.9060   -0.6320    0.8060 h1        1 TZN      0.060200
     39 HAQ        -4.6120    0.5830    0.3810 h1        1 TZN      0.060200
     40 HAL        -2.7750   -3.1130    0.1310 h1        1 TZN      0.066950
     41 HAK        -1.3810   -2.0580   -0.3960 h1        1 TZN      0.066950
     42 HAO        -2.7960   -0.5150   -1.5710 h1        1 TZN      0.060200
     43 HAP        -3.2870   -2.2150   -2.0250 h1        1 TZN      0.060200
     44 HAY        -8.9950    1.1120   -1.1400 ha        1 TZN      0.161000
     45 HBA       -12.2100    2.6650   -1.7080 h1        1 TZN      0.049033
     46 HBC       -11.2730    1.2550   -0.9850 h1        1 TZN      0.049033
     47 HBB       -10.4470    2.8780   -1.2250 h1        1 TZN      0.049033
     48 HBE        -9.2420    1.5240   -7.1360 h1        1 TZN      0.044367
     49 HBD       -10.0680   -0.1120   -7.0160 h1        1 TZN      0.044367
     50 HBF       -11.0680    1.3990   -7.3260 h1        1 TZN      0.044367
     51 HAZ        -8.0750   -0.0490   -5.9410 ha        1 TZN      0.135000
     52 HBG        -4.9120   -1.7190   -5.5900 hn        1 TZN      0.416300
     53 HAI        -6.4580   -1.3000   -6.0910 hn        1 TZN      0.416300
@<TRIPOS>BOND
     1    1    2 1   
     2    1    5 1   
     3    1   29 1   
     4    1   30 1   
     5    2    3 1   
     6    2   31 1   
     7    2   32 1   
     8    3    4 1   
     9    3   33 1   
    10    3   34 1   
    11    4    5 1   
    12    5    6 1   
    13    5   35 1   
    14    6    7 2   
    15    6    8 1   
    16    8    9 1   
    17    8   11 1   
    18    9   10 1   
    19    9   36 1   
    20    9   37 1   
    21   10   13 1   
    22   10   38 1   
    23   10   39 1   
    24   11   12 1   
    25   11   40 1   
    26   11   41 1   
    27   12   13 1   
    28   12   42 1   
    29   12   43 1   
    30   13   14 1   
    31   14   15 ar  
    32   14   16 ar  
    33   15   27 ar  
    34   16   17 ar  
    35   17   18 ar  
    36   17   26 ar  
    37   18   19 ar  
    38   18   44 1   
    39   19   20 1   
    40   19   22 ar  
    41   20   21 1   
    42   21   45 1   
    43   21   46 1   
    44   21   47 1   
    45   22   23 1   
    46   22   25 ar  
    47   23   24 1   
    48   24   48 1   
    49   24   49 1   
    50   24   50 1   
    51   25   26 ar  
    52   25   51 1   
    53   26   27 ar  
    54   27   28 1   
    55   28   52 1   
    56   28   53 1   
@<TRIPOS>SUBSTRUCTURE
     1 TZN         1 TEMP              0 ****  ****    0 ROOT
