@<TRIPOS>MOLECULE
TZN
   53    56     1     0     0
SMALL
bcc


@<TRIPOS>ATOM
      1 CAO         0.1700    0.0500    0.0010 c3        1 TZN     -0.102400
      2 CAQ         1.0330    1.2200    0.4620 c3        1 TZN     -0.107400
      3 CAR         1.2200    1.0220    1.9640 c3        1 TZN      0.121400
      4 OAA         0.7600   -0.2980    2.2910 os        1 TZN     -0.392600
      5 CAJ        -0.1280   -0.7570    1.2720 c3        1 TZN      0.076100
      6 CAP        -1.5720   -0.5380    1.7370 c         1 TZN      0.633100
      7 OAB        -1.8320    0.2940    2.6260 o         1 TZN     -0.582100
      8 NAE        -2.5800   -1.3410    1.2050 n         1 TZN     -0.465800
      9 CAL        -3.9580   -1.1220    1.5880 c3        1 TZN      0.075500
     10 CAN        -4.8350   -0.5170    0.4700 c3        1 TZN      0.171300
     11 CAK        -2.4490   -2.0460   -0.0440 c3        1 TZN      0.075500
     12 CAM        -3.2960   -1.4520   -1.1950 c3        1 TZN      0.171300
     13 NAF        -4.6730   -1.1830   -0.8150 nh        1 TZN     -0.722300
     14 C2         -5.5500   -0.7620   -1.8600 ca        1 TZN      0.898900
     15 N3         -5.2040   -1.1380   -3.1650 nb        1 TZN     -0.818000
     16 N1         -6.6950   -0.1020   -1.5180 nb        1 TZN     -0.777000
     17 C6         -7.5800    0.1840   -2.5270 ca        1 TZN      0.490600
     18 CAW        -8.8030    0.8550   -2.1970 ca        1 TZN     -0.269300
     19 CAY        -9.7080    1.1720   -3.1830 ca        1 TZN      0.154100
     20 OAC       -10.9090    1.8120   -2.9790 os        1 TZN     -0.300900
     21 CBA       -11.2110    2.1620   -1.6310 c3        1 TZN      0.106700
     22 CAZ        -9.4370    0.8380   -4.5570 ca        1 TZN      0.088100
     23 OAD       -10.4290    1.2150   -5.4410 os        1 TZN     -0.300900
     24 CBB       -10.1570    0.9850   -6.8180 c3        1 TZN      0.109700
     25 CAX        -8.2700    0.1910   -4.8910 ca        1 TZN     -0.147000
     26 C5         -7.3300   -0.1520   -3.8900 ca        1 TZN     -0.319600
     27 C4         -6.0700   -0.8340   -4.1540 ca        1 TZN      0.714200
     28 NAI        -5.7000   -1.1280   -5.4650 nh        1 TZN     -0.936500
     29 HAS        -0.7710    0.4040   -0.4860 hc        1 TZN      0.057700
     30 HAT         0.7200   -0.5860   -0.7350 hc        1 TZN      0.057700
     31 HAV         2.0180    1.2180   -0.0660 hc        1 TZN      0.056200
     32 HAU         0.5340    2.1970    0.2510 hc        1 TZN      0.056200
     33 HAX         2.2920    1.0520    2.2830 h1        1 TZN      0.060200
     34 HAW         0.6140    1.7540    2.5590 h1        1 TZN      0.060200
     35 HAJ         0.0950   -1.8530    1.1660 h1        1 TZN      0.087700
     36 HAN        -4.0050   -0.4260    2.4730 h1        1 TZN      0.066950
     37 HAM        -4.3850   -2.1200    1.8910 h1        1 TZN      0.066950
     38 HAR        -4.6110    0.5840    0.3810 h1        1 TZN      0.060200
     39 HAQ        -5.9060   -0.6310    0.8040 h1        1 TZN      0.060200
     40 HAL        -1.3800   -2.0570   -0.3950 h1        1 TZN      0.066950
     41 HAK        -2.7740   -3.1120    0.1310 h1        1 TZN      0.066950
     42 HAO        -3.2840   -2.2140   -2.0250 h1        1 TZN      0.060200
     43 HAP        -2.7930   -0.5140   -1.5700 h1        1 TZN      0.060200
     44 HAY        -8.9950    1.1080   -1.1440 ha        1 TZN      0.161000
     45 HBA       -10.4490    2.8720   -1.2280 h1        1 TZN      0.049033
     46 HBC       -12.2120    2.6580   -1.7140 h1        1 TZN      0.049033
     47 HBB       -11.2740    1.2480   -0.9910 h1        1 TZN      0.049033
     48 HBE        -9.2350    1.5280   -7.1390 h1        1 TZN      0.044367
     49 HBD       -10.0580   -0.1090   -7.0230 h1        1 TZN      0.044367
     50 HBF       -11.0600    1.4020   -7.3320 h1        1 TZN      0.044367
     51 HAZ        -8.0670   -0.0450   -5.9460 ha        1 TZN      0.135000
     52 HBG        -4.9040   -1.7130   -5.5930 hn        1 TZN      0.416300
     53 HAI        -6.4490   -1.2950   -6.0940 hn        1 TZN      0.416300
@<TRIPOS>BOND
     1    1    2 1   
     2    1    5 1   
     3    1   29 1   
     4    1   30 1   
     5    2    3 1   
     6    2   31 1   
     7    2   32 1   
     8    3    4 1   
     9    3   33 1   
    10    3   34 1   
    11    4    5 1   
    12    5    6 1   
    13    5   35 1   
    14    6    7 2   
    15    6    8 1   
    16    8    9 1   
    17    8   11 1   
    18    9   10 1   
    19    9   36 1   
    20    9   37 1   
    21   10   13 1   
    22   10   38 1   
    23   10   39 1   
    24   11   12 1   
    25   11   40 1   
    26   11   41 1   
    27   12   13 1   
    28   12   42 1   
    29   12   43 1   
    30   13   14 1   
    31   14   15 ar  
    32   14   16 ar  
    33   15   27 ar  
    34   16   17 ar  
    35   17   18 ar  
    36   17   26 ar  
    37   18   19 ar  
    38   18   44 1   
    39   19   20 1   
    40   19   22 ar  
    41   20   21 1   
    42   21   45 1   
    43   21   46 1   
    44   21   47 1   
    45   22   23 1   
    46   22   25 ar  
    47   23   24 1   
    48   24   48 1   
    49   24   49 1   
    50   24   50 1   
    51   25   26 ar  
    52   25   51 1   
    53   26   27 ar  
    54   27   28 1   
    55   28   52 1   
    56   28   53 1   
@<TRIPOS>SUBSTRUCTURE
     1 TZN         1 TEMP              0 ****  ****    0 ROOT
