@<TRIPOS>MOLECULE
TZN
   53    56     1     0     0
SMALL
bcc


@<TRIPOS>ATOM
      1 CAO         0.1700    0.0720    0.0010 c3        1 TZN     -0.102400
      2 CAQ         1.0290    1.2450    0.4620 c3        1 TZN     -0.107400
      3 CAR         1.2170    1.0460    1.9650 c3        1 TZN      0.121400
      4 OAA         0.7620   -0.2760    2.2900 os        1 TZN     -0.392600
      5 CAJ        -0.1240   -0.7380    1.2710 c3        1 TZN      0.076100
      6 CAP        -1.5690   -0.5240    1.7370 c         1 TZN      0.633100
      7 OAB        -1.8320    0.3060    2.6270 o         1 TZN     -0.582100
      8 NAE        -2.5740   -1.3300    1.2050 n         1 TZN     -0.465800
      9 CAL        -3.9530   -1.1170    1.5880 c3        1 TZN      0.075500
     10 CAN        -4.8320   -0.5150    0.4710 c3        1 TZN      0.171300
     11 CAK        -2.4400   -2.0340   -0.0450 c3        1 TZN      0.075500
     12 CAM        -3.2890   -1.4420   -1.1950 c3        1 TZN      0.171300
     13 NAF        -4.6680   -1.1790   -0.8150 nh        1 TZN     -0.722300
     14 C2         -5.5470   -0.7600   -1.8590 ca        1 TZN      0.898900
     15 N3         -5.2000   -1.1350   -3.1640 nb        1 TZN     -0.818000
     16 N1         -6.6920   -0.1020   -1.5180 nb        1 TZN     -0.777000
     17 C6         -7.5790    0.1810   -2.5260 ca        1 TZN      0.490600
     18 CAW        -8.8030    0.8500   -2.1960 ca        1 TZN     -0.269300
     19 CAY        -9.7090    1.1650   -3.1810 ca        1 TZN      0.154100
     20 OAC       -10.9120    1.8020   -2.9770 os        1 TZN     -0.300900
     21 CBA       -11.2140    2.1510   -1.6290 c3        1 TZN      0.106700
     22 CAZ        -9.4380    0.8320   -4.5550 ca        1 TZN      0.088100
     23 OAD       -10.4310    1.2060   -5.4390 os        1 TZN     -0.300900
     24 CBB       -10.1580    0.9780   -6.8160 c3        1 TZN      0.109700
     25 CAX        -8.2690    0.1860   -4.8900 ca        1 TZN     -0.147000
     26 C5         -7.3280   -0.1550   -3.8890 ca        1 TZN     -0.319600
     27 C4         -6.0670   -0.8330   -4.1540 ca        1 TZN      0.714200
     28 NAI        -5.6970   -1.1270   -5.4650 nv        1 TZN     -0.936500
     29 HAS         0.7220   -0.5620   -0.7360 hc        1 TZN      0.057700
     30 HAT        -0.7730    0.4220   -0.4860 hc        1 TZN      0.057700
     31 HAV         0.5260    2.2200    0.2520 hc        1 TZN      0.056200
     32 HAU         2.0140    1.2470   -0.0660 hc        1 TZN      0.056200
     33 HAX         2.2890    1.0800    2.2820 h1        1 TZN      0.060200
     34 HAW         0.6090    1.7750    2.5590 h1        1 TZN      0.060200
     35 HAJ         0.1030   -1.8330    1.1650 h1        1 TZN      0.087700
     36 HAN        -4.3760   -2.1170    1.8900 h1        1 TZN      0.066950
     37 HAM        -4.0020   -0.4220    2.4740 h1        1 TZN      0.066950
     38 HAR        -5.9020   -0.6330    0.8050 h1        1 TZN      0.060200
     39 HAQ        -4.6120    0.5870    0.3820 h1        1 TZN      0.060200
     40 HAL        -1.3720   -2.0410   -0.3960 h1        1 TZN      0.066950
     41 HAK        -2.7620   -3.1020    0.1300 h1        1 TZN      0.066950
     42 HAO        -2.7900   -0.5020   -1.5700 h1        1 TZN      0.060200
     43 HAP        -3.2750   -2.2040   -2.0260 h1        1 TZN      0.060200
     44 HAY        -8.9950    1.1020   -1.1420 ha        1 TZN      0.161000
     45 HBA       -11.2750    1.2370   -0.9890 h1        1 TZN      0.049033
     46 HBC       -10.4540    2.8630   -1.2260 h1        1 TZN      0.049033
     47 HBB       -12.2160    2.6440   -1.7110 h1        1 TZN      0.049033
     48 HBE        -9.2380    1.5240   -7.1360 h1        1 TZN      0.044367
     49 HBD       -11.0630    1.3930   -7.3290 h1        1 TZN      0.044367
     50 HBF       -10.0570   -0.1150   -7.0220 h1        1 TZN      0.044367
     51 HAZ        -8.0670   -0.0490   -5.9440 ha        1 TZN      0.135000
     52 HBG        -6.4460   -1.2950   -6.0940 hn        1 TZN      0.416300
     53 HAI        -4.8990   -1.7090   -5.5920 hn        1 TZN      0.416300
@<TRIPOS>BOND
     1    1    2 1   
     2    1    5 1   
     3    1   29 1   
     4    1   30 1   
     5    2    3 1   
     6    2   31 1   
     7    2   32 1   
     8    3    4 1   
     9    3   33 1   
    10    3   34 1   
    11    4    5 1   
    12    5    6 1   
    13    5   35 1   
    14    6    7 2   
    15    6    8 1   
    16    8    9 1   
    17    8   11 1   
    18    9   10 1   
    19    9   36 1   
    20    9   37 1   
    21   10   13 1   
    22   10   38 1   
    23   10   39 1   
    24   11   12 1   
    25   11   40 1   
    26   11   41 1   
    27   12   13 1   
    28   12   42 1   
    29   12   43 1   
    30   13   14 1   
    31   14   15 ar  
    32   14   16 ar  
    33   15   27 ar  
    34   16   17 ar  
    35   17   18 ar  
    36   17   26 ar  
    37   18   19 ar  
    38   18   44 1   
    39   19   20 1   
    40   19   22 ar  
    41   20   21 1   
    42   21   45 1   
    43   21   46 1   
    44   21   47 1   
    45   22   23 1   
    46   22   25 ar  
    47   23   24 1   
    48   24   48 1   
    49   24   49 1   
    50   24   50 1   
    51   25   26 ar  
    52   25   51 1   
    53   26   27 ar  
    54   27   28 1   
    55   28   52 1   
    56   28   53 1   
@<TRIPOS>SUBSTRUCTURE
     1 TZN         1 TEMP              0 ****  ****    0 ROOT
