@<TRIPOS>MOLECULE
TZO
   10    10     1     0     0
SMALL
bcc


@<TRIPOS>ATOM
      1 C2          1.6470   -1.1310    0.2140 cc        1 TZO      0.379300
      2 N1          0.3390   -1.2520    0.3620 nd        1 TZO     -0.612000
      3 S3          2.1840    0.4140   -0.3280 ss        1 TZO     -0.304300
      4 C5         -0.2900   -0.0490    0.0280 cd        1 TZO      0.339800
      5 C4          0.5760    0.9550   -0.3680 cc        1 TZO     -0.218400
      6 C6         -1.8150    0.1220    0.1010 c         1 TZO      0.839100
      7 O7         -2.2880    0.5430    1.1870 o         1 TZO     -0.809300
      8 O61        -2.4660   -0.1410   -0.9420 o         1 TZO     -0.809300
      9 HC21        2.3390   -1.9480    0.4190 h5        1 TZO      0.024100
     10 HC41        0.2870    1.9570   -0.6660 h4        1 TZO      0.170000
@<TRIPOS>BOND
     1    1    2 2   
     2    1    3 1   
     3    1    9 1   
     4    2    4 1   
     5    3    5 1   
     6    4    5 2   
     7    4    6 1   
     8    5   10 1   
     9    6    7 1   
    10    6    8 1   
@<TRIPOS>SUBSTRUCTURE
     1 TZO         1 TEMP              0 ****  ****    0 ROOT
