@<TRIPOS>MOLECULE
TZO
   10     7     1     0     0
SMALL
bcc


@<TRIPOS>ATOM
      1 C2         -1.5160    0.0000   -1.4050 c1        1 TZO      0.215900
      2 N1         -0.0880    0.0000   -1.4050 n1        1 TZO     -0.491600
      3 S3         -1.9900    0.0000    0.0640 ss        1 TZO     -0.170200
      4 C5          0.4090    0.0000    0.0840 cg        1 TZO      0.001800
      5 C4         -0.7480    0.0000    0.9480 c1        1 TZO     -0.197900
      6 C6          1.8520   -0.0000    0.5370 c1        1 TZO      0.865000
      7 O7          2.4940   -1.0820    0.5920 o         1 TZO     -0.777500
      8 O61         2.4130    1.0810    0.8550 o         1 TZO     -0.777500
      9 HC21       -2.0900    0.0000   -2.1940 DU        1 TZO      0.165500
     10 HC41       -0.7360    0.0000    1.9240 DU        1 TZO      0.165500
@<TRIPOS>BOND
     1    1    2 3   
     2    1    3 1   
     3    2    4 1   
     4    3    5 1   
     5    4    5 3   
     6    6    7 2   
     7    6    8 2   
@<TRIPOS>SUBSTRUCTURE
     1 TZO         1 TEMP              0 ****  ****    0 ROOT
