@<TRIPOS>MOLECULE
TZP
   21    18     1     0     0
SMALL
bcc


@<TRIPOS>ATOM
      1 N3          0.3220   -0.7410   -3.4240 n2        1 TZP     -0.125000
      2 C2         -0.1200    0.6070   -3.3510 c1        1 TZP     -0.445000
      3 S1         -0.3580    0.9530   -1.8530 ss        1 TZP      0.501000
      4 C5         -0.0240   -0.2880   -1.0380 c1        1 TZP     -0.254000
      5 C4          0.3890   -1.3240   -1.9590 c1        1 TZP     -0.174000
      6 CM4         0.7830   -2.7590   -1.5810 c2        1 TZP     -0.129000
      7 C6         -0.2550   -0.4610    0.4460 c2        1 TZP     -0.197000
      8 C7         -0.4050    0.9230    1.1060 c3        1 TZP      0.108000
      9 O7         -0.4870    0.7660    2.5190 os        1 TZP     -0.711000
     10 P1         -0.2620    2.0390    3.4470 p5        1 TZP      1.543500
     11 O1         -1.1640    3.1620    2.9960 o         1 TZP     -0.929500
     12 O2          1.1660    2.4780    3.3550 o         1 TZP     -0.929500
     13 O3         -0.5890    1.6760    4.8840 o         1 TZP     -0.929500
     14 H21        -0.1880    1.2440   -4.1180 DU        1 TZP      0.152000
     15 HM41        1.1380   -3.2350   -2.3970 ha        1 TZP      0.075667
     16 HM42        1.4880   -2.7380   -0.8750 ha        1 TZP      0.075667
     17 HM43       -0.0030   -3.2340   -1.2410 ha        1 TZP      0.075667
     18 H61         0.5120   -0.9350    0.8460 ha        1 TZP      0.128500
     19 H62        -1.0670   -0.9780    0.5890 ha        1 TZP      0.128500
     20 H71         0.3720    1.4780    0.8810 h1        1 TZP      0.018000
     21 H72        -1.2460    1.3660    0.7680 h1        1 TZP      0.018000
@<TRIPOS>BOND
     1    1    2 1   
     2    1    5 1   
     3    2    3 1   
     4    3    4 1   
     5    4    5 1   
     6    6   15 1   
     7    6   16 1   
     8    6   17 1   
     9    7    8 1   
    10    7   18 1   
    11    7   19 1   
    12    8    9 1   
    13    8   20 1   
    14    8   21 1   
    15    9   10 1   
    16   10   11 1   
    17   10   12 1   
    18   10   13 1   
@<TRIPOS>SUBSTRUCTURE
     1 TZP         1 TEMP              0 ****  ****    0 ROOT
