@<TRIPOS>MOLECULE
TZP
   21    21     1     0     0
SMALL
bcc


@<TRIPOS>ATOM
      1 N3          0.4810   -0.2720    3.9430 nc        1 TZP     -0.655000
      2 C2         -0.5990   -0.9650    3.5760 cd        1 TZP      0.245300
      3 S1         -0.9620   -0.9400    1.9220 ss        1 TZP      0.000700
      4 C5          0.3690    0.0420    1.6120 cd        1 TZP     -0.076700
      5 C4          1.0440    0.3120    2.8130 cc        1 TZP      0.237600
      6 CM4         2.2630    1.1490    2.8820 c3        1 TZP     -0.096400
      7 C6          0.7100    0.5130    0.2690 c3        1 TZP     -0.113100
      8 C7          0.4870   -0.5810   -0.8080 c3        1 TZP      0.255400
      9 O7          0.6220   -0.0860   -2.0690 os        1 TZP     -0.550200
     10 P1         -0.9190    0.2190   -2.8570 p5        1 TZP      1.310900
     11 O1         -0.5120    0.6830   -4.2240 o         1 TZP     -0.929500
     12 O2         -1.4560    1.2550   -1.9020 o         1 TZP     -0.929500
     13 O3         -1.5690   -1.1350   -2.7560 o         1 TZP     -0.929500
     14 H21        -1.1910   -1.5020    4.3170 h5        1 TZP      0.015100
     15 HM41        3.1000    0.6390    2.3410 hc        1 TZP      0.029700
     16 HM42        2.0710    2.1300    2.3780 hc        1 TZP      0.029700
     17 HM43        2.5830    1.3420    3.9340 hc        1 TZP      0.029700
     18 H61         0.0430    1.3810   -0.0200 hc        1 TZP      0.083200
     19 H62         1.7720    0.8660    0.2340 hc        1 TZP      0.083200
     20 H71         1.2610   -1.3880   -0.6250 h1        1 TZP     -0.019300
     21 H72        -0.5420   -1.0260   -0.6480 h1        1 TZP     -0.019300
@<TRIPOS>BOND
     1    1    2 2   
     2    1    5 1   
     3    2    3 1   
     4    2   14 1   
     5    3    4 1   
     6    4    5 2   
     7    4    7 1   
     8    5    6 1   
     9    6   15 1   
    10    6   16 1   
    11    6   17 1   
    12    7    8 1   
    13    7   18 1   
    14    7   19 1   
    15    8    9 1   
    16    8   20 1   
    17    8   21 1   
    18    9   10 1   
    19   10   11 1   
    20   10   12 1   
    21   10   13 1   
@<TRIPOS>SUBSTRUCTURE
     1 TZP         1 TEMP              0 ****  ****    0 ROOT
