@<TRIPOS>MOLECULE
TZP
   21    21     1     0     0
SMALL
bcc


@<TRIPOS>ATOM
      1 N3         -0.3160    0.1410    0.0260 nc        1 TZP     -0.647000
      2 C2          0.9370    0.5590    0.1000 cd        1 TZP      0.325300
      3 S1          1.6040    0.5910    1.6770 ss        1 TZP     -0.273300
      4 C5          0.1330    0.0170    2.3320 cd        1 TZP     -0.039700
      5 C4         -0.7910   -0.1780    1.3030 cc        1 TZP      0.316600
      6 CM4        -2.1680   -0.6830    1.5190 c3        1 TZP     -0.165400
      7 C6         -0.0710   -0.2060    3.7630 c3        1 TZP     -0.096100
      8 C7         -0.0160   -1.7080    4.1600 c3        1 TZP      0.262400
      9 O7         -0.4450   -1.8860    5.4420 os        1 TZP     -0.557200
     10 P1         -2.0530   -2.5790    5.5420 p5        1 TZP      1.318900
     11 O1         -2.4060   -2.3980    6.9880 o         1 TZP     -0.930500
     12 O2         -1.8170   -3.9800    5.0560 o         1 TZP     -0.930500
     13 O3         -2.7420   -1.6670    4.5500 o         1 TZP     -0.930500
     14 H21         1.5010    0.8550   -0.7830 h5        1 TZP      0.012100
     15 HM41       -2.9130    0.0990    1.2310 hc        1 TZP      0.076033
     16 HM42       -2.3310   -0.9670    2.6080 hc        1 TZP      0.076033
     17 HM43       -2.3490   -1.5920    0.8940 hc        1 TZP      0.076033
     18 H61         0.6910    0.3540    4.3640 hc        1 TZP      0.068200
     19 H62        -1.0950    0.1640    4.0580 hc        1 TZP      0.068200
     20 H71         1.0650   -2.0320    4.0640 h1        1 TZP     -0.014800
     21 H72        -0.6420   -2.2940    3.4290 h1        1 TZP     -0.014800
@<TRIPOS>BOND
     1    1    2 2   
     2    1    5 1   
     3    2    3 1   
     4    2   14 1   
     5    3    4 1   
     6    4    5 2   
     7    4    7 1   
     8    5    6 1   
     9    6   15 1   
    10    6   16 1   
    11    6   17 1   
    12    7    8 1   
    13    7   18 1   
    14    7   19 1   
    15    8    9 1   
    16    8   20 1   
    17    8   21 1   
    18    9   10 1   
    19   10   11 1   
    20   10   12 1   
    21   10   13 1   
@<TRIPOS>SUBSTRUCTURE
     1 TZP         1 TEMP              0 ****  ****    0 ROOT
