@<TRIPOS>MOLECULE
TZY
   39    42     1     0     0
SMALL
bcc


@<TRIPOS>ATOM
      1 C7          1.6510   -0.6000    0.0990 cc        1 TZY     -0.031300
      2 C9         -1.2540   -3.5670    0.3150 cc        1 TZY      0.495300
      3 C13         0.8380    1.7640   -1.2390 cc        1 TZY     -0.078000
      4 C21         4.8200   -0.4890    0.7720 c3        1 TZY     -0.053000
      5 C8         -0.0670    0.7800   -0.9650 cd        1 TZY     -0.112000
      6 C18        -4.9210    1.5870    0.1910 ca        1 TZY      0.136900
      7 C16         2.2010    1.5890   -0.8370 cc        1 TZY     -0.083300
      8 F22        -5.8440    2.5770    0.2100 f         1 TZY     -0.136900
      9 C15        -5.2280    0.3520   -0.4090 ca        1 TZY     -0.171500
     10 C11        -4.2750   -0.6610   -0.4240 ca        1 TZY     -0.081000
     11 C14        -3.6580    1.7960    0.7750 ca        1 TZY     -0.171500
     12 C10        -2.7150    0.7750    0.7500 ca        1 TZY     -0.081000
     13 C5         -3.0100   -0.4570    0.1470 ca        1 TZY     -0.141500
     14 C2         -2.0260   -1.5240    0.1420 cd        1 TZY      0.322500
     15 N6         -2.3850   -2.8790    0.3420 nd        1 TZY     -0.659000
     16 O4         -0.1320   -2.7600    0.1010 os        1 TZY     -0.391800
     17 C1         -0.6370   -1.4510   -0.0180 cd        1 TZY      0.223900
     18 C3          0.3310   -0.4200   -0.2840 cd        1 TZY     -0.156500
     19 N12         2.5770    0.3780   -0.1630 na        1 TZY     -0.078200
     20 C17         3.9570    0.5200    0.0850 cc        1 TZY      0.300800
     21 C24         5.9170   -0.9580   -0.1660 c3        1 TZY     -0.092100
     22 C23         5.4100    0.1070    2.0360 c3        1 TZY     -0.092100
     23 N19         3.3290    2.3690   -0.9550 nd        1 TZY     -0.075000
     24 N20         4.3420    1.7390   -0.4170 nd        1 TZY     -0.338700
     25 H7          2.0050   -1.5130    0.6110 h4        1 TZY      0.181000
     26 H9         -1.0610   -4.6360    0.4310 h5        1 TZY      0.093100
     27 H13         0.5700    2.6940   -1.7620 ha        1 TZY      0.172000
     28 H21         4.1880   -1.3790    1.0570 hc        1 TZY      0.047700
     29 H8         -1.1230    0.8810   -1.2640 ha        1 TZY      0.161000
     30 H15        -6.2200    0.1960   -0.8590 ha        1 TZY      0.154000
     31 H11        -4.5210   -1.6300   -0.8850 ha        1 TZY      0.150500
     32 H14        -3.4290    2.7610    1.2500 ha        1 TZY      0.154000
     33 H10        -1.7270    0.9340    1.2110 ha        1 TZY      0.150500
     34 H241        6.5370   -1.7350    0.3440 hc        1 TZY      0.046867
     35 H242        5.4780   -1.4000   -1.0920 hc        1 TZY      0.046867
     36 H243        6.5780   -0.1060   -0.4560 hc        1 TZY      0.046867
     37 H231        6.0600    0.9820    1.7930 hc        1 TZY      0.046867
     38 H232        4.6000    0.4470    2.7250 hc        1 TZY      0.046867
     39 H233        6.0270   -0.6630    2.5590 hc        1 TZY      0.046867
@<TRIPOS>BOND
     1    1   18 2   
     2    1   19 1   
     3    1   25 1   
     4    2   15 2   
     5    2   16 1   
     6    2   26 1   
     7    3    5 2   
     8    3    7 1   
     9    3   27 1   
    10    4   20 1   
    11    4   21 1   
    12    4   22 1   
    13    4   28 1   
    14    5   18 1   
    15    5   29 1   
    16    6    8 1   
    17    6    9 ar  
    18    6   11 ar  
    19    7   19 1   
    20    7   23 2   
    21    9   10 ar  
    22    9   30 1   
    23   10   13 ar  
    24   10   31 1   
    25   11   12 ar  
    26   11   32 1   
    27   12   13 ar  
    28   12   33 1   
    29   13   14 1   
    30   14   15 1   
    31   14   17 2   
    32   16   17 1   
    33   17   18 1   
    34   19   20 1   
    35   20   24 2   
    36   21   34 1   
    37   21   35 1   
    38   21   36 1   
    39   22   37 1   
    40   22   38 1   
    41   22   39 1   
    42   23   24 1   
@<TRIPOS>SUBSTRUCTURE
     1 TZY         1 TEMP              0 ****  ****    0 ROOT
