@<TRIPOS>MOLECULE
TZY
   39    32     1     0     0
SMALL
bcc


@<TRIPOS>ATOM
      1 C7         -0.6380   -0.6050   -0.0690 c1        1 TZY     -0.007000
      2 C9          1.5400   -1.8240   -3.2610 c1        1 TZY     -0.034000
      3 C13         0.6680   -0.5140    2.3540 c1        1 TZY     -0.086000
      4 C21        -4.0150   -0.9170    0.5760 c3        1 TZY     -0.017000
      5 C8          1.3970   -0.5410    1.1920 c1        1 TZY     -0.112000
      6 C18         4.4830    3.1080   -0.7190 c1        1 TZY      0.102000
      7 C16        -0.7440   -0.5330    2.3020 c1        1 TZY     -0.046500
      8 F22         5.2500    4.1190   -0.2760 f         1 TZY     -0.102000
      9 C15         5.0120    1.8240   -0.6360 c2        1 TZY     -0.172000
     10 C11         4.2440    0.7290   -1.0190 c1        1 TZY     -0.068000
     11 C14         3.1860    3.2970   -1.1850 c1        1 TZY     -0.171000
     12 C10         2.4180    2.2030   -1.5680 c1        1 TZY     -0.086000
     13 C5          2.9460    0.9180   -1.4850 c1        1 TZY     -0.046500
     14 C2          2.2140   -0.1750   -1.9830 c1        1 TZY     -0.048000
     15 N6          2.3740   -0.7480   -3.1910 n2        1 TZY     -0.133000
     16 O4          0.8600   -1.9100   -2.0790 os        1 TZY     -0.133000
     17 C1          1.2680   -0.9010   -1.2890 c2        1 TZY     -0.013000
     18 C3          0.7550   -0.5860   -0.0190 c1        1 TZY     -0.049000
     19 N12        -1.3760   -0.5780    1.1080 n1        1 TZY     -0.088000
     20 C17        -2.7230   -0.5850    1.3440 c1        1 TZY     -0.101000
     21 C24        -4.7440   -2.0760    1.2750 c3        1 TZY     -0.210000
     22 C23        -4.9290    0.3230    0.5480 c3        1 TZY     -0.210000
     23 N19        -1.6920   -0.5120    3.2800 n1        1 TZY     -0.075000
     24 N20        -2.9130   -0.5440    2.6830 n2        1 TZY     -0.051000
     25 H7         -1.0970   -0.6380   -0.9340 ha        1 TZY      0.181000
     26 H9          1.4450   -2.4310   -4.0260 DU        1 TZY      0.230000
     27 H13         1.1270   -0.4820    3.2210 ha        1 TZY      0.158500
     28 H21        -3.7910   -1.1790   -0.3440 hc        1 TZY      0.087000
     29 H8          2.3770   -0.5280    1.2270 ha        1 TZY      0.161000
     30 H15         5.9280    1.6910   -0.3070 ha        1 TZY      0.154000
     31 H11         4.6170   -0.1770   -0.9600 ha        1 TZY      0.156000
     32 H14         2.8130    4.2040   -1.2430 ha        1 TZY      0.154000
     33 H10         1.5030    2.3370   -1.8970 ha        1 TZY      0.158500
     34 H241       -5.1460   -1.7530    2.1120 hc        1 TZY      0.086167
     35 H242       -5.4510   -2.4230    0.6840 hc        1 TZY      0.086167
     36 H243       -4.1030   -2.7930    1.4760 hc        1 TZY      0.086167
     37 H231       -4.1340    0.7140    0.9680 hc        1 TZY      0.086167
     38 H232       -5.3590    0.8350    1.2720 hc        1 TZY      0.086167
     39 H233       -5.5710   -0.3480    0.8670 hc        1 TZY      0.086167
@<TRIPOS>BOND
     1    1   19 1   
     2    1   25 1   
     3    2   15 1   
     4    2   16 1   
     5    3    7 1   
     6    3   27 1   
     7    4   20 1   
     8    4   21 1   
     9    4   22 1   
    10    4   28 1   
    11    5   18 1   
    12    5   29 1   
    13    6    9 1   
    14    6   11 1   
    15    9   10 1   
    16    9   30 1   
    17   10   31 1   
    18   11   32 1   
    19   12   13 1   
    20   12   33 1   
    21   14   15 1   
    22   14   17 1   
    23   16   17 1   
    24   17   18 1   
    25   20   24 1   
    26   21   34 1   
    27   21   35 1   
    28   21   36 1   
    29   22   37 1   
    30   22   38 1   
    31   22   39 1   
    32   23   24 1   
@<TRIPOS>SUBSTRUCTURE
     1 TZY         1 TEMP              0 ****  ****    0 ROOT
