@<TRIPOS>MOLECULE
TZY
   39    42     1     0     0
SMALL
bcc


@<TRIPOS>ATOM
      1 C7         -0.1320    0.1320    0.0650 cc        1 TZY     -0.031300
      2 C9          2.4450   -0.0580   -3.1930 cc        1 TZY      0.495300
      3 C13         1.1520    0.2670    2.5900 cc        1 TZY     -0.078000
      4 C21        -3.3310   -0.2350    0.4390 c3        1 TZY     -0.053000
      5 C8          1.8800    0.3580    1.4390 cd        1 TZY     -0.112000
      6 C18         6.0280    3.1930    0.8830 ca        1 TZY      0.136900
      7 C16        -0.2690    0.1090    2.5050 cc        1 TZY     -0.083300
      8 F22         6.9060    3.9210    1.6120 f         1 TZY     -0.136900
      9 C15         6.5000    2.2480   -0.0460 ca        1 TZY     -0.171500
     10 C11         5.5930    1.5040   -0.7920 ca        1 TZY     -0.081000
     11 C14         4.6440    3.3850    1.0560 ca        1 TZY     -0.171500
     12 C10         3.7500    2.6320    0.3050 ca        1 TZY     -0.081000
     13 C5          4.2120    1.6830   -0.6180 ca        1 TZY     -0.141500
     14 C2          3.2710    0.9140   -1.4130 cd        1 TZY      0.322500
     15 N6          3.5070    0.6130   -2.7750 nd        1 TZY     -0.659000
     16 O4          1.4880   -0.2410   -2.1890 os        1 TZY     -0.391800
     17 C1          2.0300    0.3780   -1.0460 cd        1 TZY      0.223900
     18 C3          1.2410    0.2950    0.1540 cd        1 TZY     -0.156500
     19 N12        -0.8840    0.0430    1.2090 na        1 TZY     -0.078200
     20 C17        -2.2600   -0.1150    1.4740 cc        1 TZY      0.300800
     21 C24        -4.0330   -1.5740    0.5710 c3        1 TZY     -0.092100
     22 C23        -4.3190    0.9080    0.5790 c3        1 TZY     -0.092100
     23 N19        -1.2640   -0.0070    3.4470 nd        1 TZY     -0.075000
     24 N20        -2.4150   -0.1370    2.8380 nd        1 TZY     -0.338700
     25 H7         -0.6630    0.0630   -0.9010 h4        1 TZY      0.181000
     26 H9          2.1990   -0.4780   -4.1710 h5        1 TZY      0.093100
     27 H13         1.6080    0.3060    3.5900 ha        1 TZY      0.172000
     28 H21        -2.8610   -0.1780   -0.5850 hc        1 TZY      0.047700
     29 H8          2.9760    0.4760    1.4680 ha        1 TZY      0.161000
     30 H15         7.5830    2.1080   -0.1780 ha        1 TZY      0.154000
     31 H11         5.9650    0.7720   -1.5270 ha        1 TZY      0.150500
     32 H14         4.2830    4.1310    1.7790 ha        1 TZY      0.154000
     33 H10         2.6660    2.7850    0.4340 ha        1 TZY      0.150500
     34 H241       -3.3040   -2.4120    0.4630 hc        1 TZY      0.046867
     35 H242       -4.5300   -1.6610    1.5670 hc        1 TZY      0.046867
     36 H243       -4.8100   -1.6690   -0.2250 hc        1 TZY      0.046867
     37 H231       -3.7990    1.8900    0.4760 hc        1 TZY      0.046867
     38 H232       -4.8220    0.8740    1.5750 hc        1 TZY      0.046867
     39 H233       -5.0980    0.8280   -0.2180 hc        1 TZY      0.046867
@<TRIPOS>BOND
     1    1   18 2   
     2    1   19 1   
     3    1   25 1   
     4    2   15 2   
     5    2   16 1   
     6    2   26 1   
     7    3    5 2   
     8    3    7 1   
     9    3   27 1   
    10    4   20 1   
    11    4   21 1   
    12    4   22 1   
    13    4   28 1   
    14    5   18 1   
    15    5   29 1   
    16    6    8 1   
    17    6    9 ar  
    18    6   11 ar  
    19    7   19 1   
    20    7   23 2   
    21    9   10 ar  
    22    9   30 1   
    23   10   13 ar  
    24   10   31 1   
    25   11   12 ar  
    26   11   32 1   
    27   12   13 ar  
    28   12   33 1   
    29   13   14 1   
    30   14   15 1   
    31   14   17 2   
    32   16   17 1   
    33   17   18 1   
    34   19   20 1   
    35   20   24 2   
    36   21   34 1   
    37   21   35 1   
    38   21   36 1   
    39   22   37 1   
    40   22   38 1   
    41   22   39 1   
    42   23   24 1   
@<TRIPOS>SUBSTRUCTURE
     1 TZY         1 TEMP              0 ****  ****    0 ROOT
