@<TRIPOS>MOLECULE
TZY
   39    42     1     0     0
SMALL
bcc


@<TRIPOS>ATOM
      1 C7         -0.1320    0.1320    0.0650 cc        1 TZY     -0.031300
      2 C9          2.4490   -0.0700   -3.1890 cc        1 TZY      0.495300
      3 C13         1.1480    0.2730    2.5910 cc        1 TZY     -0.078000
      4 C21        -3.3320   -0.2330    0.4360 c3        1 TZY     -0.053000
      5 C8          1.8780    0.3600    1.4410 cd        1 TZY     -0.112000
      6 C18         6.0290    3.1910    0.8830 ca        1 TZY      0.136900
      7 C16        -0.2720    0.1160    2.5050 cc        1 TZY     -0.083300
      8 F22         6.9070    3.9200    1.6110 f         1 TZY     -0.136900
      9 C15         6.5020    2.2420   -0.0420 ca        1 TZY     -0.171500
     10 C11         5.5950    1.4970   -0.7870 ca        1 TZY     -0.081000
     11 C14         4.6450    3.3840    1.0540 ca        1 TZY     -0.171500
     12 C10         3.7510    2.6300    0.3030 ca        1 TZY     -0.081000
     13 C5          4.2140    1.6780   -0.6170 ca        1 TZY     -0.141500
     14 C2          3.2730    0.9070   -1.4100 cd        1 TZY      0.322500
     15 N6          3.5110    0.6020   -2.7710 nd        1 TZY     -0.659000
     16 O4          1.4910   -0.2490   -2.1860 os        1 TZY     -0.391800
     17 C1          2.0310    0.3730   -1.0430 cd        1 TZY      0.223900
     18 C3          1.2410    0.2940    0.1560 cd        1 TZY     -0.156500
     19 N12        -0.8860    0.0460    1.2090 na        1 TZY     -0.078200
     20 C17        -2.2620   -0.1110    1.4720 cc        1 TZY      0.300800
     21 C24        -4.0390   -1.5680    0.5750 c3        1 TZY     -0.092100
     22 C23        -4.3160    0.9140    0.5680 c3        1 TZY     -0.092100
     23 N19        -1.2690    0.0040    3.4470 nd        1 TZY     -0.075000
     24 N20        -2.4190   -0.1270    2.8370 nd        1 TZY     -0.338700
     25 H7         -0.6620    0.0590   -0.9010 h4        1 TZY      0.181000
     26 H9          2.2040   -0.4930   -4.1650 h5        1 TZY      0.093100
     27 H13         1.6030    0.3160    3.5920 ha        1 TZY      0.172000
     28 H21        -2.8590   -0.1830   -0.5870 hc        1 TZY      0.047700
     29 H8          2.9740    0.4780    1.4720 ha        1 TZY      0.161000
     30 H15         7.5850    2.1010   -0.1720 ha        1 TZY      0.154000
     31 H11         5.9670    0.7620   -1.5190 ha        1 TZY      0.150500
     32 H14         4.2840    4.1330    1.7730 ha        1 TZY      0.154000
     33 H10         2.6680    2.7840    0.4300 ha        1 TZY      0.150500
     34 H241       -3.3120   -2.4090    0.4730 hc        1 TZY      0.046867
     35 H242       -4.5380   -1.6480    1.5700 hc        1 TZY      0.046867
     36 H243       -4.8140   -1.6650   -0.2230 hc        1 TZY      0.046867
     37 H231       -3.7930    1.8940    0.4600 hc        1 TZY      0.046867
     38 H232       -4.8210    0.8870    1.5630 hc        1 TZY      0.046867
     39 H233       -5.0940    0.8320   -0.2300 hc        1 TZY      0.046867
@<TRIPOS>BOND
     1    1   18 2   
     2    1   19 1   
     3    1   25 1   
     4    2   15 2   
     5    2   16 1   
     6    2   26 1   
     7    3    5 2   
     8    3    7 1   
     9    3   27 1   
    10    4   20 1   
    11    4   21 1   
    12    4   22 1   
    13    4   28 1   
    14    5   18 1   
    15    5   29 1   
    16    6    8 1   
    17    6    9 ar  
    18    6   11 ar  
    19    7   19 1   
    20    7   23 2   
    21    9   10 ar  
    22    9   30 1   
    23   10   13 ar  
    24   10   31 1   
    25   11   12 ar  
    26   11   32 1   
    27   12   13 ar  
    28   12   33 1   
    29   13   14 1   
    30   14   15 1   
    31   14   17 2   
    32   16   17 1   
    33   17   18 1   
    34   19   20 1   
    35   20   24 2   
    36   21   34 1   
    37   21   35 1   
    38   21   36 1   
    39   22   37 1   
    40   22   38 1   
    41   22   39 1   
    42   23   24 1   
@<TRIPOS>SUBSTRUCTURE
     1 TZY         1 TEMP              0 ****  ****    0 ROOT
