@<TRIPOS>MOLECULE
TZZ
   17    16     1     0     0
SMALL
bcc


@<TRIPOS>ATOM
      1 C          -0.2480    0.0340   -0.5650 c3        1 TZZ      0.159033
      2 O1          1.1620    0.0160   -0.5680 os        1 TZZ     -0.574533
      3 P           1.9330   -0.0030    0.8270 p5        1 TZZ      1.617500
      4 O           3.3880   -0.0210    0.8030 o         1 TZZ     -0.802300
      5 O2          1.2710    1.2440    1.5840 os        1 TZZ     -0.574533
      6 C1          2.1190    2.2040    2.1680 c3        1 TZZ      0.159033
      7 O3          1.2400   -1.2440    1.5660 os        1 TZZ     -0.574533
      8 C2          2.0640   -2.2340    2.1350 c3        1 TZZ      0.159033
      9 H1         -0.6060   -0.8720   -1.1200 h1        1 TZZ      0.047811
     10 H2         -0.5830    0.9560   -1.1080 h1        1 TZZ      0.047811
     11 H3         -0.6360    0.0320    0.4850 h1        1 TZZ      0.047811
     12 H11         1.8740    3.2010    1.7160 h1        1 TZZ      0.047811
     13 H12         1.8960    2.2410    3.2670 h1        1 TZZ      0.047811
     14 H13         3.1940    1.9420    1.9890 h1        1 TZZ      0.047811
     15 H21         1.7930   -3.2170    1.6680 h1        1 TZZ      0.047811
     16 H22         1.8420   -2.2820    3.2330 h1        1 TZZ      0.047811
     17 H23         3.1450   -1.9970    1.9580 h1        1 TZZ      0.047811
@<TRIPOS>BOND
     1    1    2 1   
     2    1    9 1   
     3    1   10 1   
     4    1   11 1   
     5    2    3 1   
     6    3    4 2   
     7    3    5 1   
     8    3    7 1   
     9    5    6 1   
    10    6   12 1   
    11    6   13 1   
    12    6   14 1   
    13    7    8 1   
    14    8   15 1   
    15    8   16 1   
    16    8   17 1   
@<TRIPOS>SUBSTRUCTURE
     1 TZZ         1 TEMP              0 ****  ****    0 ROOT
