@<TRIPOS>MOLECULE
TZZ
   17    16     1     0     0
SMALL
bcc


@<TRIPOS>ATOM
      1 C           0.0010    2.7370   -0.0240 c3        1 TZZ      0.150700
      2 O1          0.0010    1.7890   -1.0690 os        1 TZZ     -0.570200
      3 P           0.0000    0.2610   -0.6170 p5        1 TZZ      1.607500
      4 O           0.0010   -0.7590   -1.6540 o         1 TZZ     -0.801300
      5 O2          1.2480    0.2090    0.3890 os        1 TZZ     -0.570200
      6 C1          2.1980   -0.8170    0.2280 c3        1 TZZ      0.150700
      7 O3         -1.2480    0.2100    0.3880 os        1 TZZ     -0.570200
      8 C2         -2.1990   -0.8160    0.2260 c3        1 TZZ      0.150700
      9 H1          0.0010    3.7450   -0.5090 h1        1 TZZ      0.050256
     10 H2         -0.9200    2.5930    0.5960 h1        1 TZZ      0.050256
     11 H3          0.9200    2.5930    0.5970 h1        1 TZZ      0.050256
     12 H11         1.9370   -1.4640   -0.6490 h1        1 TZZ      0.050256
     13 H12         3.2010   -0.3370    0.0800 h1        1 TZZ      0.050256
     14 H13         2.2230   -1.4210    1.1740 h1        1 TZZ      0.050256
     15 H21        -3.2020   -0.3350    0.0770 h1        1 TZZ      0.050256
     16 H22        -1.9370   -1.4630   -0.6510 h1        1 TZZ      0.050256
     17 H23        -2.2250   -1.4190    1.1720 h1        1 TZZ      0.050256
@<TRIPOS>BOND
     1    1    2 1   
     2    1    9 1   
     3    1   10 1   
     4    1   11 1   
     5    2    3 1   
     6    3    4 2   
     7    3    5 1   
     8    3    7 1   
     9    5    6 1   
    10    6   12 1   
    11    6   13 1   
    12    6   14 1   
    13    7    8 1   
    14    8   15 1   
    15    8   16 1   
    16    8   17 1   
@<TRIPOS>SUBSTRUCTURE
     1 TZZ         1 TEMP              0 ****  ****    0 ROOT
