@<TRIPOS>MOLECULE
TZZ
   17    16     1     0     0
SMALL
bcc


@<TRIPOS>ATOM
      1 C          -0.2150    0.0050   -0.5970 c3        1 TZZ      0.159033
      2 O1          1.1950    0.0030   -0.5740 os        1 TZZ     -0.574533
      3 P           1.9400   -0.0000    0.8350 p5        1 TZZ      1.617500
      4 O           3.3950   -0.0020    0.8400 o         1 TZZ     -0.802300
      5 O2          1.2490    1.2440    1.5720 os        1 TZZ     -0.574533
      6 C1          2.0760    2.2170    2.1670 c3        1 TZZ      0.159033
      7 O3          1.2460   -1.2440    1.5690 os        1 TZZ     -0.574533
      8 C2          2.0700   -2.2210    2.1600 c3        1 TZZ      0.159033
      9 H1         -0.5500    0.9200   -1.1520 h1        1 TZZ      0.047811
     10 H2         -0.6230    0.0040    0.4450 h1        1 TZZ      0.047811
     11 H3         -0.5520   -0.9080   -1.1550 h1        1 TZZ      0.047811
     12 H11         1.8320    2.2580    3.2610 h1        1 TZZ      0.047811
     13 H12         1.8280    3.2080    1.7040 h1        1 TZZ      0.047811
     14 H13         3.1570    1.9660    2.0090 h1        1 TZZ      0.047811
     15 H21         1.8260   -2.2640    3.2550 h1        1 TZZ      0.047811
     16 H22         1.8190   -3.2110    1.6950 h1        1 TZZ      0.047811
     17 H23         3.1510   -1.9730    2.0030 h1        1 TZZ      0.047811
@<TRIPOS>BOND
     1    1    2 1   
     2    1    9 1   
     3    1   10 1   
     4    1   11 1   
     5    2    3 1   
     6    3    4 2   
     7    3    5 1   
     8    3    7 1   
     9    5    6 1   
    10    6   12 1   
    11    6   13 1   
    12    6   14 1   
    13    7    8 1   
    14    8   15 1   
    15    8   16 1   
    16    8   17 1   
@<TRIPOS>SUBSTRUCTURE
     1 TZZ         1 TEMP              0 ****  ****    0 ROOT
