@<TRIPOS>MOLECULE
X01
   24    25     1     0     0
SMALL
bcc


@<TRIPOS>ATOM
      1 N01         0.1640   -0.9070    0.0050 nb        1 X01     -0.638000
      2 N02         1.9490    0.3040    1.1320 nb        1 X01     -0.709000
      3 N03         0.0240   -0.5290    2.4020 nb        1 X01     -0.707000
      4 N05         6.6120   -0.9570   -2.7080 n1        1 X01     -0.312800
      5 C06         4.1200   -0.2910   -2.5730 ca        1 X01     -0.042000
      6 C07         3.4540    0.1860   -3.7180 ca        1 X01     -0.005000
      7 C09         2.1210    0.5580   -3.6430 ca        1 X01     -0.219000
      8 C10         1.4260    0.4480   -2.4230 ca        1 X01      0.213100
      9 C11         2.0820   -0.0550   -1.2790 cp        1 X01     -0.238500
     10 C12         3.4360   -0.4080   -1.3610 ca        1 X01     -0.013000
     11 C13         1.3610   -0.2290   -0.0040 cp        1 X01      0.817500
     12 C14         1.2290    0.1150    2.2780 ca        1 X01      0.732900
     13 C15        -0.4450   -1.0170    1.2110 ca        1 X01      0.708900
     14 C16         5.4900   -0.6580   -2.6480 cg        1 X01      0.211800
     15 HN04        1.9660   -0.0840    4.2050 hn        1 X01      0.485133
     16 HN0A        2.7100    1.1450    3.3280 hn        1 X01      0.485133
     17 H07         3.9980    0.2680   -4.6740 ha        1 X01      0.171000
     18 H09         1.5990    0.9400   -4.5350 ha        1 X01      0.165000
     19 H12         3.9630   -0.7900   -0.4720 ha        1 X01      0.156000
     20 H15        -1.4210   -1.5590    1.2520 h5        1 X01      0.109100
     21 HO17       -0.2110    1.1150   -3.1560 ho        1 X01      0.451000
     22 N04         1.8150    0.6800    3.5320 n4        1 X01     -0.823300
     23 H043        1.1550    1.3590    3.9330 hn        1 X01      0.485133
     24 O17         0.1310    0.8600   -2.2820 oh        1 X01     -0.485100
@<TRIPOS>BOND
     1    1   11 ar  
     2    1   13 ar  
     3    2   11 ar  
     4    2   12 ar  
     5    3   12 ar  
     6    3   13 ar  
     7    4   14 3   
     8    5    6 ar  
     9    5   10 ar  
    10    5   14 1   
    11    6    7 ar  
    12    6   17 1   
    13    7    8 ar  
    14    7   18 1   
    15    8    9 ar  
    16    8   24 1   
    17    9   10 ar  
    18    9   11 1   
    19   10   19 1   
    20   12   22 1   
    21   13   20 1   
    22   15   22 1   
    23   16   22 1   
    24   21   24 1   
    25   22   23 1   
@<TRIPOS>SUBSTRUCTURE
     1 X01         1 TEMP              0 ****  ****    0 ROOT
