@<TRIPOS>MOLECULE
X01
   23    24     1     0     0
SMALL
bcc


@<TRIPOS>ATOM
      1 N01         0.2770    1.0490    0.0810 nb        1 X01     -0.744000
      2 N02         1.9010   -0.4570    1.0940 nb        1 X01     -0.780000
      3 N03         0.0430    0.4620    2.4290 nb        1 X01     -0.783000
      4 N05         6.5940    1.1810   -2.7140 n1        1 X01     -0.364800
      5 C06         4.1230    0.4420   -2.5650 ca        1 X01     -0.064000
      6 C07         3.4630   -0.0320   -3.7080 ca        1 X01     -0.037000
      7 C09         2.1380   -0.4400   -3.6300 ca        1 X01     -0.229000
      8 C10         1.4560   -0.3700   -2.4020 ca        1 X01      0.189100
      9 C11         2.1070    0.1250   -1.2550 cp        1 X01     -0.174500
     10 C12         3.4430    0.5160   -1.3410 ca        1 X01     -0.019000
     11 C13         1.3890    0.2420    0.0410 cp        1 X01      0.765500
     12 C14         1.1990   -0.3150    2.2950 ca        1 X01      0.900900
     13 C15        -0.3320    1.0980    1.2970 ca        1 X01      0.686900
     14 C16         5.4810    0.8490   -2.6460 cg        1 X01      0.237800
     15 HN04        2.4370   -1.6010    3.3130 hn        1 X01      0.448300
     16 HN0A        1.1500   -0.9670    4.2410 hn        1 X01      0.448300
     17 H07         3.9980   -0.0840   -4.6700 ha        1 X01      0.149000
     18 H09         1.6210   -0.8180   -4.5230 ha        1 X01      0.144000
     19 H12         3.9640    0.8860   -0.4420 ha        1 X01      0.160000
     20 H15        -1.2410    1.7330    1.3700 h5        1 X01      0.058100
     21 HO17       -0.1720   -1.0400   -3.1430 ho        1 X01      0.427000
     22 N04         1.6960   -0.9520    3.4150 nh        1 X01     -0.945500
     23 O17         0.1640   -0.8040   -2.2640 oh        1 X01     -0.474100
@<TRIPOS>BOND
     1    1   11 ar  
     2    1   13 ar  
     3    2   11 ar  
     4    2   12 ar  
     5    3   12 ar  
     6    3   13 ar  
     7    4   14 3   
     8    5    6 ar  
     9    5   10 ar  
    10    5   14 1   
    11    6    7 ar  
    12    6   17 1   
    13    7    8 ar  
    14    7   18 1   
    15    8    9 ar  
    16    8   23 1   
    17    9   10 ar  
    18    9   11 1   
    19   10   19 1   
    20   12   22 1   
    21   13   20 1   
    22   15   22 1   
    23   16   22 1   
    24   21   23 1   
@<TRIPOS>SUBSTRUCTURE
     1 X01         1 TEMP              0 ****  ****    0 ROOT
