@<TRIPOS>MOLECULE
X01
   23    24     1     0     0
SMALL
bcc


@<TRIPOS>ATOM
      1 N01         0.2100    0.9160    0.0700 nb        1 X01     -0.744000
      2 N02         1.9530   -0.4140    1.1310 nb        1 X01     -0.780000
      3 N03         0.0410    0.4220    2.4450 nb        1 X01     -0.783000
      4 N05         6.4740    1.3980   -2.8040 n1        1 X01     -0.364800
      5 C06         4.0680    0.4820   -2.5910 ca        1 X01     -0.064000
      6 C07         3.4370   -0.0940   -3.7040 ca        1 X01     -0.037000
      7 C09         2.1480   -0.5980   -3.5910 ca        1 X01     -0.229000
      8 C10         1.4720   -0.5230   -2.3600 ca        1 X01      0.189100
      9 C11         2.0940    0.0730   -1.2440 cp        1 X01     -0.174500
     10 C12         3.3950    0.5600   -1.3630 ca        1 X01     -0.019000
     11 C13         1.3800    0.1950    0.0530 cp        1 X01      0.765500
     12 C14         1.2510   -0.2710    2.3320 ca        1 X01      0.900900
     13 C15        -0.3910    0.9750    1.2900 ca        1 X01      0.686900
     14 C16         5.3900    0.9860   -2.7070 cg        1 X01      0.237800
     15 HN04        1.2680   -0.8340    4.3070 hn        1 X01      0.448300
     16 HN0A        2.5910   -1.4110    3.3930 hn        1 X01      0.448300
     17 H07         3.9660   -0.1500   -4.6680 ha        1 X01      0.149000
     18 H09         1.6530   -1.0550   -4.4600 ha        1 X01      0.144000
     19 H12         3.8930    1.0100   -0.4890 ha        1 X01      0.160000
     20 H15        -1.3460    1.5420    1.3440 h5        1 X01      0.058100
     21 HO17       -0.1050   -1.3480   -3.0500 ho        1 X01      0.427000
     22 N04         1.8040   -0.8160    3.4740 nv        1 X01     -0.945500
     23 O17         0.2190   -1.0470   -2.1870 oh        1 X01     -0.474100
@<TRIPOS>BOND
     1    1   11 ar  
     2    1   13 ar  
     3    2   11 ar  
     4    2   12 ar  
     5    3   12 ar  
     6    3   13 ar  
     7    4   14 3   
     8    5    6 ar  
     9    5   10 ar  
    10    5   14 1   
    11    6    7 ar  
    12    6   17 1   
    13    7    8 ar  
    14    7   18 1   
    15    8    9 ar  
    16    8   23 1   
    17    9   10 ar  
    18    9   11 1   
    19   10   19 1   
    20   12   22 1   
    21   13   20 1   
    22   15   22 1   
    23   16   22 1   
    24   21   23 1   
@<TRIPOS>SUBSTRUCTURE
     1 X01         1 TEMP              0 ****  ****    0 ROOT
