@<TRIPOS>MOLECULE
X01
   23    24     1     0     0
SMALL
bcc


@<TRIPOS>ATOM
      1 N01        -1.8100   -1.2550   -0.5480 nb        1 X01     -0.807000
      2 N02        -1.4970    0.9900    0.3260 nb        1 X01     -0.788000
      3 N03        -3.7480    0.1840   -0.2900 nb        1 X01     -0.785000
      4 N05         4.2230    2.4670   -0.7940 n1        1 X01     -0.368800
      5 C06         2.6800    0.4760   -0.2230 ca        1 X01     -0.074000
      6 C07         3.2390   -0.7580    0.1550 ca        1 X01     -0.039000
      7 C09         2.4150   -1.8270    0.4550 ca        1 X01     -0.183000
      8 C10         1.0100   -1.6850    0.3810 ca        1 X01      0.210100
      9 C11         0.4410   -0.4490    0.0150 cp        1 X01     -0.243500
     10 C12         1.2920    0.6250   -0.2880 ca        1 X01     -0.008000
     11 C13        -1.0260   -0.2290   -0.0680 cp        1 X01      0.769500
     12 C14        -2.8780    1.1690    0.2010 ca        1 X01      0.914900
     13 C15        -3.1370   -0.9710   -0.6280 ca        1 X01      0.701900
     14 C16         3.5270    1.5710   -0.5370 cg        1 X01      0.239800
     15 HN04       -2.8210    3.0870    0.9430 hn        1 X01      0.455800
     16 HN0A       -4.3850    2.5310    0.5130 hn        1 X01      0.455800
     17 H07         4.3330   -0.8710    0.2080 ha        1 X01      0.150000
     18 H09         2.8300   -2.8020    0.7520 ha        1 X01      0.162000
     19 H12         0.8690    1.5990   -0.5840 ha        1 X01      0.161000
     20 H15        -3.7940   -1.7780   -1.0210 h5        1 X01      0.060100
     21 HO17       -0.6210   -2.7050    0.5230 ho        1 X01      0.455000
     22 N04        -3.4090    2.3800    0.5770 nh        1 X01     -0.947500
     23 O17         0.3210   -2.8130    0.7240 oh        1 X01     -0.492100
@<TRIPOS>BOND
     1    1   11 ar  
     2    1   13 ar  
     3    2   11 ar  
     4    2   12 ar  
     5    3   12 ar  
     6    3   13 ar  
     7    4   14 3   
     8    5    6 ar  
     9    5   10 ar  
    10    5   14 1   
    11    6    7 ar  
    12    6   17 1   
    13    7    8 ar  
    14    7   18 1   
    15    8    9 ar  
    16    8   23 1   
    17    9   10 ar  
    18    9   11 1   
    19   10   19 1   
    20   12   22 1   
    21   13   20 1   
    22   15   22 1   
    23   16   22 1   
    24   21   23 1   
@<TRIPOS>SUBSTRUCTURE
     1 X01         1 TEMP              0 ****  ****    0 ROOT
