@<TRIPOS>MOLECULE
X02
   31    26     1     0     0
SMALL
bcc


@<TRIPOS>ATOM
      1 C1         -5.5020    2.3880   -2.8500 c1        1 X02     -0.160250
      2 C2         -4.2520    1.7840   -2.7710 c1        1 X02     -0.160250
      3 C3         -3.6160    1.5300   -1.4030 c2        1 X02     -0.019000
      4 N4         -2.5160    0.7000   -1.5390 n3        1 X02     -0.261000
      5 C5         -1.5460    0.6100   -0.4660 c2        1 X02     -0.080000
      6 N6         -1.3220    1.5670    0.5270 n2        1 X02     -0.246000
      7 C7         -0.2240    1.0070    1.5160 c1        1 X02      0.208000
      8 C8          0.1690   -0.3010    1.0540 c1        1 X02     -0.605000
      9 S9         -0.6170   -0.6060   -0.1770 ss        1 X02      0.447000
     10 N10         0.2220    1.6310    2.6920 n2        1 X02     -0.339000
     11 C11         1.0870   -1.2490    1.7580 c1        1 X02      0.363000
     12 C12         2.4230   -1.5550    1.1850 c2        1 X02     -0.131000
     13 C13         2.8160   -0.9740    0.0380 c2        1 X02     -0.109000
     14 C14         4.0660   -1.3050   -0.5230 c1        1 X02     -0.137000
     15 C15         4.8810   -2.2200    0.1020 c1        1 X02     -0.160250
     16 C16         4.4840   -2.8140    1.2690 c1        1 X02     -0.160250
     17 C17         3.2690   -2.4980    1.8250 c1        1 X02     -0.082000
     18 O18         0.7380   -1.7760    2.7890 o         1 X02     -0.356000
     19 H1         -5.9840    2.6560   -2.0050 DU        1 X02      0.116000
     20 H1A        -5.9160    2.5560   -3.7280 ha        1 X02      0.130000
     21 H2         -3.7500    1.5060   -3.6440 ha        1 X02      0.130000
     22 H3         -3.3110    2.4410   -0.9830 h4        1 X02      0.102500
     23 H3A        -4.2660    1.1100   -0.8230 h4        1 X02      0.102500
     24 HN4        -2.4460    0.1670   -2.2450 hn        1 X02      0.216000
     25 HN10        0.7930    1.1990    3.2450 hn        1 X02      0.251000
     26 HN1A       -0.0760    2.4340    2.9050 hn        1 X02      0.251000
     27 H13         2.2210   -0.3030   -0.4160 ha        1 X02      0.145000
     28 H14         4.3620   -0.8810   -1.3660 ha        1 X02      0.134000
     29 H15         5.7880   -2.4580   -0.3080 ha        1 X02      0.130000
     30 H16         5.0350   -3.4260    1.6820 ha        1 X02      0.130000
     31 H17         2.9890   -2.9210    2.6600 ha        1 X02      0.149000
@<TRIPOS>BOND
     1    1    2 1   
     2    1   20 1   
     3    2   21 1   
     4    3    4 1   
     5    3   22 1   
     6    3   23 1   
     7    4    5 1   
     8    4   24 1   
     9    5    6 1   
    10    5    9 1   
    11    6    7 1   
    12    7    8 1   
    13    8    9 1   
    14   10   25 1   
    15   10   26 1   
    16   11   12 1   
    17   11   18 1   
    18   12   13 1   
    19   12   17 1   
    20   13   14 1   
    21   13   27 1   
    22   14   28 1   
    23   15   16 1   
    24   15   29 1   
    25   16   30 1   
    26   17   31 1   
@<TRIPOS>SUBSTRUCTURE
     1 X02         1 TEMP              0 ****  ****    0 ROOT
