@<TRIPOS>MOLECULE
X02
   31    32     1     0     0
SMALL
bcc


@<TRIPOS>ATOM
      1 C1         -0.0280   -0.2450   -0.0950 c2        1 X02     -0.200000
      2 C2          1.2970   -0.1760    0.0050 c2        1 X02     -0.192200
      3 C3          2.0070   -0.1420    1.3230 c3        1 X02      0.223000
      4 N4          3.1170   -1.0730    1.3780 nh        1 X02     -0.817900
      5 C5          3.8410   -1.1990    2.5510 cc        1 X02      0.690300
      6 N6          3.7410   -0.3740    3.6170 nd        1 X02     -0.772000
      7 C7          4.7150   -0.7330    4.5730 cd        1 X02      0.729200
      8 C8          5.5130   -1.8570    4.2150 cc        1 X02     -0.421000
      9 S9          5.0820   -2.4140    2.6760 ss        1 X02     -0.137300
     10 N10         4.8630   -0.0250    5.7280 nh        1 X02     -0.941500
     11 C11         6.5090   -2.4730    5.0500 c         1 X02      0.643300
     12 C12         7.2170   -3.6570    4.4970 ca        1 X02     -0.151600
     13 C13         7.4670   -4.7470    5.3400 ca        1 X02     -0.095500
     14 C14         8.1240   -5.8740    4.8490 ca        1 X02     -0.138000
     15 C15         8.5480   -5.9130    3.5210 ca        1 X02     -0.114000
     16 C16         8.3180   -4.8210    2.6840 ca        1 X02     -0.138000
     17 C17         7.6530   -3.6950    3.1680 ca        1 X02     -0.095500
     18 O18         6.7680   -2.0750    6.2030 o         1 X02     -0.595100
     19 H1         -0.6910   -0.3240    0.7780 ha        1 X02      0.117500
     20 H1A        -0.5410   -0.2200   -1.0650 ha        1 X02      0.117500
     21 H2          1.9410   -0.0970   -0.8860 ha        1 X02      0.134000
     22 H3          1.2760   -0.3400    2.1620 h1        1 X02      0.063200
     23 H3A         2.4250    0.8960    1.4800 h1        1 X02      0.063200
     24 HN4         2.9720   -1.9330    0.8910 hn        1 X02      0.420800
     25 HN10        5.5040   -0.3670    6.4080 hn        1 X02      0.455800
     26 HN1A        4.2200    0.6870    5.9650 hn        1 X02      0.455800
     27 H13         7.1450   -4.6990    6.3920 ha        1 X02      0.147000
     28 H14         8.3120   -6.7310    5.5130 ha        1 X02      0.134500
     29 H15         9.0690   -6.8010    3.1350 ha        1 X02      0.132000
     30 H16         8.6630   -4.8450    1.6400 ha        1 X02      0.134500
     31 H17         7.4930   -2.8280    2.5050 ha        1 X02      0.147000
@<TRIPOS>BOND
     1    1    2 2   
     2    1   19 1   
     3    1   20 1   
     4    2    3 1   
     5    2   21 1   
     6    3    4 1   
     7    3   22 1   
     8    3   23 1   
     9    4    5 1   
    10    4   24 1   
    11    5    6 2   
    12    5    9 1   
    13    6    7 1   
    14    7    8 2   
    15    7   10 1   
    16    8    9 1   
    17    8   11 1   
    18   10   25 1   
    19   10   26 1   
    20   11   12 1   
    21   11   18 2   
    22   12   13 ar  
    23   12   17 ar  
    24   13   14 ar  
    25   13   27 1   
    26   14   15 ar  
    27   14   28 1   
    28   15   16 ar  
    29   15   29 1   
    30   16   17 ar  
    31   16   30 1   
    32   17   31 1   
@<TRIPOS>SUBSTRUCTURE
     1 X02         1 TEMP              0 ****  ****    0 ROOT
