@<TRIPOS>MOLECULE
X02
   31    32     1     0     0
SMALL
bcc


@<TRIPOS>ATOM
      1 C1         -0.0350   -0.2650   -0.0940 c2        1 X02     -0.200000
      2 C2          1.2890   -0.1890    0.0060 c2        1 X02     -0.192200
      3 C3          1.9990   -0.1530    1.3230 c3        1 X02      0.222000
      4 N4          3.1130   -1.0800    1.3780 nu        1 X02     -0.817900
      5 C5          3.8370   -1.2030    2.5510 cc        1 X02      0.690300
      6 N6          3.7340   -0.3790    3.6170 nd        1 X02     -0.772000
      7 C7          4.7100   -0.7330    4.5730 cd        1 X02      0.729200
      8 C8          5.5120   -1.8550    4.2150 cc        1 X02     -0.421000
      9 S9          5.0830   -2.4130    2.6760 ss        1 X02     -0.137300
     10 N10         4.8560   -0.0250    5.7280 nv        1 X02     -0.941500
     11 C11         6.5120   -2.4660    5.0490 c         1 X02      0.643300
     12 C12         7.2240   -3.6470    4.4960 ca        1 X02     -0.151600
     13 C13         7.4780   -4.7370    5.3390 ca        1 X02     -0.095500
     14 C14         8.1390   -5.8610    4.8490 ca        1 X02     -0.138000
     15 C15         8.5630   -5.8990    3.5210 ca        1 X02     -0.114000
     16 C16         8.3280   -4.8090    2.6830 ca        1 X02     -0.138000
     17 C17         7.6590   -3.6850    3.1670 ca        1 X02     -0.095500
     18 O18         6.7700   -2.0680    6.2020 o         1 X02     -0.595100
     19 H1         -0.6980   -0.3460    0.7780 ha        1 X02      0.117500
     20 H1A        -0.5490   -0.2410   -1.0650 ha        1 X02      0.117500
     21 H2          1.9320   -0.1070   -0.8860 ha        1 X02      0.134000
     22 H3          1.2690   -0.3540    2.1630 h1        1 X02      0.063200
     23 H3A         2.4130    0.8870    1.4810 h1        1 X02      0.063200
     24 HN4         2.9710   -1.9400    0.8910 hn        1 X02      0.420800
     25 HN10        5.4980   -0.3640    6.4070 hn        1 X02      0.455800
     26 HN1A        4.2100    0.6850    5.9650 hn        1 X02      0.455800
     27 H13         7.1570   -4.6890    6.3920 ha        1 X02      0.147000
     28 H14         8.3310   -6.7170    5.5130 ha        1 X02      0.134500
     29 H15         9.0880   -6.7860    3.1350 ha        1 X02      0.132000
     30 H16         8.6730   -4.8320    1.6390 ha        1 X02      0.134500
     31 H17         7.4950   -2.8180    2.5040 ha        1 X02      0.147000
@<TRIPOS>BOND
     1    1    2 2   
     2    1   19 1   
     3    1   20 1   
     4    2    3 1   
     5    2   21 1   
     6    3    4 1   
     7    3   22 1   
     8    3   23 1   
     9    4    5 1   
    10    4   24 1   
    11    5    6 2   
    12    5    9 1   
    13    6    7 1   
    14    7    8 2   
    15    7   10 1   
    16    8    9 1   
    17    8   11 1   
    18   10   25 1   
    19   10   26 1   
    20   11   12 1   
    21   11   18 2   
    22   12   13 ar  
    23   12   17 ar  
    24   13   14 ar  
    25   13   27 1   
    26   14   15 ar  
    27   14   28 1   
    28   15   16 ar  
    29   15   29 1   
    30   16   17 ar  
    31   16   30 1   
    32   17   31 1   
@<TRIPOS>SUBSTRUCTURE
     1 X02         1 TEMP              0 ****  ****    0 ROOT
