@<TRIPOS>MOLECULE
X02
   33    34     1     0     0
SMALL
bcc


@<TRIPOS>ATOM
      1 C1          0.4660    0.2930   -0.3210 c2        1 X02     -0.061000
      2 C2          1.5740   -0.4410   -0.1890 c2        1 X02     -0.306200
      3 C3          2.4860   -0.3200    0.9750 c3        1 X02      0.173000
      4 N4          2.4170   -1.5790    1.8240 n4        1 X02     -0.722700
      5 C5          3.4090   -1.5970    2.8890 cc        1 X02      0.334300
      6 N6          3.2820   -0.7670    3.9630 nd        1 X02     -0.573000
      7 C7          4.3490   -1.0010    4.8090 cd        1 X02      0.429200
      8 C8          5.2610   -1.9920    4.3600 cc        1 X02     -0.280000
      9 S9          4.7880   -2.6020    2.9150 ss        1 X02      0.388700
     10 N10         4.4900   -0.2640    6.0590 n4        1 X02     -0.801300
     11 C11         6.4550   -2.4720    5.1090 c         1 X02      0.638300
     12 C12         7.2310   -3.5250    4.4580 ca        1 X02     -0.211600
     13 C13         7.8570   -4.4900    5.2590 ca        1 X02     -0.092000
     14 C14         8.5730   -5.5320    4.6630 ca        1 X02     -0.105500
     15 C15         8.6780   -5.6040    3.2760 ca        1 X02     -0.055000
     16 C16         8.0820   -4.6210    2.4740 ca        1 X02     -0.105500
     17 C17         7.3660   -3.5830    3.0580 ca        1 X02     -0.092000
     18 O18         6.6810   -2.0080    6.2340 o         1 X02     -0.515100
     19 H1          0.1100    1.0020    0.4420 ha        1 X02      0.156000
     20 H1A        -0.1570    0.2370   -1.2300 ha        1 X02      0.156000
     21 H2          1.9100   -1.1190   -0.9940 ha        1 X02      0.163000
     22 H3          2.2160    0.5480    1.6430 hx        1 X02      0.113200
     23 H3A         3.5540   -0.2040    0.6320 hx        1 X02      0.113200
     24 HN4         2.5580   -2.4010    1.2210 hn        1 X02      0.474800
     25 HN10        5.2230   -0.7220    6.6440 hn        1 X02      0.497467
     26 HN1A        3.5980   -0.2540    6.5740 hn        1 X02      0.497467
     27 H13         7.7820   -4.4240    6.3580 ha        1 X02      0.145000
     28 H14         9.0620   -6.2910    5.2980 ha        1 X02      0.173500
     29 H15         9.2480   -6.4240    2.8050 ha        1 X02      0.178000
     30 H16         8.2060   -4.6630    1.3790 ha        1 X02      0.173500
     31 H17         7.0180   -2.7570    2.4120 ha        1 X02      0.145000
     32 H42         1.4680   -1.6440    2.2310 hn        1 X02      0.474800
     33 H103        4.7750    0.7060    5.8590 hn        1 X02      0.497467
@<TRIPOS>BOND
     1    1    2 2   
     2    1   19 1   
     3    1   20 1   
     4    2    3 1   
     5    2   21 1   
     6    3    4 1   
     7    3   22 1   
     8    3   23 1   
     9    4    5 1   
    10    4   24 1   
    11    4   32 1   
    12    5    6 2   
    13    5    9 1   
    14    6    7 1   
    15    7    8 2   
    16    7   10 1   
    17    8    9 1   
    18    8   11 1   
    19   10   25 1   
    20   10   26 1   
    21   10   33 1   
    22   11   12 1   
    23   11   18 2   
    24   12   13 ar  
    25   12   17 ar  
    26   13   14 ar  
    27   13   27 1   
    28   14   15 ar  
    29   14   28 1   
    30   15   16 ar  
    31   15   29 1   
    32   16   17 ar  
    33   16   30 1   
    34   17   31 1   
@<TRIPOS>SUBSTRUCTURE
     1 X02         1 TEMP              0 ****  ****    0 ROOT
