@<TRIPOS>MOLECULE
X02
   31    32     1     0     0
SMALL
bcc


@<TRIPOS>ATOM
      1 C1          6.3670   -1.3300   -0.8290 c2        1 X02     -0.200000
      2 C2          5.3790   -1.3070    0.0610 c2        1 X02     -0.192200
      3 C3          4.3220   -0.2470    0.0680 c3        1 X02      0.222000
      4 N4          2.9860   -0.7970    0.1820 nh        1 X02     -0.816900
      5 C5          1.8950    0.0540    0.1470 cc        1 X02      0.690300
      6 N6          1.9590    1.4010    0.2220 nd        1 X02     -0.772000
      7 C7          0.6500    1.9250    0.2830 cd        1 X02      0.729200
      8 C8         -0.3850    0.9480    0.2170 cc        1 X02     -0.421000
      9 S9          0.2830   -0.6050    0.1390 ss        1 X02     -0.137300
     10 N10         0.4320    3.2640    0.4140 nh        1 X02     -0.941500
     11 C11        -1.7940    1.2280    0.1720 c         1 X02      0.643300
     12 C12        -2.7120    0.0630    0.0780 ca        1 X02     -0.151600
     13 C13        -3.8200    0.1440   -0.7760 ca        1 X02     -0.095500
     14 C14        -4.6960   -0.9340   -0.8890 ca        1 X02     -0.138000
     15 C15        -4.4800   -2.0920   -0.1410 ca        1 X02     -0.114000
     16 C16        -3.3890   -2.1690    0.7240 ca        1 X02     -0.138000
     17 C17        -2.5050   -1.0960    0.8340 ca        1 X02     -0.095500
     18 O18        -2.2570    2.3860    0.1750 o         1 X02     -0.595100
     19 H1          7.1650   -2.0840   -0.7950 ha        1 X02      0.117500
     20 H1A         6.4550   -0.5990   -1.6450 ha        1 X02      0.117500
     21 H2          5.3130   -2.0520    0.8710 ha        1 X02      0.134000
     22 H3          4.4910    0.4250    0.9610 h1        1 X02      0.063200
     23 H3A         4.4120    0.3970   -0.8570 h1        1 X02      0.063200
     24 HN4         2.8440   -1.6650   -0.2910 hn        1 X02      0.420800
     25 HN10        1.1850    3.9020    0.3610 hn        1 X02      0.455800
     26 HN1A       -0.5060    3.5920    0.3670 hn        1 X02      0.455800
     27 H13        -3.9920    1.0700   -1.3470 ha        1 X02      0.147000
     28 H14        -5.5610   -0.8680   -1.5650 ha        1 X02      0.134500
     29 H15        -5.1740   -2.9410   -0.2290 ha        1 X02      0.132000
     30 H16        -3.2240   -3.0760    1.3240 ha        1 X02      0.134500
     31 H17        -1.6550   -1.1570    1.5360 ha        1 X02      0.147000
@<TRIPOS>BOND
     1    1    2 2   
     2    1   19 1   
     3    1   20 1   
     4    2    3 1   
     5    2   21 1   
     6    3    4 1   
     7    3   22 1   
     8    3   23 1   
     9    4    5 1   
    10    4   24 1   
    11    5    6 2   
    12    5    9 1   
    13    6    7 1   
    14    7    8 2   
    15    7   10 1   
    16    8    9 1   
    17    8   11 1   
    18   10   25 1   
    19   10   26 1   
    20   11   12 1   
    21   11   18 2   
    22   12   13 ar  
    23   12   17 ar  
    24   13   14 ar  
    25   13   27 1   
    26   14   15 ar  
    27   14   28 1   
    28   15   16 ar  
    29   15   29 1   
    30   16   17 ar  
    31   16   30 1   
    32   17   31 1   
@<TRIPOS>SUBSTRUCTURE
     1 X02         1 TEMP              0 ****  ****    0 ROOT
