@<TRIPOS>MOLECULE
X03
   42    42     1     0     0
SMALL
bcc


@<TRIPOS>ATOM
      1 N1        398.8990   -7.9220  192.3590 nc        1 X03     -0.249700
      2 N2        397.8060   -8.1150  191.6870 na        1 X03      0.111500
      3 C3        397.9670   -7.9570  190.2940 cd        1 X03     -0.093300
      4 C4        399.3190   -7.6280  190.0770 cc        1 X03     -0.016200
      5 C5        399.8990   -7.6110  191.4130 cc        1 X03     -0.182500
      6 C6        401.1970   -7.3430  191.7540 c1        1 X03      0.809600
      7 N7      -1988.9620   37.6200 -916.0530 n3        1 X03     -0.673600
      8 N8      -1988.3080   37.5660 -917.2790 n4        1 X03     -0.609400
      9 O9        402.3040   -7.1120  192.0120 o         1 X03     -0.155500
     10 C10       396.9600   -8.0990  189.2250 c3        1 X03     -0.031200
     11 C11       397.5080   -7.4560  187.9550 c3        1 X03     -0.083400
     12 C12       398.9410   -7.8850  187.6550 c3        1 X03     -0.054700
     13 C13       399.8900   -7.3790  188.7490 c3        1 X03     -0.043200
     14 C14       399.3980   -7.4350  186.2500 c3        1 X03     -0.045000
     15 C15       398.7520   -8.3740  185.2200 c3        1 X03     -0.073400
     16 C16       398.8610   -7.9000  183.7930 c3        1 X03     -0.097100
     17 C17       399.0000   -5.9930  185.9810 c3        1 X03     -0.094100
     18 C18       400.9130   -7.5610  186.1360 c3        1 X03     -0.094100
     19 HN2       396.9510   -8.3510  192.1660 hn        1 X03      0.373700
     20 HN7     -1989.7720   37.0080 -916.0450 hn        1 X03      0.429800
     21 HN8     -1987.4630   38.1650 -917.2130 hn        1 X03      0.474800
     22 HN8A    -1988.8660   37.8630 -918.0970 hn        1 X03      0.474800
     23 H10       396.7530   -9.1910  189.0490 hc        1 X03      0.086200
     24 H10A      395.9910   -7.6090  189.5110 hc        1 X03      0.086200
     25 H11       397.4650   -6.3390  188.0600 hc        1 X03      0.074700
     26 H11A      396.8350   -7.7400  187.1040 hc        1 X03      0.074700
     27 H12       398.9800   -9.0120  187.6730 hc        1 X03      0.062700
     28 H13       400.0650   -6.2740  188.6180 hc        1 X03      0.084200
     29 H13A      400.8840   -7.8960  188.6530 hc        1 X03      0.084200
     30 H15       399.2370   -9.3830  185.3110 hc        1 X03      0.040700
     31 H15A      397.6650   -8.5070  185.4650 hc        1 X03      0.040700
     32 H16       398.2810   -6.9570  183.6390 hc        1 X03      0.043700
     33 H16A      398.4460   -8.6790  183.1070 hc        1 X03      0.043700
     34 H16B      399.9220   -7.7110  183.5030 hc        1 X03      0.043700
     35 H17       397.8970   -5.9090  185.8270 hc        1 X03      0.041700
     36 H17A      399.2960   -5.3340  186.8320 hc        1 X03      0.041700
     37 H17B      399.5110   -5.6230  185.0580 hc        1 X03      0.041700
     38 H18       401.4240   -6.7770  186.7460 hc        1 X03      0.041700
     39 H18A      401.2520   -8.5690  186.4740 hc        1 X03      0.041700
     40 H18B      401.2310   -7.4230  185.0740 hc        1 X03      0.041700
     41 H72     -1989.2480   38.5700 -915.8360 hn        1 X03      0.429800
     42 H83     -1987.9920   36.5880 -917.4250 hn        1 X03      0.474800
@<TRIPOS>BOND
     1    1    2 2   
     2    1    5 1   
     3    2    3 1   
     4    2   19 1   
     5    3    4 2   
     6    3   10 1   
     7    4    5 1   
     8    4   13 1   
     9    5    6 2   
    10    6    9 2   
    11    7    8 1   
    12    7   20 1   
    13    7   41 1   
    14    8   21 1   
    15    8   22 1   
    16    8   42 1   
    17   10   11 1   
    18   10   23 1   
    19   10   24 1   
    20   11   12 1   
    21   11   25 1   
    22   11   26 1   
    23   12   13 1   
    24   12   14 1   
    25   12   27 1   
    26   13   28 1   
    27   13   29 1   
    28   14   15 1   
    29   14   17 1   
    30   14   18 1   
    31   15   16 1   
    32   15   30 1   
    33   15   31 1   
    34   16   32 1   
    35   16   33 1   
    36   16   34 1   
    37   17   35 1   
    38   17   36 1   
    39   17   37 1   
    40   18   38 1   
    41   18   39 1   
    42   18   40 1   
@<TRIPOS>SUBSTRUCTURE
     1 X03         1 TEMP              0 ****  ****    0 ROOT
