@<TRIPOS>MOLECULE
X03
   42    42     1     0     0
SMALL
bcc


@<TRIPOS>ATOM
      1 N1        206.9270   -1.4910  160.0190 nc        1 X03     -0.249700
      2 N2        205.6870   -1.1800  160.2340 na        1 X03      0.111500
      3 C3        204.8990   -1.1650  159.0630 cd        1 X03     -0.093300
      4 C4        205.7520   -1.5090  157.9960 cc        1 X03     -0.016200
      5 C5        207.0470   -1.7140  158.6310 cc        1 X03     -0.182500
      6 C6        208.2230   -2.0670  158.0260 c1        1 X03      0.809600
      7 N7      -1012.4430    6.7980 -760.1790 n3        1 X03     -0.673600
      8 N8      -1013.8120    6.7440 -760.4150 n4        1 X03     -0.609400
      9 O9        209.2050   -2.3660  157.4850 o         1 X03     -0.155500
     10 C10       203.4620   -0.8620  158.9190 c3        1 X03     -0.031200
     11 C11       203.1700   -0.5910  157.4470 c3        1 X03     -0.083400
     12 C12       203.7770   -1.6460  156.5270 c3        1 X03     -0.054700
     13 C13       205.3090   -1.6010  156.6010 c3        1 X03     -0.043200
     14 C14       203.2720   -1.5090  155.0740 c3        1 X03     -0.045000
     15 C15       201.8450   -2.0760  155.0140 c3        1 X03     -0.073400
     16 C16       201.1010   -1.7500  153.7450 c3        1 X03     -0.097100
     17 C17       203.2880   -0.0570  154.6240 c3        1 X03     -0.094100
     18 C18       204.1580   -2.3270  154.1410 c3        1 X03     -0.094100
     19 HN2       205.3690   -0.9750  161.1690 hn        1 X03      0.373700
     20 HN7     -1012.0660    7.7070 -760.4300 hn        1 X03      0.429800
     21 HN8     -1014.1030    6.8830 -761.3970 hn        1 X03      0.474800
     22 HN8A    -1014.2630    7.4690 -759.8250 hn        1 X03      0.474800
     23 H10       202.8570   -1.7390  159.2800 hc        1 X03      0.086200
     24 H10A      203.1700    0.0310  159.5340 hc        1 X03      0.086200
     25 H11       203.5700    0.4210  157.1720 hc        1 X03      0.074700
     26 H11A      202.0560   -0.5600  157.3130 hc        1 X03      0.074700
     27 H12       203.4540   -2.6620  156.8970 hc        1 X03      0.062700
     28 H13       205.6900   -0.7090  156.0280 hc        1 X03      0.084200
     29 H13A      205.7360   -2.5230  156.1210 hc        1 X03      0.084200
     30 H15       201.2510   -1.6850  155.8820 hc        1 X03      0.040700
     31 H15A      201.9060   -3.1910  155.1310 hc        1 X03      0.040700
     32 H16       200.9100   -0.6520  153.6630 hc        1 X03      0.043700
     33 H16A      201.6690   -2.0760  152.8410 hc        1 X03      0.043700
     34 H16B      200.1140   -2.2750  153.7440 hc        1 X03      0.043700
     35 H17       204.2730    0.4180  154.8520 hc        1 X03      0.041867
     36 H17A      203.1190    0.0020  153.5210 hc        1 X03      0.041867
     37 H17B      202.4820    0.5250  155.1330 hc        1 X03      0.041867
     38 H18       203.6910   -2.3900  153.1270 hc        1 X03      0.041867
     39 H18A      204.2880   -3.3650  154.5300 hc        1 X03      0.041867
     40 H18B      205.1600   -1.8490  154.0230 hc        1 X03      0.041867
     41 H72     -1011.9570    6.0710 -760.6950 hn        1 X03      0.429800
     42 H83     -1014.1520    5.8180 -760.0920 hn        1 X03      0.474800
@<TRIPOS>BOND
     1    1    2 2   
     2    1    5 1   
     3    2    3 1   
     4    2   19 1   
     5    3    4 2   
     6    3   10 1   
     7    4    5 1   
     8    4   13 1   
     9    5    6 2   
    10    6    9 2   
    11    7    8 1   
    12    7   20 1   
    13    7   41 1   
    14    8   21 1   
    15    8   22 1   
    16    8   42 1   
    17   10   11 1   
    18   10   23 1   
    19   10   24 1   
    20   11   12 1   
    21   11   25 1   
    22   11   26 1   
    23   12   13 1   
    24   12   14 1   
    25   12   27 1   
    26   13   28 1   
    27   13   29 1   
    28   14   15 1   
    29   14   17 1   
    30   14   18 1   
    31   15   16 1   
    32   15   30 1   
    33   15   31 1   
    34   16   32 1   
    35   16   33 1   
    36   16   34 1   
    37   17   35 1   
    38   17   36 1   
    39   17   37 1   
    40   18   38 1   
    41   18   39 1   
    42   18   40 1   
@<TRIPOS>SUBSTRUCTURE
     1 X03         1 TEMP              0 ****  ****    0 ROOT
