@<TRIPOS>MOLECULE
X03
   42    42     1     0     0
SMALL
bcc


@<TRIPOS>ATOM
      1 N1        248.5950   -3.3010  142.1940 nc        1 X03     -0.249700
      2 N2        249.8530   -3.1120  142.4440 na        1 X03      0.111500
      3 C3        250.1600   -3.1180  143.8210 cd        1 X03     -0.093300
      4 C4        248.9490   -3.3370  144.5050 cc        1 X03     -0.016200
      5 C5        247.9580   -3.4510  143.4440 cc        1 X03     -0.182500
      6 C6        246.6140   -3.6710  143.5810 c1        1 X03      0.809600
      7 N7      -1243.0160   16.3510 -712.0430 n8        1 X03     -0.673600
      8 N8      -1244.2990   16.4590 -711.5170 nz        1 X03     -0.609400
      9 O9        245.4790   -3.8570  143.7280 o         1 X03     -0.155500
     10 C10       251.4700   -2.9400  144.4780 c3        1 X03     -0.031200
     11 C11       251.2350   -2.6350  145.9530 c3        1 X03     -0.083400
     12 C12       250.2330   -3.5910  146.5940 c3        1 X03     -0.054700
     13 C13       248.8450   -3.4090  145.9670 c3        1 X03     -0.043200
     14 C14       250.1900   -3.4410  148.1310 c3        1 X03     -0.045000
     15 C15       251.4330   -4.1330  148.7090 c3        1 X03     -0.073400
     16 C16       251.6920   -3.8310  150.1620 c3        1 X03     -0.097100
     17 C17       250.1570   -1.9760  148.5360 c3        1 X03     -0.094100
     18 C18       248.9490   -4.1350  148.6810 c3        1 X03     -0.094100
     19 HN2       250.5060   -2.9770  141.6880 hn        1 X03      0.373700
     20 HN7     -1242.7760   17.1720 -712.5890 hn        1 X03      0.429800
     21 HN8     -1244.4700   15.6230 -710.9280 hn        1 X03      0.474800
     22 HN8A    -1245.0610   16.5420 -712.2110 hn        1 X03      0.474800
     23 H10       252.0750   -3.8830  144.3660 hc        1 X03      0.086200
     24 H10A      252.0520   -2.1040  144.0050 hc        1 X03      0.086200
     25 H11       250.8660   -1.5810  146.0570 hc        1 X03      0.074700
     26 H11A      252.2210   -2.7000  146.4830 hc        1 X03      0.074700
     27 H12       250.5650   -4.6470  146.3730 hc        1 X03      0.062700
     28 H13       248.1830   -4.2680  146.2640 hc        1 X03      0.084200
     29 H13A      248.3750   -2.4620  146.3560 hc        1 X03      0.084200
     30 H15       251.3110   -5.2420  148.5780 hc        1 X03      0.040700
     31 H15A      252.3380   -3.8280  148.1190 hc        1 X03      0.040700
     32 H16       251.9390   -2.7520  150.3100 hc        1 X03      0.043700
     33 H16A      250.8080   -4.0790  150.7970 hc        1 X03      0.043700
     34 H16B      252.5590   -4.4390  150.5220 hc        1 X03      0.043700
     35 H17       249.9190   -1.8870  149.6240 hc        1 X03      0.041867
     36 H17A      249.3760   -1.4220  147.9620 hc        1 X03      0.041867
     37 H17B      251.1480   -1.4930  148.3530 hc        1 X03      0.041867
     38 H18       248.8650   -5.1720  148.2780 hc        1 X03      0.041867
     39 H18A      248.0250   -3.5630  148.4220 hc        1 X03      0.041867
     40 H18B      249.0070   -4.1970  149.7960 hc        1 X03      0.041867
     41 H72     -1242.9280   15.5190 -712.6180 hn        1 X03      0.429800
     42 H83     -1244.3170   17.2910 -710.8980 hn        1 X03      0.474800
@<TRIPOS>BOND
     1    1    2 2   
     2    1    5 1   
     3    2    3 1   
     4    2   19 1   
     5    3    4 2   
     6    3   10 1   
     7    4    5 1   
     8    4   13 1   
     9    5    6 2   
    10    6    9 2   
    11    7    8 1   
    12    7   20 1   
    13    7   41 1   
    14    8   21 1   
    15    8   22 1   
    16    8   42 1   
    17   10   11 1   
    18   10   23 1   
    19   10   24 1   
    20   11   12 1   
    21   11   25 1   
    22   11   26 1   
    23   12   13 1   
    24   12   14 1   
    25   12   27 1   
    26   13   28 1   
    27   13   29 1   
    28   14   15 1   
    29   14   17 1   
    30   14   18 1   
    31   15   16 1   
    32   15   30 1   
    33   15   31 1   
    34   16   32 1   
    35   16   33 1   
    36   16   34 1   
    37   17   35 1   
    38   17   36 1   
    39   17   37 1   
    40   18   38 1   
    41   18   39 1   
    42   18   40 1   
@<TRIPOS>SUBSTRUCTURE
     1 X03         1 TEMP              0 ****  ****    0 ROOT
