@<TRIPOS>MOLECULE
X03
   40    41     1     0     0
SMALL
bcc


@<TRIPOS>ATOM
      1 N1          2.7760   -1.7260   -0.0830 nc        1 X03     -0.497800
      2 N2          1.7870   -2.6010    0.0200 na        1 X03      0.013400
      3 C3          0.5340   -1.9820    0.0910 cc        1 X03     -0.125600
      4 C4          0.7730   -0.5940    0.0270 cd        1 X03     -0.173600
      5 C5          2.2090   -0.4740   -0.0870 cd        1 X03      0.255800
      6 C6          2.9400    0.8040   -0.1940 c         1 X03      0.569600
      7 N7          4.3040    0.7550   -0.5130 n         1 X03     -0.435300
      8 N8          5.1300    1.8350   -0.4670 n3        1 X03     -0.628800
      9 O9          2.3570    1.9010   -0.0690 o         1 X03     -0.609100
     10 C10        -0.8030   -2.5920    0.1950 c3        1 X03     -0.008100
     11 C11        -1.8000   -1.5190    0.6170 c3        1 X03     -0.072400
     12 C12        -1.6520   -0.2350   -0.1960 c3        1 X03     -0.055700
     13 C13        -0.2910    0.4130    0.0790 c3        1 X03     -0.006100
     14 C14        -2.8220    0.7420    0.0470 c3        1 X03     -0.044000
     15 C15        -4.0450    0.2260   -0.7250 c3        1 X03     -0.074400
     16 C16        -5.3420    0.9010   -0.3640 c3        1 X03     -0.092100
     17 C17        -3.1390    0.8560    1.5300 c3        1 X03     -0.088600
     18 C18        -2.4580    2.1230   -0.4860 c3        1 X03     -0.088600
     19 HN2         1.9780   -3.5760    0.0430 hn        1 X03      0.325700
     20 HN7         4.8020   -0.0980   -0.3440 hn        1 X03      0.340500
     21 HN8         4.9690    2.3900   -1.3020 hn        1 X03      0.347300
     22 HN8A        4.8840    2.4330    0.3180 hn        1 X03      0.347300
     23 H10        -1.0990   -3.0210   -0.8010 hc        1 X03      0.054200
     24 H10A       -0.8120   -3.4300    0.9410 hc        1 X03      0.054200
     25 H11        -2.8340   -1.9340    0.5040 hc        1 X03      0.050200
     26 H11A       -1.6450   -1.2860    1.7030 hc        1 X03      0.050200
     27 H12        -1.6750   -0.5130   -1.2890 hc        1 X03      0.050700
     28 H13        -0.2920    0.9030    1.0910 hc        1 X03      0.071700
     29 H13A       -0.0780    1.2190   -0.6750 hc        1 X03      0.071700
     30 H15        -3.8500    0.3640   -1.8230 hc        1 X03      0.037200
     31 H15A       -4.1590   -0.8760   -0.5480 hc        1 X03      0.037200
     32 H16        -5.2720    2.0090   -0.4800 hc        1 X03      0.033700
     33 H16A       -6.1590    0.5320   -1.0320 hc        1 X03      0.033700
     34 H16B       -5.6280    0.6770    0.6930 hc        1 X03      0.033700
     35 H17        -2.2050    1.0340    2.1160 hc        1 X03      0.037033
     36 H17A       -3.8340    1.7110    1.7100 hc        1 X03      0.037033
     37 H17B       -3.6240   -0.0780    1.9030 hc        1 X03      0.037033
     38 H18        -2.0780    2.0490   -1.5330 hc        1 X03      0.037033
     39 H18A       -3.3540    2.7890   -0.4810 hc        1 X03      0.037033
     40 H18B       -1.6730    2.5970    0.1510 hc        1 X03      0.037033
@<TRIPOS>BOND
     1    1    2 1   
     2    1    5 2   
     3    2    3 1   
     4    2   19 1   
     5    3    4 2   
     6    3   10 1   
     7    4    5 1   
     8    4   13 1   
     9    5    6 1   
    10    6    7 1   
    11    6    9 2   
    12    7    8 1   
    13    7   20 1   
    14    8   21 1   
    15    8   22 1   
    16   10   11 1   
    17   10   23 1   
    18   10   24 1   
    19   11   12 1   
    20   11   25 1   
    21   11   26 1   
    22   12   13 1   
    23   12   14 1   
    24   12   27 1   
    25   13   28 1   
    26   13   29 1   
    27   14   15 1   
    28   14   17 1   
    29   14   18 1   
    30   15   16 1   
    31   15   30 1   
    32   15   31 1   
    33   16   32 1   
    34   16   33 1   
    35   16   34 1   
    36   17   35 1   
    37   17   36 1   
    38   17   37 1   
    39   18   38 1   
    40   18   39 1   
    41   18   40 1   
@<TRIPOS>SUBSTRUCTURE
     1 X03         1 TEMP              0 ****  ****    0 ROOT
