@<TRIPOS>MOLECULE
X04
   26    26     1     0     0
SMALL
bcc


@<TRIPOS>ATOM
      1 P          -0.2450   -0.3260   -2.9600 p5        1 X04      1.326900
      2 OP1        -0.3640    0.9040   -3.8080 o         1 X04     -0.921500
      3 OP2         0.4290   -1.5290   -3.5410 o         1 X04     -0.921500
      4 OP3        -1.4270   -0.5700   -2.0470 o         1 X04     -0.921500
      5 OP4         0.9310    0.2030   -1.7660 os        1 X04     -0.561200
      6 C5A         0.4170    1.0740   -0.8460 c3        1 X04      0.257700
      7 C5          0.4970    0.5150    0.5630 ca        1 X04     -0.118600
      8 C6          1.7860    0.1750    1.1210 ca        1 X04      0.581200
      9 N2          2.9440    0.3490    0.3260 nh        1 X04     -0.916500
     10 N1          1.9360   -0.2580    2.4030 nb        1 X04     -0.728000
     11 C2          0.8350   -0.3510    3.1850 ca        1 X04      0.348600
     12 C2A         0.9780   -0.7830    4.6080 c3        1 X04     -0.113400
     13 C3         -0.4610   -0.0700    2.6990 ca        1 X04     -0.004200
     14 O3         -1.4920   -0.2270    3.6020 oh        1 X04     -0.538100
     15 C4         -0.6360    0.3230    1.3520 ca        1 X04     -0.206600
     16 C4A        -1.9830    0.4130    0.7350 c         1 X04      0.555500
     17 O1         -2.9690    0.7880    1.3940 o         1 X04     -0.649100
     18 H5A1       -0.6460    1.3550   -1.0970 h1        1 X04      0.010700
     19 H5A2        1.0290    2.0310   -0.8260 h1        1 X04      0.010700
     20 HN21        3.6740   -0.2920    0.5550 hn        1 X04      0.401300
     21 HN22        2.7160    0.3150   -0.6570 hn        1 X04      0.401300
     22 H2A1        0.5850    0.0220    5.2760 hc        1 X04      0.028033
     23 H2A2        0.3630   -1.7020    4.7740 hc        1 X04      0.028033
     24 H2A3        2.0370   -1.0000    4.8850 hc        1 X04      0.028033
     25 HO3        -2.3220    0.0030    3.1560 ho        1 X04      0.440000
     26 H4A        -2.0440    0.0770   -0.3510 h4        1 X04      0.181200
@<TRIPOS>BOND
     1    1    2 1   
     2    1    3 1   
     3    1    4 1   
     4    1    5 1   
     5    5    6 1   
     6    6    7 1   
     7    6   18 1   
     8    6   19 1   
     9    7    8 ar  
    10    7   15 ar  
    11    8    9 1   
    12    8   10 ar  
    13    9   20 1   
    14    9   21 1   
    15   10   11 ar  
    16   11   12 1   
    17   11   13 ar  
    18   12   22 1   
    19   12   23 1   
    20   12   24 1   
    21   13   14 1   
    22   13   15 ar  
    23   14   25 1   
    24   15   16 1   
    25   16   17 2   
    26   16   26 1   
@<TRIPOS>SUBSTRUCTURE
     1 X04         1 TEMP              0 ****  ****    0 ROOT
