@<TRIPOS>MOLECULE
X04
   27    27     1     0     0
SMALL
bcc


@<TRIPOS>ATOM
      1 P          -0.1610    0.0110   -0.4000 p5        1 X04      1.424800
      2 OP1         1.2410    0.3650   -0.1260 o         1 X04     -0.821500
      3 OP2        -0.9230   -1.1840   -0.0010 o         1 X04     -0.821500
      4 OP3        -0.3190    0.2030   -2.0230 oh        1 X04     -0.800400
      5 OP4        -1.1030    1.3180    0.0120 os        1 X04     -0.576200
      6 C5A        -2.4390    1.2550   -0.3780 c3        1 X04      0.231700
      7 C5         -2.8020    2.4320   -1.2490 ca        1 X04     -0.159600
      8 C6         -3.0700    2.2930   -2.6480 ca        1 X04      0.598200
      9 N2         -3.0070    1.0300   -3.2680 nh        1 X04     -0.918500
     10 N1         -3.4630    3.3590   -3.4190 nb        1 X04     -0.706000
     11 C2         -3.6210    4.5600   -2.8440 ca        1 X04      0.398600
     12 C2A        -4.0750    5.7260   -3.6610 c3        1 X04     -0.130400
     13 C3         -3.3530    4.7800   -1.4620 ca        1 X04      0.007800
     14 O3         -3.5410    6.0690   -1.0270 oh        1 X04     -0.515100
     15 C4         -2.9080    3.7080   -0.6700 ca        1 X04     -0.195600
     16 C4A        -2.5020    3.8910    0.7370 c         1 X04      0.585500
     17 O1         -2.8630    4.8570    1.4260 o         1 X04     -0.594100
     18 H5A1       -2.6530    0.2660   -0.8710 h1        1 X04      0.042700
     19 H5A2       -3.0860    1.3130    0.5490 h1        1 X04      0.042700
     20 HN21       -2.2590    0.4580   -2.9200 hn        1 X04      0.409800
     21 HN22        0.4200    0.6620   -2.4040 ho        1 X04      0.430000
     22 H2A1       -5.0130    6.1390   -3.2120 hc        1 X04      0.046367
     23 H2A2       -3.2910    6.5220   -3.6240 hc        1 X04      0.046367
     24 H2A3       -4.2690    5.4530   -4.7260 hc        1 X04      0.046367
     25 HO3        -3.3780    6.1080   -0.0710 ho        1 X04      0.446000
     26 H4A        -1.8190    3.1090    1.1470 h4        1 X04      0.072200
     27 H23        -3.0210    1.0630   -4.2650 hn        1 X04      0.409800
@<TRIPOS>BOND
     1    1    2 1   
     2    1    3 1   
     3    1    4 1   
     4    1    5 1   
     5    4   21 1   
     6    5    6 1   
     7    6    7 1   
     8    6   18 1   
     9    6   19 1   
    10    7    8 ar  
    11    7   15 ar  
    12    8    9 1   
    13    8   10 ar  
    14    9   20 1   
    15    9   27 1   
    16   10   11 ar  
    17   11   12 1   
    18   11   13 ar  
    19   12   22 1   
    20   12   23 1   
    21   12   24 1   
    22   13   14 1   
    23   13   15 ar  
    24   14   25 1   
    25   15   16 1   
    26   16   17 2   
    27   16   26 1   
@<TRIPOS>SUBSTRUCTURE
     1 X04         1 TEMP              0 ****  ****    0 ROOT
