@<TRIPOS>MOLECULE
X04
   26    26     1     0     0
SMALL
bcc


@<TRIPOS>ATOM
      1 P          -0.2900   -0.0560   -0.0760 p5        1 X04      1.326900
      2 OP1         0.5680   -1.1570   -0.6240 o         1 X04     -0.919167
      3 OP2        -0.1650    0.2920    1.3720 o         1 X04     -0.919167
      4 OP3        -1.6700    0.0160   -0.6950 o         1 X04     -0.919167
      5 OP4         0.4430    1.3300   -0.8780 os        1 X04     -0.554200
      6 C5A         0.2790    1.2910   -2.2330 c3        1 X04      0.259700
      7 C5         -0.4090    2.5260   -2.7830 ca        1 X04     -0.121600
      8 C6          0.2710    3.7940   -2.7180 ca        1 X04      0.552200
      9 N2          1.3440    3.9710   -1.8060 nv        1 X04     -0.915500
     10 N1         -0.1280    4.8700   -3.4530 nb        1 X04     -0.690000
     11 C2         -1.2610    4.7620   -4.1820 ca        1 X04      0.333600
     12 C2A        -1.7110    5.9140   -5.0190 c3        1 X04     -0.113400
     13 C3         -2.0600    3.5920   -4.1730 ca        1 X04      0.014800
     14 O3         -3.2200    3.6560   -4.9120 oh        1 X04     -0.538100
     15 C4         -1.6370    2.4590   -3.4460 ca        1 X04     -0.216600
     16 C4A        -2.4760    1.2410   -3.3020 c         1 X04      0.550500
     17 O1         -3.3270    0.9480   -4.1610 o         1 X04     -0.651100
     18 H5A1        1.2930    1.2810   -2.7510 h1        1 X04      0.004700
     19 H5A2       -0.2740    0.3620   -2.5550 h1        1 X04      0.004700
     20 HN21        1.4130    3.1840   -1.1770 hn        1 X04      0.394800
     21 HN22        2.2080    4.1580   -2.2680 hn        1 X04      0.394800
     22 H2A1       -1.8020    5.5820   -6.0830 hc        1 X04      0.028367
     23 H2A2       -2.7220    6.2440   -4.6710 hc        1 X04      0.028367
     24 H2A3       -1.0100    6.7810   -4.9680 hc        1 X04      0.028367
     25 HO3        -3.6740    2.8010   -4.8450 ho        1 X04      0.445000
     26 H4A        -2.3090    0.6350   -2.3490 h4        1 X04      0.189200
@<TRIPOS>BOND
     1    1    2 1   
     2    1    3 1   
     3    1    4 1   
     4    1    5 1   
     5    5    6 1   
     6    6    7 1   
     7    6   18 1   
     8    6   19 1   
     9    7    8 ar  
    10    7   15 ar  
    11    8    9 1   
    12    8   10 ar  
    13    9   20 1   
    14    9   21 1   
    15   10   11 ar  
    16   11   12 1   
    17   11   13 ar  
    18   12   22 1   
    19   12   23 1   
    20   12   24 1   
    21   13   14 1   
    22   13   15 ar  
    23   14   25 1   
    24   15   16 1   
    25   16   17 2   
    26   16   26 1   
@<TRIPOS>SUBSTRUCTURE
     1 X04         1 TEMP              0 ****  ****    0 ROOT
