@<TRIPOS>MOLECULE
X04
   26    26     1     0     0
SMALL
bcc


@<TRIPOS>ATOM
      1 P          -0.2710   -0.0700   -0.0940 p5        1 X04      1.326900
      2 OP1         0.6040   -1.1560   -0.6460 o         1 X04     -0.919167
      3 OP2        -0.1570    0.2680    1.3570 o         1 X04     -0.919167
      4 OP3        -1.6480   -0.0110   -0.7190 o         1 X04     -0.919167
      5 OP4         0.4490    1.3310   -0.8820 os        1 X04     -0.554200
      6 C5A         0.2930    1.3000   -2.2380 c3        1 X04      0.259700
      7 C5         -0.4080    2.5310   -2.7810 ca        1 X04     -0.121600
      8 C6          0.2560    3.8070   -2.7040 ca        1 X04      0.552200
      9 N2          1.3230    3.9900   -1.7840 nh        1 X04     -0.915500
     10 N1         -0.1520    4.8840   -3.4320 nb        1 X04     -0.690000
     11 C2         -1.2790    4.7660   -4.1680 ca        1 X04      0.333600
     12 C2A        -1.7400    5.9200   -4.9990 c3        1 X04     -0.113400
     13 C3         -2.0640    3.5870   -4.1730 ca        1 X04      0.014800
     14 O3         -3.2210    3.6430   -4.9180 oh        1 X04     -0.538100
     15 C4         -1.6310    2.4530   -3.4520 ca        1 X04     -0.216600
     16 C4A        -2.4560    1.2250   -3.3220 c         1 X04      0.550500
     17 O1         -3.2980    0.9270   -4.1870 o         1 X04     -0.651100
     18 H5A1        1.3100    1.3070   -2.7500 h1        1 X04      0.004700
     19 H5A2       -0.2460    0.3670   -2.5700 h1        1 X04      0.004700
     20 HN21        1.3980    3.1990   -1.1620 hn        1 X04      0.394800
     21 HN22        2.1870    4.1910   -2.2410 hn        1 X04      0.394800
     22 H2A1       -1.8250    5.5940   -6.0650 hc        1 X04      0.028033
     23 H2A2       -1.0480    6.7930   -4.9400 hc        1 X04      0.028033
     24 H2A3       -2.7550    6.2370   -4.6510 hc        1 X04      0.028033
     25 HO3        -3.6650    2.7810   -4.8590 ho        1 X04      0.445000
     26 H4A        -2.2850    0.6130   -2.3720 h4        1 X04      0.189200
@<TRIPOS>BOND
     1    1    2 1   
     2    1    3 1   
     3    1    4 1   
     4    1    5 1   
     5    5    6 1   
     6    6    7 1   
     7    6   18 1   
     8    6   19 1   
     9    7    8 ar  
    10    7   15 ar  
    11    8    9 1   
    12    8   10 ar  
    13    9   20 1   
    14    9   21 1   
    15   10   11 ar  
    16   11   12 1   
    17   11   13 ar  
    18   12   22 1   
    19   12   23 1   
    20   12   24 1   
    21   13   14 1   
    22   13   15 ar  
    23   14   25 1   
    24   15   16 1   
    25   16   17 2   
    26   16   26 1   
@<TRIPOS>SUBSTRUCTURE
     1 X04         1 TEMP              0 ****  ****    0 ROOT
