@<TRIPOS>MOLECULE
X04
   26    23     1     0     0
SMALL
bcc


@<TRIPOS>ATOM
      1 P           1.2550   -2.9180    2.5620 p3        1 X04      2.516000
      2 OP1         1.7030   -3.9980    1.6060 o         1 X04     -1.229500
      3 OP2         2.4510   -2.3860    3.3160 os        1 X04     -1.228000
      4 OP3         0.2580   -3.4930    3.5400 o         1 X04     -1.229500
      5 OP4         0.5790   -1.7420    1.7500 os        1 X04     -0.720000
      6 C5A         1.0500   -1.4660    0.4510 c3        1 X04      0.090000
      7 C5          0.3990   -0.1990   -0.0620 c2        1 X04     -0.061000
      8 C6          1.0670    1.0120    0.0360 c2        1 X04      0.117000
      9 N2          2.3860    1.0530    0.5560 n3        1 X04     -0.343000
     10 N1          0.4700    2.1560   -0.4000 n1        1 X04     -0.240000
     11 C2         -0.7830    2.1130   -0.9330 c1        1 X04     -0.043000
     12 C2A        -1.4360    3.3820   -1.4350 c3        1 X04     -0.140000
     13 C3         -1.4530    0.9030   -1.0320 c1        1 X04     -0.028000
     14 O3         -2.7560    0.8610   -1.5610 o         1 X04     -0.293000
     15 C4         -0.8560   -0.2440   -0.5960 c2        1 X04     -0.192000
     16 C4A        -1.5580   -1.5740   -0.7680 c2        1 X04      0.245000
     17 O1         -2.6770   -1.6150   -1.2440 o         1 X04     -0.398000
     18 H5A1        0.8260   -2.2110   -0.1430 h1        1 X04      0.052000
     19 H5A2        2.0220   -1.3470    0.4750 h1        1 X04      0.052000
     20 HN21        3.0190    1.5750    0.1530 hn        1 X04      0.241500
     21 HN22        2.6070    0.5460    1.2840 hn        1 X04      0.241500
     22 H2A1       -0.7810    4.1110   -1.4280 hc        1 X04      0.067000
     23 H2A2       -1.7600    3.2430   -2.3500 hc        1 X04      0.067000
     24 H2A3       -2.1900    3.6140   -0.8530 hc        1 X04      0.067000
     25 HO3        -2.7270    1.0230   -2.4340 ho        1 X04      0.229000
     26 H4A        -1.1150   -2.4000   -0.4890 h4        1 X04      0.159000
@<TRIPOS>BOND
     1    1    2 1   
     2    1    4 1   
     3    1    5 1   
     4    5    6 1   
     5    6    7 1   
     6    6   18 1   
     7    6   19 1   
     8    7    8 1   
     9    7   15 1   
    10    8    9 1   
    11    8   10 1   
    12    9   20 1   
    13    9   21 1   
    14   11   12 1   
    15   11   13 1   
    16   12   22 1   
    17   12   23 1   
    18   12   24 1   
    19   13   15 1   
    20   14   25 1   
    21   15   16 1   
    22   16   17 1   
    23   16   26 1   
@<TRIPOS>SUBSTRUCTURE
     1 X04         1 TEMP              0 ****  ****    0 ROOT
