@<TRIPOS>MOLECULE
X05
   30    31     1     0     0
SMALL
bcc


@<TRIPOS>ATOM
      1 OAD         0.0320    0.1190   -0.1950 oh        1 X05     -0.603800
      2 CAK         1.4380    0.0580   -0.0760 c3        1 X05      0.139100
      3 CAL         1.8770    0.0460    1.4010 c3        1 X05      0.153500
      4 CAI         1.4750   -1.2140    2.2140 c3        1 X05      0.148100
      5 OAB         1.1190   -2.2240    1.2890 oh        1 X05     -0.610800
      6 CAE         2.7180   -1.5580    3.0570 c3        1 X05     -0.120400
      7 CAF         3.8050   -0.5330    2.6740 c3        1 X05      0.203800
      8 NAM         3.3380    0.1040    1.4570 n3        1 X05     -0.786600
      9 CAG         3.8970    1.3240    0.9680 c3        1 X05      0.205800
     10 CAH         3.5030    1.4380   -0.5410 c3        1 X05      0.094500
     11 NAA         4.0330    2.6950   -1.1610 n4        1 X05     -0.832600
     12 CAJ         1.9630    1.3680   -0.7030 c3        1 X05      0.129100
     13 OAC         1.7100    1.4420   -2.0940 oh        1 X05     -0.635800
     14 HAD        -0.3070   -0.7350    0.1170 ho        1 X05      0.450000
     15 HAK         1.8370   -0.8390   -0.6260 h1        1 X05      0.092700
     16 HAL         1.4010    0.9390    1.9090 h1        1 X05      0.052700
     17 HAJ         1.4680    2.2450   -0.1940 h1        1 X05      0.069700
     18 HAI         0.5890   -0.9850    2.8670 h1        1 X05      0.063700
     19 HAB         1.0180   -3.0470    1.7850 ho        1 X05      0.429000
     20 HAE1        2.4890   -1.4900    4.1470 hc        1 X05      0.075700
     21 HAE2        3.0670   -2.5960    2.8290 hc        1 X05      0.075700
     22 HAF1        4.7840   -1.0390    2.4580 h1        1 X05      0.053700
     23 HAF2        3.9630    0.2040    3.5100 h1        1 X05      0.053700
     24 HAG1        3.5200    2.2430    1.5080 h1        1 X05      0.052200
     25 HAG2        5.0170    1.2800    1.0690 h1        1 X05      0.052200
     26 HAH         3.9620    0.5770   -1.1190 hx        1 X05      0.135700
     27 HAA1        5.0550    2.6790   -1.1730 hn        1 X05      0.464133
     28 HAA2        3.7120    3.5130   -0.6370 hn        1 X05      0.464133
     29 HAC         0.8240    1.0770   -2.2490 ho        1 X05      0.469000
     30 HAA3        3.6720    2.7550   -2.1240 hn        1 X05      0.464133
@<TRIPOS>BOND
     1    1    2 1   
     2    1   14 1   
     3    2    3 1   
     4    2   12 1   
     5    2   15 1   
     6    3    4 1   
     7    3    8 1   
     8    3   16 1   
     9    4    5 1   
    10    4    6 1   
    11    4   18 1   
    12    5   19 1   
    13    6    7 1   
    14    6   20 1   
    15    6   21 1   
    16    7    8 1   
    17    7   22 1   
    18    7   23 1   
    19    8    9 1   
    20    9   10 1   
    21    9   24 1   
    22    9   25 1   
    23   10   11 1   
    24   10   12 1   
    25   10   26 1   
    26   11   27 1   
    27   11   28 1   
    28   11   30 1   
    29   12   13 1   
    30   12   17 1   
    31   13   29 1   
@<TRIPOS>SUBSTRUCTURE
     1 X05         1 TEMP              0 ****  ****    0 ROOT
