@<TRIPOS>MOLECULE
X05
   30    31     1     0     0
SMALL
bcc


@<TRIPOS>ATOM
      1 OAD         0.0310    0.1070   -0.1950 oh        1 X05     -0.603800
      2 CAK         1.4380    0.0530   -0.0760 c3        1 X05      0.139100
      3 CAL         1.8770    0.0420    1.4010 c3        1 X05      0.153500
      4 CAI         1.4800   -1.2190    2.2140 c3        1 X05      0.148100
      5 OAB         1.1290   -2.2300    1.2900 oh        1 X05     -0.610800
      6 CAE         2.7240   -1.5580    3.0570 c3        1 X05     -0.120400
      7 CAF         3.8080   -0.5280    2.6740 c3        1 X05      0.203800
      8 NAM         3.3380    0.1070    1.4570 n3        1 X05     -0.786600
      9 CAG         3.8920    1.3290    0.9680 c3        1 X05      0.205800
     10 CAH         3.4970    1.4410   -0.5410 c3        1 X05      0.094500
     11 NAA         4.0220    2.7000   -1.1610 n4        1 X05     -0.832600
     12 CAJ         1.9570    1.3650   -0.7040 c3        1 X05      0.129100
     13 OAC         1.7040    1.4370   -2.0940 oh        1 X05     -0.635800
     14 HAD        -0.3040   -0.7480    0.1170 ho        1 X05      0.450000
     15 HAK         1.8410   -0.8430   -0.6250 h1        1 X05      0.092700
     16 HAL         1.3970    0.9330    1.9090 h1        1 X05      0.052700
     17 HAJ         1.4590    2.2390   -0.1940 h1        1 X05      0.069700
     18 HAI         0.5930   -0.9930    2.8680 h1        1 X05      0.063700
     19 HAB         1.0310   -3.0540    1.7860 ho        1 X05      0.429000
     20 HAE1        2.4950   -1.4900    4.1480 hc        1 X05      0.075700
     21 HAE2        3.0780   -2.5940    2.8300 hc        1 X05      0.075700
     22 HAF1        3.9620    0.2100    3.5100 h1        1 X05      0.053700
     23 HAF2        4.7890   -1.0310    2.4580 h1        1 X05      0.053700
     24 HAG1        5.0110    1.2900    1.0690 h1        1 X05      0.052200
     25 HAG2        3.5110    2.2470    1.5080 h1        1 X05      0.052200
     26 HAH         3.9590    0.5820   -1.1190 hx        1 X05      0.135700
     27 HAA1        3.6980    3.5170   -0.6370 hn        1 X05      0.464133
     28 HAA2        5.0440    2.6880   -1.1740 hn        1 X05      0.464133
     29 HAC         0.8200    1.0680   -2.2500 ho        1 X05      0.469000
     30 HAA3        3.6600    2.7580   -2.1240 hn        1 X05      0.464133
@<TRIPOS>BOND
     1    1    2 1   
     2    1   14 1   
     3    2    3 1   
     4    2   12 1   
     5    2   15 1   
     6    3    4 1   
     7    3    8 1   
     8    3   16 1   
     9    4    5 1   
    10    4    6 1   
    11    4   18 1   
    12    5   19 1   
    13    6    7 1   
    14    6   20 1   
    15    6   21 1   
    16    7    8 1   
    17    7   22 1   
    18    7   23 1   
    19    8    9 1   
    20    9   10 1   
    21    9   24 1   
    22    9   25 1   
    23   10   11 1   
    24   10   12 1   
    25   10   26 1   
    26   11   27 1   
    27   11   28 1   
    28   11   30 1   
    29   12   13 1   
    30   12   17 1   
    31   13   29 1   
@<TRIPOS>SUBSTRUCTURE
     1 X05         1 TEMP              0 ****  ****    0 ROOT
