@<TRIPOS>MOLECULE
X05
   29    30     1     0     0
SMALL
bcc


@<TRIPOS>ATOM
      1 OAD         0.1390    2.3500    0.6770 oh        1 X05     -0.601800
      2 CAK         0.2910    1.1420   -0.0530 c3        1 X05      0.165100
      3 CAL        -0.7630    0.1620    0.4780 c3        1 X05      0.190500
      4 CAI        -2.2500    0.5180    0.2200 c3        1 X05      0.151100
      5 OAB        -2.3440    1.2360   -0.9960 oh        1 X05     -0.580800
      6 CAE        -2.9470   -0.8580    0.1310 c3        1 X05     -0.124400
      7 CAF        -1.8150   -1.9030    0.0470 c3        1 X05      0.190800
      8 NAM        -0.5800   -1.1580   -0.1350 n3        1 X05     -0.756600
      9 CAG         0.6810   -1.7730    0.1870 c3        1 X05      0.191800
     10 CAH         1.8390   -0.8760   -0.3450 c3        1 X05      0.136500
     11 NAA         3.1370   -1.4420   -0.0140 n3        1 X05     -0.918800
     12 CAJ         1.6900    0.5500    0.2410 c3        1 X05      0.107100
     13 OAC         2.6140    1.4410   -0.3680 oh        1 X05     -0.610800
     14 HAD         0.7910    2.9620    0.3120 ho        1 X05      0.417000
     15 HAK         0.1580    1.3310   -1.1520 h1        1 X05      0.082700
     16 HAL        -0.6370    0.1170    1.6050 h1        1 X05      0.038700
     17 HAJ         1.8510    0.5290    1.3550 h1        1 X05      0.056700
     18 HAI        -2.6530    1.1400    1.0620 h1        1 X05      0.049700
     19 HAB        -3.2760    1.4560   -1.1120 ho        1 X05      0.397000
     20 HAE1       -3.5780   -1.0390    1.0320 hc        1 X05      0.054200
     21 HAE2       -3.5930   -0.9090   -0.7780 hc        1 X05      0.054200
     22 HAF1       -1.8050   -2.5420    0.9740 h1        1 X05      0.036700
     23 HAF2       -1.9500   -2.5780   -0.8400 h1        1 X05      0.036700
     24 HAG1        0.8170   -1.9370    1.2960 h1        1 X05      0.037700
     25 HAG2        0.7210   -2.7760   -0.3220 h1        1 X05      0.037700
     26 HAH         1.7100   -0.7790   -1.4680 h1        1 X05      0.045700
     27 HAA1        3.1480   -2.4250   -0.2030 hn        1 X05      0.352800
     28 HAA2        3.8470   -0.9940   -0.5590 hn        1 X05      0.352800
     29 HAC         3.4720    1.2820    0.0420 ho        1 X05      0.408000
@<TRIPOS>BOND
     1    1    2 1   
     2    1   14 1   
     3    2    3 1   
     4    2   12 1   
     5    2   15 1   
     6    3    4 1   
     7    3    8 1   
     8    3   16 1   
     9    4    5 1   
    10    4    6 1   
    11    4   18 1   
    12    5   19 1   
    13    6    7 1   
    14    6   20 1   
    15    6   21 1   
    16    7    8 1   
    17    7   22 1   
    18    7   23 1   
    19    8    9 1   
    20    9   10 1   
    21    9   24 1   
    22    9   25 1   
    23   10   11 1   
    24   10   12 1   
    25   10   26 1   
    26   11   27 1   
    27   11   28 1   
    28   12   13 1   
    29   12   17 1   
    30   13   29 1   
@<TRIPOS>SUBSTRUCTURE
     1 X05         1 TEMP              0 ****  ****    0 ROOT
