@<TRIPOS>MOLECULE
X05
   30    31     1     0     0
SMALL
bcc


@<TRIPOS>ATOM
      1 OAD         0.0320    0.1160   -0.1970 oh        1 X05     -0.603800
      2 CAK         1.4390    0.0560   -0.0770 c3        1 X05      0.139100
      3 CAL         1.8760    0.0450    1.4010 c3        1 X05      0.153500
      4 CAI         1.4740   -1.2130    2.2150 c3        1 X05      0.148100
      5 OAB         1.1200   -2.2240    1.2910 oh        1 X05     -0.610800
      6 CAE         2.7170   -1.5560    3.0590 c3        1 X05     -0.120400
      7 CAF         3.8040   -0.5300    2.6760 c3        1 X05      0.203800
      8 NAM         3.3370    0.1050    1.4580 n3        1 X05     -0.786600
      9 CAG         3.8960    1.3250    0.9680 c3        1 X05      0.205800
     10 CAH         3.5030    1.4370   -0.5410 c3        1 X05      0.094500
     11 NAA         4.0330    2.6930   -1.1630 nz        1 X05     -0.832600
     12 CAJ         1.9630    1.3660   -0.7050 c3        1 X05      0.129100
     13 OAC         1.7110    1.4380   -2.0950 oh        1 X05     -0.635800
     14 HAD        -0.3060   -0.7380    0.1160 ho        1 X05      0.450000
     15 HAK         1.8390   -0.8410   -0.6250 h1        1 X05      0.092700
     16 HAL         1.3990    0.9390    1.9070 h1        1 X05      0.052700
     17 HAJ         1.4680    2.2430   -0.1970 h1        1 X05      0.069700
     18 HAI         0.5880   -0.9840    2.8670 h1        1 X05      0.063700
     19 HAB         1.0190   -3.0470    1.7880 ho        1 X05      0.429000
     20 HAE1        3.0670   -2.5930    2.8330 hc        1 X05      0.075700
     21 HAE2        2.4870   -1.4870    4.1490 hc        1 X05      0.075700
     22 HAF1        4.7830   -1.0360    2.4610 h1        1 X05      0.053700
     23 HAF2        3.9600    0.2080    3.5110 h1        1 X05      0.053700
     24 HAG1        3.5180    2.2440    1.5070 h1        1 X05      0.052200
     25 HAG2        5.0150    1.2820    1.0700 h1        1 X05      0.052200
     26 HAH         3.9620    0.5760   -1.1180 hx        1 X05      0.135700
     27 HAA1        5.0550    2.6780   -1.1740 hn        1 X05      0.464133
     28 HAA2        3.6720    2.7520   -2.1260 hn        1 X05      0.464133
     29 HAC         0.8260    1.0720   -2.2520 ho        1 X05      0.469000
     30 HAA3        3.7110    3.5120   -0.6390 hn        1 X05      0.464133
@<TRIPOS>BOND
     1    1    2 1   
     2    1   14 1   
     3    2    3 1   
     4    2   12 1   
     5    2   15 1   
     6    3    4 1   
     7    3    8 1   
     8    3   16 1   
     9    4    5 1   
    10    4    6 1   
    11    4   18 1   
    12    5   19 1   
    13    6    7 1   
    14    6   20 1   
    15    6   21 1   
    16    7    8 1   
    17    7   22 1   
    18    7   23 1   
    19    8    9 1   
    20    9   10 1   
    21    9   24 1   
    22    9   25 1   
    23   10   11 1   
    24   10   12 1   
    25   10   26 1   
    26   11   27 1   
    27   11   28 1   
    28   11   30 1   
    29   12   13 1   
    30   12   17 1   
    31   13   29 1   
@<TRIPOS>SUBSTRUCTURE
     1 X05         1 TEMP              0 ****  ****    0 ROOT
