@<TRIPOS>MOLECULE
X06
   24    25     1     0     0
SMALL
bcc


@<TRIPOS>ATOM
      1 N01         1.1880    1.2500   -0.3900 nb        1 X06     -0.826000
      2 N02         3.5670    0.7400    0.0200 nb        1 X06     -0.846000
      3 N03         1.8340   -0.9800    0.3370 nb        1 X06     -0.826000
      4 C06        -2.7960    0.0850    0.6020 ca        1 X06     -0.034600
      5 C07        -3.2460   -1.1230    0.0510 ca        1 X06     -0.074000
      6 C08        -2.3390   -1.9890   -0.5360 ca        1 X06     -0.167000
      7 C09        -0.9660   -1.6580   -0.5770 ca        1 X06      0.182100
      8 C10        -0.5160   -0.4440   -0.0260 cp        1 X06     -0.221500
      9 C11        -1.4460    0.4260    0.5630 ca        1 X06     -0.045000
     10 C12         0.9160   -0.0380   -0.0340 cp        1 X06      0.784500
     11 C13         2.5390    1.6030   -0.3330 ca        1 X06      0.929900
     12 C14         3.1600   -0.5470    0.3330 ca        1 X06      0.929900
     13 CL16       -3.9130    1.1450    1.3250 cl        1 X06     -0.094400
     14 HN04        2.1790    3.5120   -0.9960 hn        1 X06      0.443300
     15 HN0A        3.8260    3.1590   -0.7170 hn        1 X06      0.443300
     16 HN05        5.0620   -1.1550    0.8000 hn        1 X06      0.443300
     17 HN0B        3.8660   -2.3400    1.0330 hn        1 X06      0.443300
     18 H07        -4.3150   -1.3850    0.0850 ha        1 X06      0.150000
     19 H08        -2.6660   -2.9420   -0.9780 ha        1 X06      0.157000
     20 H11        -1.1060    1.3810    0.9940 ha        1 X06      0.163000
     21 HO15        0.7500   -2.3460   -1.1150 ho        1 X06      0.445000
     22 N04         2.8710    2.9170   -0.6110 nh        1 X06     -0.941000
     23 N05         4.1450   -1.4850    0.6130 nh        1 X06     -0.941000
     24 O15        -0.1830   -2.5860   -1.2080 oh        1 X06     -0.495100
@<TRIPOS>BOND
     1    1   10 ar  
     2    1   11 ar  
     3    2   11 ar  
     4    2   12 ar  
     5    3   10 ar  
     6    3   12 ar  
     7    4    5 ar  
     8    4    9 ar  
     9    4   13 1   
    10    5    6 ar  
    11    5   18 1   
    12    6    7 ar  
    13    6   19 1   
    14    7    8 ar  
    15    7   24 1   
    16    8    9 ar  
    17    8   10 1   
    18    9   20 1   
    19   11   22 1   
    20   12   23 1   
    21   14   22 1   
    22   15   22 1   
    23   16   23 1   
    24   17   23 1   
    25   21   24 1   
@<TRIPOS>SUBSTRUCTURE
     1 X06         1 TEMP              0 ****  ****    0 ROOT
