@<TRIPOS>MOLECULE
X06
   24    24     1     0     0
SMALL
bcc


@<TRIPOS>ATOM
      1 N01         0.0790    0.7820    0.1330 n2        1 X06     -0.277500
      2 N02        -0.0520   -0.1250    2.4210 n2        1 X06     -0.321000
      3 N03         1.9330   -0.5300    1.0140 n2        1 X06     -0.277500
      4 C06         2.1670   -0.6320   -3.4860 c2        1 X06     -0.043000
      5 C07         3.5910   -0.5450   -3.7430 c2        1 X06     -0.465000
      6 C08         4.5470   -1.3260   -3.2840 c1        1 X06      0.241000
      7 C09         3.1890    1.1730   -1.2450 c2        1 X06      0.030000
      8 C10         2.0720    0.4110   -1.2210 c2        1 X06     -0.094000
      9 C11         1.5040   -0.2240   -2.3900 c2        1 X06     -0.070000
     10 C12         1.3140    0.2080    0.0510 c2        1 X06      0.159000
     11 C13        -0.5800    0.5720    1.3450 c2        1 X06      0.202000
     12 C14         1.1980   -0.6820    2.1920 c2        1 X06      0.202000
     13 CL16        1.2900   -1.3370   -4.7790 cl        1 X06     -0.027000
     14 HN04       -2.1830    1.7290    0.8030 hn        1 X06      0.233750
     15 HN0A       -2.2760    1.0930    2.3750 hn        1 X06      0.233750
     16 HN05        2.6950   -1.7300    3.1220 hn        1 X06      0.233750
     17 HN0B        1.3210   -1.4580    4.0890 hn        1 X06      0.233750
     18 H07         3.8820    0.2510   -4.4670 ha        1 X06      0.200000
     19 H08         3.7760    1.3390   -2.1630 h4        1 X06      0.138000
     20 H11         0.4070   -0.3780   -2.3390 ha        1 X06      0.165000
     21 HO15        4.4690    2.2110   -0.3030 ho        1 X06      0.219000
     22 N04        -1.8740    1.0630    1.4700 nh        1 X06     -0.338500
     23 N05         1.7390   -1.4780    3.1910 nh        1 X06     -0.338500
     24 O15         3.6140    1.8020   -0.1040 oh        1 X06     -0.238000
@<TRIPOS>BOND
     1    1   10 1   
     2    1   11 1   
     3    2   11 1   
     4    2   12 1   
     5    3   10 1   
     6    3   12 1   
     7    4    5 1   
     8    4    9 1   
     9    4   13 1   
    10    5    6 1   
    11    5   18 1   
    12    7    8 1   
    13    7   19 1   
    14    7   24 1   
    15    8    9 1   
    16    8   10 1   
    17    9   20 1   
    18   11   22 1   
    19   12   23 1   
    20   14   22 1   
    21   15   22 1   
    22   16   23 1   
    23   17   23 1   
    24   21   24 1   
@<TRIPOS>SUBSTRUCTURE
     1 X06         1 TEMP              0 ****  ****    0 ROOT
