@<TRIPOS>MOLECULE
X06
   26    26     1     0     0
SMALL
bcc


@<TRIPOS>ATOM
      1 N01         0.0370   -0.0130   -0.2080 n2        1 X06     -0.168000
      2 N02         0.2280   -0.3360    2.2550 n3        1 X06     -0.318000
      3 N03         2.1720   -0.3460    0.8590 n3        1 X06     -0.326000
      4 C06         2.0320   -1.1160   -3.8970 c2        1 X06      0.134000
      5 C07         4.2490    2.4940   -2.8810 c1        1 X06      0.523000
      6 C08         3.2450    1.6590   -2.5830 c2        1 X06     -0.643000
      7 C09         3.2860    0.5030   -1.7260 c2        1 X06      0.307000
      8 C10         1.9930   -0.2630   -1.6080 c2        1 X06      0.131000
      9 C11         1.4400   -1.0030   -2.6150 c2        1 X06     -0.215000
     10 C12         1.3210   -0.1980   -0.2690 c2        1 X06      0.120000
     11 C13        -0.6550    0.0750    1.0930 c3        1 X06      0.188000
     12 C14         1.6010   -0.3570    2.1460 cz        1 X06      0.384000
     13 HN04       -2.2730    1.3310    1.2490 hn        1 X06      0.228500
     14 HN0A       -0.8350    2.1590    1.0490 hn        1 X06      0.228500
     15 HN05        3.3980   -0.5880    3.1490 hn        1 X06      0.293500
     16 HN0B       -0.1890   -0.2290    3.1640 hn        1 X06      0.292000
     17 H07         2.9710   -0.5580   -4.1270 h4        1 X06      0.215000
     18 H08         2.2600    1.9510   -3.0160 ha        1 X06      0.219000
     19 H11         0.4870   -1.5510   -2.4330 ha        1 X06      0.219000
     20 HO15        3.1610   -0.4730    0.7340 hn        1 X06      0.310000
     21 N04        -1.2840    1.3340    1.3780 n3        1 X06     -0.397000
     22 N05         2.4120   -0.4570    3.2380 n3        1 X06     -0.322000
     23 O15         4.2640    0.1060   -1.0840 o         1 X06     -0.238000
     24 H043       -1.4510   -0.7530    1.0690 h3        1 X06      0.192000
     25 H053        2.0270   -0.4620    4.1620 hn        1 X06      0.293500
     26 CL16        1.4190   -2.0250   -5.0780 cl        1 X06      0.347000
@<TRIPOS>BOND
     1    1   10 1   
     2    1   11 1   
     3    2   11 1   
     4    2   12 1   
     5    2   16 1   
     6    3   10 1   
     7    3   12 1   
     8    3   20 1   
     9    4    9 1   
    10    4   17 1   
    11    4   26 1   
    12    5    6 1   
    13    6    7 1   
    14    6   18 1   
    15    7    8 1   
    16    7   23 1   
    17    8    9 1   
    18    8   10 1   
    19    9   19 1   
    20   11   21 1   
    21   11   24 1   
    22   12   22 1   
    23   13   21 1   
    24   14   21 1   
    25   15   22 1   
    26   22   25 1   
@<TRIPOS>SUBSTRUCTURE
     1 X06         1 TEMP              0 ****  ****    0 ROOT
