@<TRIPOS>MOLECULE
X06
   24    24     1     0     0
SMALL
bcc


@<TRIPOS>ATOM
      1 N01         0.4980    0.3130   -0.3120 n2        1 X06     -0.282000
      2 N02        -0.1020    0.2460    2.0750 n2        1 X06     -0.321000
      3 N03         2.1090   -0.5350    1.3080 n2        1 X06     -0.282000
      4 C06         1.5540   -0.5860   -3.2400 c2        1 X06      0.269000
      5 C07         2.2050    0.1750   -4.1080 c1        1 X06     -0.607000
      6 C08         2.8180    0.9180   -4.9390 c1        1 X06      0.199000
      7 C09         3.9040    0.1430   -1.0810 c2        1 X06      0.046000
      8 C10         2.6830   -0.4320   -1.0520 c2        1 X06     -0.145000
      9 C11         2.2360   -1.3420   -2.1410 c3        1 X06     -0.106000
     10 C12         1.7110   -0.2020    0.0480 c2        1 X06      0.158000
     11 C13        -0.3910    0.5050    0.7450 c2        1 X06      0.205000
     12 C14         1.1650   -0.2700    2.3040 c2        1 X06      0.205000
     13 Cl16       -0.1220   -0.7860   -3.3580 cl        1 X06      0.027000
     14 HN04       -1.8240    1.3300   -0.4630 hn        1 X06      0.235000
     15 HN0A       -2.2370    1.2810    1.1810 hn        1 X06      0.235000
     16 HN05        2.3790   -0.9880    3.7970 hn        1 X06      0.235000
     17 HN0B        0.8430   -0.4630    4.3260 hn        1 X06      0.235000
     18 H07         3.1250   -1.8710   -2.5890 hc        1 X06      0.122000
     19 H08         4.6190   -0.0350   -1.9020 h4        1 X06      0.140000
     20 H11         1.5550   -2.1290   -1.7150 hc        1 X06      0.122000
     21 HO15        5.2000    1.2760   -0.2810 ho        1 X06      0.221000
     22 N04        -1.6770    0.9380    0.4370 nv        1 X06     -0.340000
     23 N05         1.5320   -0.5070    3.6170 nv        1 X06     -0.340000
     24 O15         4.2900    1.0060   -0.0910 oh        1 X06     -0.231000
@<TRIPOS>BOND
     1    1   10 1   
     2    1   11 1   
     3    2   11 1   
     4    2   12 1   
     5    3   10 1   
     6    3   12 1   
     7    4    5 1   
     8    4    9 1   
     9    4   13 1   
    10    5    6 1   
    11    7    8 1   
    12    7   19 1   
    13    7   24 1   
    14    8    9 1   
    15    8   10 1   
    16    9   18 1   
    17    9   20 1   
    18   11   22 1   
    19   12   23 1   
    20   14   22 1   
    21   15   22 1   
    22   16   23 1   
    23   17   23 1   
    24   21   24 1   
@<TRIPOS>SUBSTRUCTURE
     1 X06         1 TEMP              0 ****  ****    0 ROOT
