@<TRIPOS>MOLECULE
X07
   32    33     1     0     0
SMALL
bcc


@<TRIPOS>ATOM
      1 C1          0.0480   -0.0270   -0.0150 ca        1 X07     -0.238000
      2 C2          1.4250    0.0490   -0.0220 ca        1 X07      0.002000
      3 C3          2.1300    0.1150    1.1960 ca        1 X07     -0.259200
      4 C4          1.4340    0.0960    2.4120 ca        1 X07      0.008000
      5 C5          0.0460    0.0070    2.4310 ca        1 X07     -0.242600
      6 C6         -0.6930   -0.0420    1.2050 ca        1 X07      0.282600
      7 N7         -2.0600   -0.1570    1.2080 nh        1 X07     -0.749600
      8 C8         -0.6630   -0.0060    3.7410 c         1 X07      0.682700
      9 N9         -0.1290   -0.7560    4.7580 n         1 X07     -0.664000
     10 O10        -1.7260    0.6260    3.9380 o         1 X07     -0.632100
     11 N11         3.6040    0.2040    1.1910 no        1 X07      0.326200
     12 O12         4.1840    0.2450    0.1380 o         1 X07     -0.219000
     13 O13         4.1910    0.2280    2.2410 o         1 X07     -0.219000
     14 C14        -2.8290   -0.0620   -0.0100 c3        1 X07      0.260100
     15 C15        -7.0300    0.0490    0.5410 ca        1 X07      0.405200
     16 N16        -6.4400    1.0330   -0.1650 nb        1 X07     -0.660000
     17 C17        -5.1030    0.9790   -0.3080 ca        1 X07      0.413200
     18 C18        -4.3050   -0.0510    0.2330 ca        1 X07     -0.231600
     19 C19        -4.9360   -1.0650    0.9620 ca        1 X07     -0.075000
     20 C20        -6.3210   -1.0180    1.1230 ca        1 X07     -0.244300
     21 H1         -0.4810   -0.0740   -0.9790 ha        1 X07      0.150000
     22 H2          1.9770    0.0640   -0.9790 ha        1 X07      0.171000
     23 H4          2.0040    0.1700    3.3570 ha        1 X07      0.168000
     24 HN7        -2.5450    0.0310    2.0640 hn        1 X07      0.469800
     25 HN9         0.7080   -1.2640    4.6380 hn        1 X07      0.318500
     26 HN9A       -0.5670   -0.7510    5.6450 hn        1 X07      0.318500
     27 H14        -2.5350    0.8690   -0.5820 h1        1 X07      0.055200
     28 H14A       -2.5770   -0.9540   -0.6590 h1        1 X07      0.055200
     29 H17        -4.6490    1.8040   -0.8870 h4        1 X07      0.026100
     30 H19        -4.3490   -1.8860    1.4010 ha        1 X07      0.146000
     31 H20        -6.8510   -1.7940    1.6920 ha        1 X07      0.149000
     32 H15        -8.1280    0.1240    0.6440 h4        1 X07      0.027100
@<TRIPOS>BOND
     1    1    2 ar  
     2    1    6 ar  
     3    1   21 1   
     4    2    3 ar  
     5    2   22 1   
     6    3    4 ar  
     7    3   11 1   
     8    4    5 ar  
     9    4   23 1   
    10    5    6 ar  
    11    5    8 1   
    12    6    7 1   
    13    7   14 1   
    14    7   24 1   
    15    8    9 1   
    16    8   10 2   
    17    9   25 1   
    18    9   26 1   
    19   11   12 1   
    20   11   13 1   
    21   14   18 1   
    22   14   27 1   
    23   14   28 1   
    24   15   16 ar  
    25   15   20 ar  
    26   15   32 1   
    27   16   17 ar  
    28   17   18 ar  
    29   17   29 1   
    30   18   19 ar  
    31   19   20 ar  
    32   19   30 1   
    33   20   31 1   
@<TRIPOS>SUBSTRUCTURE
     1 X07         1 TEMP              0 ****  ****    0 ROOT
