@<TRIPOS>MOLECULE
X07
   32    27     1     0     0
SMALL
bcc


@<TRIPOS>ATOM
      1 C1          1.5350   -0.2340   -0.9840 c1        1 X07     -0.168500
      2 C2          2.9270   -0.2990   -0.9760 c1        1 X07      0.054500
      3 C3          3.6080   -0.4430    0.2280 c1        1 X07     -0.261300
      4 C4          2.9010   -0.5240    1.4220 c1        1 X07      0.060500
      5 C5          1.5130   -0.4600    1.4130 cg        1 X07     -0.183200
      6 C6          0.8290   -0.3150    0.2080 c1        1 X07      0.248800
      7 N7         -0.6200   -0.2800    0.1960 n3        1 X07     -0.713800
      8 C8          0.7430   -0.4820    2.7300 c         1 X07      0.633300
      9 N9          1.4500   -0.5680    3.9710 n         1 X07     -0.662000
     10 O10        -0.4680   -0.4430    2.7240 o         1 X07     -0.635100
     11 N11         5.0330   -0.5500    0.2340 no        1 X07      0.334300
     12 O12         5.6270   -0.7400    1.2860 o         1 X07     -0.217500
     13 O13         5.7280   -0.4820   -0.9400 o         1 X07     -0.217500
     14 C14        -1.3130    0.9510   -0.1280 c3        1 X07      0.217900
     15 C15        -4.8600    0.2160   -2.4270 c1        1 X07     -0.063500
     16 N16        -4.7350   -0.3270   -1.1780 n1        1 X07     -0.455800
     17 C17        -3.5930   -0.1260   -0.4550 c1        1 X07      0.330300
     18 C18        -2.5560    0.6310   -0.9890 c1        1 X07     -0.150100
     19 C19        -2.6810    1.1740   -2.2390 c1        1 X07     -0.024500
     20 C20        -3.8270    0.9720   -2.9620 c1        1 X07     -0.063500
     21 H1          1.0560   -0.1330   -1.8290 ha        1 X07      0.092500
     22 H2          3.4240   -0.2420   -1.8160 ha        1 X07      0.112500
     23 H4          3.3820   -0.6260    2.2690 ha        1 X07      0.111500
     24 HN7        -1.0960   -1.0280    0.4120 hn        1 X07      0.458800
     25 HN9         2.3220   -0.2950    4.0210 hn        1 X07      0.319000
     26 HN9A        1.0330   -0.9050    4.7150 hn        1 X07      0.319000
     27 H14        -1.5940    1.3940    0.6990 h1        1 X07      0.068700
     28 H14A       -0.7140    1.5410   -0.6260 h1        1 X07      0.068700
     29 H15        -5.6800    0.0710   -2.9440 ha        1 X07      0.098500
     30 H17        -3.5050   -0.5120    0.4330 ha        1 X07      0.110500
     31 H19        -1.9550    1.7050   -2.6140 ha        1 X07      0.079500
     32 H20        -3.9170    1.3600   -3.8540 ha        1 X07      0.098500
@<TRIPOS>BOND
     1    1    6 3   
     2    1   21 1   
     3    2    3 3   
     4    2   22 1   
     5    3   11 1   
     6    4    5 3   
     7    4   23 1   
     8    5    8 1   
     9    6    7 1   
    10    7   14 1   
    11    7   24 1   
    12    8    9 1   
    13    8   10 2   
    14    9   25 1   
    15    9   26 1   
    16   11   12 1   
    17   11   13 1   
    18   14   18 1   
    19   14   27 1   
    20   14   28 1   
    21   15   20 3   
    22   15   29 1   
    23   16   17 3   
    24   17   30 1   
    25   18   19 3   
    26   19   31 1   
    27   20   32 1   
@<TRIPOS>SUBSTRUCTURE
     1 X07         1 TEMP              0 ****  ****    0 ROOT
