@<TRIPOS>MOLECULE
X07
   33    34     1     0     0
SMALL
bcc


@<TRIPOS>ATOM
      1 C1          0.0010   -0.1630   -0.0030 ca        1 X07     -0.219000
      2 C2          1.3650   -0.1570   -0.0300 ca        1 X07      0.029000
      3 C3          2.0930   -0.0710    1.1920 ca        1 X07     -0.226200
      4 C4          1.4260    0.0100    2.3960 ca        1 X07      0.003000
      5 C5          0.0110    0.0110    2.4590 ca        1 X07     -0.323600
      6 C6         -0.7480   -0.0840    1.2320 ca        1 X07      0.327600
      7 N7         -2.0970   -0.0970    1.2070 nh        1 X07     -0.705600
      8 C8         -0.6670    0.1030    3.7240 c         1 X07      0.583700
      9 N9          0.1880    0.2470    4.9790 n4        1 X07     -0.757400
     10 O10        -1.8650    0.0920    4.0030 o         1 X07     -0.484100
     11 N11         3.5820   -0.0690    1.1660 no        1 X07      0.325200
     12 O12         4.1390   -0.1440    0.1100 o         1 X07     -0.183000
     13 O13         4.1610    0.0090    2.2160 o         1 X07     -0.183000
     14 C14        -2.8750   -0.1830   -0.0180 c3        1 X07      0.255100
     15 C15        -7.0410    0.0060    0.7150 ca        1 X07      0.427200
     16 N16        -6.2890    1.0970    0.9620 nb        1 X07     -0.649000
     17 C17        -4.9680    1.0060    0.7270 ca        1 X07      0.415200
     18 C18        -4.3430   -0.1660    0.2510 ca        1 X07     -0.270600
     19 C19        -5.1390   -1.2920    0.0040 ca        1 X07     -0.062000
     20 C20        -6.5110   -1.2070    0.2340 ca        1 X07     -0.237300
     21 H1         -0.5480   -0.2310   -0.9590 ha        1 X07      0.177000
     22 H2          1.9190   -0.2200   -0.9890 ha        1 X07      0.200000
     23 H4          2.0420    0.0720    3.3120 ha        1 X07      0.150000
     24 HN7        -2.6240   -0.0480    2.0570 hn        1 X07      0.473800
     25 HN9         0.7930   -0.5710    5.0910 hn        1 X07      0.468467
     26 HN9A        0.7700    1.0870    4.9160 hn        1 X07      0.468467
     27 H14        -2.6070    0.6950   -0.6790 h1        1 X07      0.076700
     28 H14A       -2.5940   -1.1340   -0.5620 h1        1 X07      0.076700
     29 H19        -4.6920   -2.2240   -0.3730 ha        1 X07      0.147000
     30 H20        -7.1720   -2.0650    0.0450 ha        1 X07      0.164000
     31 H15        -8.1250    0.1160    0.9120 h4        1 X07      0.044100
     32 H93        -0.4300    0.3240    5.7980 hn        1 X07      0.468467
     33 H17        -4.3820    1.9230    0.9220 h4        1 X07      0.024100
@<TRIPOS>BOND
     1    1    2 ar  
     2    1    6 ar  
     3    1   21 1   
     4    2    3 ar  
     5    2   22 1   
     6    3    4 ar  
     7    3   11 1   
     8    4    5 ar  
     9    4   23 1   
    10    5    6 ar  
    11    5    8 1   
    12    6    7 1   
    13    7   14 1   
    14    7   24 1   
    15    8    9 1   
    16    8   10 2   
    17    9   25 1   
    18    9   26 1   
    19    9   32 1   
    20   11   12 1   
    21   11   13 1   
    22   14   18 1   
    23   14   27 1   
    24   14   28 1   
    25   15   16 ar  
    26   15   20 ar  
    27   15   31 1   
    28   16   17 ar  
    29   17   18 ar  
    30   17   33 1   
    31   18   19 ar  
    32   19   20 ar  
    33   19   29 1   
    34   20   30 1   
@<TRIPOS>SUBSTRUCTURE
     1 X07         1 TEMP              0 ****  ****    0 ROOT
