@<TRIPOS>MOLECULE
X07
   32    33     1     0     0
SMALL
bcc


@<TRIPOS>ATOM
      1 C1         -1.0460   -1.5340   -0.0250 ca        1 X07     -0.238000
      2 C2         -2.4130   -1.6950    0.0470 ca        1 X07      0.002000
      3 C3         -3.2500   -0.5650    0.1250 ca        1 X07     -0.259200
      4 C4         -2.6950    0.7220    0.1220 ca        1 X07      0.008000
      5 C5         -1.3170    0.8960    0.0370 ca        1 X07     -0.242600
      6 C6         -0.4460   -0.2380   -0.0240 ca        1 X07      0.282600
      7 N7          0.9120   -0.0810   -0.1360 nh        1 X07     -0.749600
      8 C8         -0.7590    2.2780    0.0420 c         1 X07      0.682700
      9 N9         -1.4020    3.2370   -0.6970 n         1 X07     -0.664000
     10 O10         0.2750    2.5850    0.6790 o         1 X07     -0.632100
     11 N11        -4.7150   -0.7350    0.2100 no        1 X07      0.326200
     12 O12        -5.1740   -1.8470    0.2380 o         1 X07     -0.219000
     13 O13        -5.4150    0.2430    0.2450 o         1 X07     -0.219000
     14 C14         1.8120   -1.2070   -0.0530 c3        1 X07      0.260100
     15 C15         5.9250   -0.1920    0.0750 ca        1 X07      0.405200
     16 N16         5.4170   -0.9710    1.0500 nb        1 X07     -0.660000
     17 C17         4.1040   -1.2620    0.9910 ca        1 X07      0.413200
     18 C18         3.2520   -0.8020   -0.0350 ca        1 X07     -0.231600
     19 C19         3.7990    0.0060   -1.0390 ca        1 X07     -0.075000
     20 C20         5.1570    0.3200   -0.9870 ca        1 X07     -0.244300
     21 H1         -0.4120   -2.4320   -0.0820 ha        1 X07      0.150000
     22 H2         -2.8550   -2.7080    0.0490 ha        1 X07      0.171000
     23 H4         -3.3660    1.5970    0.2060 ha        1 X07      0.168000
     24 HN7         1.2990    0.8210    0.0640 hn        1 X07      0.469800
     25 HN9        -2.2200    3.0300   -1.2100 hn        1 X07      0.318500
     26 HN9A       -1.0650    4.1680   -0.6810 hn        1 X07      0.318500
     27 H14         1.5830   -1.8200    0.8700 h1        1 X07      0.055200
     28 H14A        1.6350   -1.8690   -0.9530 h1        1 X07      0.055200
     29 H17         3.7170   -1.8980    1.8080 h4        1 X07      0.026100
     30 H19         3.1680    0.3860   -1.8560 ha        1 X07      0.146000
     31 H20         5.6220    0.9530   -1.7540 ha        1 X07      0.149000
     32 H15         7.0050    0.0320    0.1540 h4        1 X07      0.027100
@<TRIPOS>BOND
     1    1    2 ar  
     2    1    6 ar  
     3    1   21 1   
     4    2    3 ar  
     5    2   22 1   
     6    3    4 ar  
     7    3   11 1   
     8    4    5 ar  
     9    4   23 1   
    10    5    6 ar  
    11    5    8 1   
    12    6    7 1   
    13    7   14 1   
    14    7   24 1   
    15    8    9 1   
    16    8   10 2   
    17    9   25 1   
    18    9   26 1   
    19   11   12 1   
    20   11   13 1   
    21   14   18 1   
    22   14   27 1   
    23   14   28 1   
    24   15   16 ar  
    25   15   20 ar  
    26   15   32 1   
    27   16   17 ar  
    28   17   18 ar  
    29   17   29 1   
    30   18   19 ar  
    31   19   20 ar  
    32   19   30 1   
    33   20   31 1   
@<TRIPOS>SUBSTRUCTURE
     1 X07         1 TEMP              0 ****  ****    0 ROOT
