@<TRIPOS>MOLECULE
X09
   30    31     1     0     0
SMALL
bcc


@<TRIPOS>ATOM
      1 OAC         0.1050   -0.6660    0.9410 oh        1 X09     -0.571800
      2 CAI         1.2000   -0.2310    0.1840 c3        1 X09      0.139100
      3 CAJ         2.3360    0.3870    1.0350 c3        1 X09      0.103100
      4 OAD         2.9570    1.3760    0.2330 oh        1 X09     -0.613800
      5 CAL         3.3360   -0.7770    1.2650 c3        1 X09      0.131500
      6 CAH         3.2350   -1.4300    2.6700 c3        1 X09      0.129100
      7 OAB         2.0150   -1.0180    3.2660 oh        1 X09     -0.620800
      8 CAF         3.2420   -2.9430    2.4160 c3        1 X09     -0.131400
      9 CAG         3.0320   -3.1260    0.9060 c3        1 X09      0.151800
     10 NAM         3.0880   -1.8220    0.2400 n3        1 X09     -0.748600
     11 CAK         1.8950   -1.4420   -0.5250 c3        1 X09      0.100500
     12 CAE         2.2850   -0.9400   -1.9370 c3        1 X09      0.101800
     13 NAA         3.3120   -1.7890   -2.6020 n4        1 X09     -0.825600
     14 HAC         0.4330   -1.0460    1.7720 ho        1 X09      0.434000
     15 HAI         0.7800    0.5050   -0.5530 h1        1 X09      0.105700
     16 HAJ         1.9460    0.8060    1.9990 h1        1 X09      0.110700
     17 HAK         1.1630   -2.2920   -0.6240 h1        1 X09      0.091700
     18 HAD         3.2150    2.1020    0.8140 ho        1 X09      0.431000
     19 HAL         4.3880   -0.4060    1.1130 h1        1 X09      0.094700
     20 HAH         4.0990   -1.1100    3.3110 h1        1 X09      0.070700
     21 HAB         2.0070   -1.3610    4.1690 ho        1 X09      0.431000
     22 HAF1        2.4270   -3.4470    2.9910 hc        1 X09      0.076200
     23 HAF2        4.2180   -3.3870    2.7310 hc        1 X09      0.076200
     24 HAG1        2.0650   -3.6660    0.7150 h1        1 X09      0.056200
     25 HAG2        3.8650   -3.7460    0.4720 h1        1 X09      0.056200
     26 HAE1        2.7100    0.1060   -1.8550 hx        1 X09      0.119700
     27 HAE2        1.3630   -0.9250   -2.5840 hx        1 X09      0.119700
     28 HAA1        3.0010   -2.7640   -2.6260 hn        1 X09      0.460467
     29 HAA2        4.1910   -1.7430   -2.0700 hn        1 X09      0.460467
     30 HAA3        3.4780   -1.4610   -3.5560 hn        1 X09      0.460467
@<TRIPOS>BOND
     1    1    2 1   
     2    1   14 1   
     3    2    3 1   
     4    2   11 1   
     5    2   15 1   
     6    3    4 1   
     7    3    5 1   
     8    3   16 1   
     9    4   18 1   
    10    5    6 1   
    11    5   10 1   
    12    5   19 1   
    13    6    7 1   
    14    6    8 1   
    15    6   20 1   
    16    7   21 1   
    17    8    9 1   
    18    8   22 1   
    19    8   23 1   
    20    9   10 1   
    21    9   24 1   
    22    9   25 1   
    23   10   11 1   
    24   11   12 1   
    25   11   17 1   
    26   12   13 1   
    27   12   26 1   
    28   12   27 1   
    29   13   28 1   
    30   13   29 1   
    31   13   30 1   
@<TRIPOS>SUBSTRUCTURE
     1 X09         1 TEMP              0 ****  ****    0 ROOT
