@<TRIPOS>MOLECULE
X09
   30    31     1     0     0
SMALL
bcc


@<TRIPOS>ATOM
      1 OAC         0.1150   -0.6440    0.9670 oh        1 X09     -0.571800
      2 CAI         1.2030   -0.2250    0.1910 c3        1 X09      0.139100
      3 CAJ         2.3540    0.3940    1.0210 c3        1 X09      0.103100
      4 OAD         2.9720    1.3700    0.2000 oh        1 X09     -0.613800
      5 CAL         3.3490   -0.7740    1.2490 c3        1 X09      0.131500
      6 CAH         3.2620   -1.4110    2.6630 c3        1 X09      0.129100
      7 OAB         2.0540   -0.9850    3.2700 oh        1 X09     -0.620800
      8 CAF         3.2560   -2.9270    2.4250 c3        1 X09     -0.131400
      9 CAG         3.0250   -3.1240    0.9200 c3        1 X09      0.151800
     10 NAM         3.0810   -1.8280    0.2400 n3        1 X09     -0.748600
     11 CAK         1.8810   -1.4480   -0.5140 c3        1 X09      0.100500
     12 CAE         2.2560   -0.9640   -1.9370 c3        1 X09      0.101800
     13 NAA         3.2680   -1.8270   -2.6050 n4        1 X09     -0.825600
     14 HAC         0.4510   -1.0170    1.7970 ho        1 X09      0.434000
     15 HAI         0.7780    0.5070   -0.5480 h1        1 X09      0.105700
     16 HAJ         1.9800    0.8260    1.9850 h1        1 X09      0.110700
     17 HAK         1.1420   -2.2940   -0.5950 h1        1 X09      0.091700
     18 HAD         3.2400    2.1020    0.7690 ho        1 X09      0.431000
     19 HAL         4.4020   -0.4120    1.0800 h1        1 X09      0.094700
     20 HAH         4.1370   -1.0910    3.2890 h1        1 X09      0.070700
     21 HAB         2.0540   -1.3180    4.1770 ho        1 X09      0.431000
     22 HAF1        2.4460   -3.4190    3.0160 hc        1 X09      0.076200
     23 HAF2        4.2340   -3.3740    2.7310 hc        1 X09      0.076200
     24 HAG1        2.0510   -3.6590    0.7480 h1        1 X09      0.056200
     25 HAG2        3.8470   -3.7550    0.4820 h1        1 X09      0.056200
     26 HAE1        1.3250   -0.9490   -2.5710 hx        1 X09      0.119700
     27 HAE2        2.6880    0.0810   -1.8710 hx        1 X09      0.119700
     28 HAA1        3.4240   -1.5100   -3.5650 hn        1 X09      0.460467
     29 HAA2        4.1550   -1.7810   -2.0860 hn        1 X09      0.460467
     30 HAA3        2.9510   -2.8000   -2.6150 hn        1 X09      0.460467
@<TRIPOS>BOND
     1    1    2 1   
     2    1   14 1   
     3    2    3 1   
     4    2   11 1   
     5    2   15 1   
     6    3    4 1   
     7    3    5 1   
     8    3   16 1   
     9    4   18 1   
    10    5    6 1   
    11    5   10 1   
    12    5   19 1   
    13    6    7 1   
    14    6    8 1   
    15    6   20 1   
    16    7   21 1   
    17    8    9 1   
    18    8   22 1   
    19    8   23 1   
    20    9   10 1   
    21    9   24 1   
    22    9   25 1   
    23   10   11 1   
    24   11   12 1   
    25   11   17 1   
    26   12   13 1   
    27   12   26 1   
    28   12   27 1   
    29   13   28 1   
    30   13   29 1   
    31   13   30 1   
@<TRIPOS>SUBSTRUCTURE
     1 X09         1 TEMP              0 ****  ****    0 ROOT
