@<TRIPOS>MOLECULE
X09
   29    30     1     0     0
SMALL
bcc


@<TRIPOS>ATOM
      1 OAC        -1.0410    2.0870    1.3900 oh        1 X09     -0.598800
      2 CAI        -0.8140    1.4640    0.1410 c3        1 X09      0.128100
      3 CAJ         0.6940    1.3370   -0.1700 c3        1 X09      0.095100
      4 OAD         1.0340    2.3420   -1.1050 oh        1 X09     -0.598800
      5 CAL         0.8450   -0.0820   -0.7690 c3        1 X09      0.130500
      6 CAH         2.0960   -0.8610   -0.2850 c3        1 X09      0.128100
      7 OAB         2.9530    0.0210    0.4170 oh        1 X09     -0.604800
      8 CAF         1.5610   -2.0030    0.5870 c3        1 X09     -0.139400
      9 CAG         0.0510   -2.0620    0.3090 c3        1 X09      0.163800
     10 NAM        -0.3600   -0.8720   -0.4360 n3        1 X09     -0.684600
     11 CAK        -1.3230   -0.0010    0.2540 c3        1 X09      0.171500
     12 CAE        -2.7380   -0.0940   -0.3620 c3        1 X09      0.170800
     13 NAA        -3.3990   -1.3410   -0.0670 n3        1 X09     -0.911800
     14 HAC        -0.6910    2.9830    1.3160 ho        1 X09      0.411000
     15 HAI        -1.3370    2.0280   -0.6770 h1        1 X09      0.067700
     16 HAJ         1.3010    1.4600    0.7670 h1        1 X09      0.077700
     17 HAK        -1.3980   -0.2490    1.3560 h1        1 X09      0.059700
     18 HAD         1.9810    2.2510   -1.2680 ho        1 X09      0.413000
     19 HAL         0.8840    0.0020   -1.8920 h1        1 X09      0.082700
     20 HAH         2.6510   -1.2700   -1.1740 h1        1 X09      0.044700
     21 HAB         3.6470   -0.5210    0.8100 ho        1 X09      0.408000
     22 HAF1        2.0490   -2.9720    0.3270 hc        1 X09      0.054700
     23 HAF2        1.7560   -1.7900    1.6680 hc        1 X09      0.054700
     24 HAG1       -0.1860   -2.9440   -0.3480 h1        1 X09      0.056200
     25 HAG2       -0.5210   -2.1890    1.2670 h1        1 X09      0.056200
     26 HAE1       -3.3080    0.8030    0.0260 h1        1 X09      0.035200
     27 HAE2       -2.6690    0.0040   -1.4820 h1        1 X09      0.035200
     28 HAA1       -3.4900   -1.4760    0.9200 hn        1 X09      0.346800
     29 HAA2       -4.3060   -1.3610   -0.4880 hn        1 X09      0.346800
@<TRIPOS>BOND
     1    1    2 1   
     2    1   14 1   
     3    2    3 1   
     4    2   11 1   
     5    2   15 1   
     6    3    4 1   
     7    3    5 1   
     8    3   16 1   
     9    4   18 1   
    10    5    6 1   
    11    5   10 1   
    12    5   19 1   
    13    6    7 1   
    14    6    8 1   
    15    6   20 1   
    16    7   21 1   
    17    8    9 1   
    18    8   22 1   
    19    8   23 1   
    20    9   10 1   
    21    9   24 1   
    22    9   25 1   
    23   10   11 1   
    24   11   12 1   
    25   11   17 1   
    26   12   13 1   
    27   12   26 1   
    28   12   27 1   
    29   13   28 1   
    30   13   29 1   
@<TRIPOS>SUBSTRUCTURE
     1 X09         1 TEMP              0 ****  ****    0 ROOT
