@<TRIPOS>MOLECULE
X09
   30    31     1     0     0
SMALL
bcc


@<TRIPOS>ATOM
      1 OAC         0.1150   -0.6380    0.9560 oh        1 X09     -0.571800
      2 CAI         1.2080   -0.2180    0.1890 c3        1 X09      0.139100
      3 CAJ         2.3570    0.3920    1.0290 c3        1 X09      0.103100
      4 OAD         2.9830    1.3700    0.2180 oh        1 X09     -0.613800
      5 CAL         3.3460   -0.7810    1.2570 c3        1 X09      0.131500
      6 CAH         3.2490   -1.4270    2.6660 c3        1 X09      0.129100
      7 OAB         2.0380   -1.0000    3.2680 oh        1 X09     -0.620800
      8 CAF         3.2390   -2.9410    2.4190 c3        1 X09     -0.131400
      9 CAG         3.0160   -3.1290    0.9120 c3        1 X09      0.151800
     10 NAM         3.0810   -1.8280    0.2390 n3        1 X09     -0.748600
     11 CAK         1.8870   -1.4400   -0.5200 c3        1 X09      0.100500
     12 CAE         2.2720   -0.9480   -1.9370 c3        1 X09      0.101800
     13 NAA         3.2850   -1.8110   -2.6040 nz        1 X09     -0.825600
     14 HAC         0.4450   -1.0180    1.7860 ho        1 X09      0.434000
     15 HAI         0.7910    0.5190   -0.5480 h1        1 X09      0.105700
     16 HAJ         1.9790    0.8190    1.9940 h1        1 X09      0.110700
     17 HAK         1.1450   -2.2830   -0.6100 h1        1 X09      0.091700
     18 HAD         3.2490    2.0990    0.7930 ho        1 X09      0.431000
     19 HAL         4.4010   -0.4220    1.0960 h1        1 X09      0.094700
     20 HAH         4.1210   -1.1130    3.2990 h1        1 X09      0.070700
     21 HAB         2.0320   -1.3380    4.1730 ho        1 X09      0.431000
     22 HAF1        2.4230   -3.4340    3.0030 hc        1 X09      0.076200
     23 HAF2        4.2130   -3.3930    2.7280 hc        1 X09      0.076200
     24 HAG1        2.0410   -3.6590    0.7310 h1        1 X09      0.056200
     25 HAG2        3.8390   -3.7600    0.4750 h1        1 X09      0.056200
     26 HAE1        1.3450   -0.9270   -2.5770 hx        1 X09      0.119700
     27 HAE2        2.7080    0.0940   -1.8620 hx        1 X09      0.119700
     28 HAA1        3.4480   -1.4890   -3.5610 hn        1 X09      0.460467
     29 HAA2        2.9650   -2.7830   -2.6220 hn        1 X09      0.460467
     30 HAA3        4.1690   -1.7710   -2.0790 hn        1 X09      0.460467
@<TRIPOS>BOND
     1    1    2 1   
     2    1   14 1   
     3    2    3 1   
     4    2   11 1   
     5    2   15 1   
     6    3    4 1   
     7    3    5 1   
     8    3   16 1   
     9    4   18 1   
    10    5    6 1   
    11    5   10 1   
    12    5   19 1   
    13    6    7 1   
    14    6    8 1   
    15    6   20 1   
    16    7   21 1   
    17    8    9 1   
    18    8   22 1   
    19    8   23 1   
    20    9   10 1   
    21    9   24 1   
    22    9   25 1   
    23   10   11 1   
    24   11   12 1   
    25   11   17 1   
    26   12   13 1   
    27   12   26 1   
    28   12   27 1   
    29   13   28 1   
    30   13   29 1   
    31   13   30 1   
@<TRIPOS>SUBSTRUCTURE
     1 X09         1 TEMP              0 ****  ****    0 ROOT
