@<TRIPOS>MOLECULE
X0A
   34    33     1     0     0
SMALL
bcc


@<TRIPOS>ATOM
      1 N01        -0.0470    0.1550   -0.2970 n2        1 X0A     -0.326000
      2 N02        -0.0950   -0.2100    2.1380 n2        1 X0A     -0.301000
      3 N03         1.9120   -0.7500    0.8220 n2        1 X0A     -0.282000
      4 C06         3.9610    0.8770   -2.4210 c2        1 X0A     -0.031000
      5 C07         3.2960    1.5600   -3.5060 c2        1 X0A     -0.463000
      6 C08         3.7770    2.0240   -4.6420 c1        1 X0A      0.238000
      7 C09         1.3810   -0.6750   -2.7580 c2        1 X0A      0.076000
      8 C10         1.9600   -0.3240   -1.5820 c2        1 X0A     -0.180000
      9 C11         3.3650    0.0500   -1.5400 c2        1 X0A     -0.082000
     10 C12         1.2380   -0.3150   -0.2820 c2        1 X0A      0.165000
     11 C13        -0.6840    0.1790    0.9410 c2        1 X0A      0.209000
     12 C14         1.1950   -0.6890    2.0170 c2        1 X0A      0.208000
     13 C15         1.3850   -0.9300    4.4630 c2        1 X0A      0.069000
     14 C16         0.1720   -1.3040    4.9210 c2        1 X0A     -0.193000
     15 C17        -1.8360    1.0930    7.7420 c1        1 X0A      0.171000
     16 C18        -0.7680    0.3970    8.0130 c2        1 X0A     -0.575000
     17 C19         2.0010    0.5380    6.3580 c1        1 X0A      0.201000
     18 C20         2.3360   -0.2560    5.3630 c2        1 X0A     -0.454000
     19 Cl22        5.6370    1.1900   -2.2660 cl        1 X0A     -0.027000
     20 HN04       -2.3790    1.0540    0.1910 hn        1 X0A      0.237000
     21 HN0A       -2.4150    0.7730    1.8670 hn        1 X0A      0.237000
     22 HN05        2.8260   -1.3470    3.0590 hn        1 X0A      0.243000
     23 H07         2.2020    1.7250   -3.3410 ha        1 X0A      0.207000
     24 H08         1.9540   -0.6970   -3.7080 h4        1 X0A      0.177000
     25 H11         3.9540   -0.3900   -0.7130 ha        1 X0A      0.168000
     26 H16        -0.5750   -1.8150    4.3010 ha        1 X0A      0.137500
     27 H17        -0.1290   -1.0850    5.9560 ha        1 X0A      0.137500
     28 H18        -0.7740   -0.6030    8.4720 ha        1 X0A      0.201500
     29 H19         0.2580    0.7710    7.8180 ha        1 X0A      0.201500
     30 H20         3.4160   -0.4440    5.1870 ha        1 X0A      0.196000
     31 HO21       -0.4210   -1.0580   -2.1840 ho        1 X0A      0.246000
     32 N04        -2.0120    0.5800    0.9810 nv        1 X0A     -0.333000
     33 N05         1.8420   -1.2020    3.1520 nu        1 X0A     -0.236000
     34 O21         0.1120   -1.0810   -2.9950 oh        1 X0A     -0.243000
@<TRIPOS>BOND
     1    1   10 1   
     2    1   11 1   
     3    2   11 1   
     4    2   12 1   
     5    3   10 1   
     6    3   12 1   
     7    4    5 1   
     8    4    9 1   
     9    4   19 1   
    10    5    6 1   
    11    5   23 1   
    12    7    8 1   
    13    7   24 1   
    14    7   34 1   
    15    8    9 1   
    16    8   10 1   
    17    9   25 1   
    18   11   32 1   
    19   12   33 1   
    20   13   14 1   
    21   13   18 1   
    22   13   33 1   
    23   14   26 1   
    24   14   27 1   
    25   15   16 1   
    26   16   28 1   
    27   16   29 1   
    28   17   18 1   
    29   18   30 1   
    30   20   32 1   
    31   21   32 1   
    32   22   33 1   
    33   31   34 1   
@<TRIPOS>SUBSTRUCTURE
     1 X0A         1 TEMP              0 ****  ****    0 ROOT
