@<TRIPOS>MOLECULE
X0A
   34    33     1     0     0
SMALL
bcc


@<TRIPOS>ATOM
      1 N01        -0.0000    0.3060   -0.6570 n2        1 X0A     -0.327000
      2 N02        -0.0180    0.2090    1.8040 n2        1 X0A     -0.302000
      3 N03         1.9000   -0.6490    0.5200 n2        1 X0A     -0.287000
      4 C06         3.9540    0.4610   -2.9600 c2        1 X0A     -0.032000
      5 C07         3.2970    1.0120   -4.1220 c2        1 X0A     -0.462000
      6 C08         3.7680    1.2660   -5.3270 c1        1 X0A      0.236000
      7 C09         1.2840   -0.9670   -3.0170 c2        1 X0A      0.072000
      8 C10         1.9190   -0.4960   -1.9150 c2        1 X0A     -0.177000
      9 C11         3.3400   -0.1940   -1.9550 c2        1 X0A     -0.081000
     10 C12         1.2400   -0.2750   -0.6100 c2        1 X0A      0.162000
     11 C13        -0.6000    0.5150    0.5810 c2        1 X0A      0.205000
     12 C14         1.2310   -0.3780    1.7200 c2        1 X0A      0.216000
     13 C15         1.4420   -0.6570    4.1920 c2        1 X0A     -0.031000
     14 C16         0.1790   -0.6920    4.6400 c2        1 X0A     -0.254000
     15 C17        -0.5730   -0.8740    8.2110 c1        1 X0A     -0.197000
     16 C18         0.1460   -0.1310    8.8160 c1        1 X0A     -0.104000
     17 C19         0.9760    0.7460    9.5150 c2        1 X0A     -0.373000
     18 C20         2.0400    0.4610   10.2450 c1        1 X0A      0.241000
     19 CL22        5.6470    0.7050   -2.8840 cl        1 X0A     -0.027000
     20 HN04       -2.2310    1.4500   -0.2330 hn        1 X0A      0.232500
     21 HN0A       -2.2460    1.3620    1.4610 hn        1 X0A      0.232500
     22 HN05        2.8360   -1.0870    2.7620 hn        1 X0A      0.256000
     23 H07         2.2210    1.2700   -3.9590 ha        1 X0A      0.207000
     24 H08         1.8200   -1.1490   -3.9710 h4        1 X0A      0.177000
     25 H11         3.9280   -0.5360   -1.0820 ha        1 X0A      0.168000
     26 H16        -0.7150   -0.7590    4.0130 ha        1 X0A      0.133000
     27 H17        -0.0100   -0.6400    5.7220 ha        1 X0A      0.133000
     28 H18        -1.2110   -1.5340    7.6810 ha        1 X0A      0.230000
     29 H19         0.6970    1.8260    9.4430 ha        1 X0A      0.204000
     30 H20         2.2860   -0.6040    4.9140 h4        1 X0A      0.134000
     31 HO21       -0.5140   -1.1640   -2.3450 ho        1 X0A      0.245000
     32 N04        -1.8950    1.0220    0.5970 nh        1 X0A     -0.331000
     33 N05         1.9230   -0.7030    2.8840 nh        1 X0A     -0.253000
     34 O21        -0.0130   -1.3300   -3.1590 oh        1 X0A     -0.244000
@<TRIPOS>BOND
     1    1   10 1   
     2    1   11 1   
     3    2   11 1   
     4    2   12 1   
     5    3   10 1   
     6    3   12 1   
     7    4    5 1   
     8    4    9 1   
     9    4   19 1   
    10    5    6 1   
    11    5   23 1   
    12    7    8 1   
    13    7   24 1   
    14    7   34 1   
    15    8    9 1   
    16    8   10 1   
    17    9   25 1   
    18   11   32 1   
    19   12   33 1   
    20   13   14 1   
    21   13   30 1   
    22   13   33 1   
    23   14   26 1   
    24   14   27 1   
    25   15   16 1   
    26   15   28 1   
    27   16   17 1   
    28   17   18 1   
    29   17   29 1   
    30   20   32 1   
    31   21   32 1   
    32   22   33 1   
    33   31   34 1   
@<TRIPOS>SUBSTRUCTURE
     1 X0A         1 TEMP              0 ****  ****    0 ROOT
