@<TRIPOS>MOLECULE
X0A
   34    36     1     0     0
SMALL
bcc


@<TRIPOS>ATOM
      1 N01        -0.4350    2.0390   -0.4240 nb        1 X0A     -0.836000
      2 N02         1.8950    1.2900   -0.1400 nb        1 X0A     -0.825000
      3 N03         0.0170   -0.2370    0.3030 nb        1 X0A     -0.804000
      4 C06        -4.0690   -1.0120   -0.6800 ca        1 X0A     -0.033600
      5 C07        -5.0160   -0.1510   -0.1060 ca        1 X0A     -0.074000
      6 C08        -4.5990    1.0230    0.4980 ca        1 X0A     -0.166000
      7 C09        -3.2260    1.3530    0.5330 ca        1 X0A      0.182100
      8 C10        -2.2770    0.4890   -0.0420 cp        1 X0A     -0.221500
      9 C11        -2.7120   -0.7000   -0.6470 ca        1 X0A     -0.046000
     10 C12        -0.8180    0.7830   -0.0450 cp        1 X0A      0.782500
     11 C13         0.9420    2.2530   -0.4470 ca        1 X0A      0.923900
     12 C14         1.3810    0.0700    0.2540 ca        1 X0A      0.926900
     13 C15         3.6440   -0.9140    0.4450 ca        1 X0A      0.132600
     14 C16         4.4510    0.1420    0.9140 ca        1 X0A     -0.134500
     15 C17         5.8300    0.0990    0.7230 ca        1 X0A     -0.118500
     16 C18         6.4280   -0.9830    0.0800 ca        1 X0A     -0.136000
     17 C19         5.6370   -2.0360   -0.3780 ca        1 X0A     -0.118500
     18 C20         4.2580   -2.0090   -0.2060 ca        1 X0A     -0.134500
     19 CL22       -4.5850   -2.4520   -1.4230 cl        1 X0A     -0.093400
     20 HN04        0.7520    4.1600   -1.1730 hn        1 X0A      0.441800
     21 HN0A        2.3580    3.6440   -0.9600 hn        1 X0A      0.441800
     22 HN05        1.8480   -1.8540    0.7530 hn        1 X0A      0.451800
     23 H07        -6.0870   -0.4060   -0.1360 ha        1 X0A      0.151000
     24 H08        -5.3210    1.7130    0.9580 ha        1 X0A      0.158000
     25 H11        -1.9780   -1.3870   -1.0960 ha        1 X0A      0.161000
     26 H16         4.0030    1.0030    1.4330 ha        1 X0A      0.144000
     27 H17         6.4510    0.9310    1.0900 ha        1 X0A      0.135000
     28 H18         7.5180   -1.0080   -0.0640 ha        1 X0A      0.135000
     29 H19         6.1040   -2.8950   -0.8840 ha        1 X0A      0.135000
     30 H20         3.6510   -2.8500   -0.5770 ha        1 X0A      0.144000
     31 HO21       -2.0030    2.7290    1.1010 ho        1 X0A      0.444000
     32 N04         1.3940    3.5270   -0.7590 nh        1 X0A     -0.936500
     33 N05         2.2500   -0.9410    0.6800 nh        1 X0A     -0.715300
     34 O21        -2.9460    2.5260    1.1810 oh        1 X0A     -0.494100
@<TRIPOS>BOND
     1    1   10 ar  
     2    1   11 ar  
     3    2   11 ar  
     4    2   12 ar  
     5    3   10 ar  
     6    3   12 ar  
     7    4    5 ar  
     8    4    9 ar  
     9    4   19 1   
    10    5    6 ar  
    11    5   23 1   
    12    6    7 ar  
    13    6   24 1   
    14    7    8 ar  
    15    7   34 1   
    16    8    9 ar  
    17    8   10 1   
    18    9   25 1   
    19   11   32 1   
    20   12   33 1   
    21   13   14 ar  
    22   13   18 ar  
    23   13   33 1   
    24   14   15 ar  
    25   14   26 1   
    26   15   16 ar  
    27   15   27 1   
    28   16   17 ar  
    29   16   28 1   
    30   17   18 ar  
    31   17   29 1   
    32   18   30 1   
    33   20   32 1   
    34   21   32 1   
    35   22   33 1   
    36   31   34 1   
@<TRIPOS>SUBSTRUCTURE
     1 X0A         1 TEMP              0 ****  ****    0 ROOT
