@<TRIPOS>MOLECULE
X0A
   34    33     1     0     0
SMALL
bcc


@<TRIPOS>ATOM
      1 N01         0.1290    0.4970    0.1880 n2        1 X0A     -0.329000
      2 N02         0.3510   -0.3270    2.5000 n2        1 X0A     -0.319000
      3 N03         1.9630   -0.9870    0.7620 n2        1 X0A     -0.289000
      4 C06         3.8370    0.7690   -2.5210 c2        1 X0A     -0.032000
      5 C07         3.2030    1.7690   -3.3480 c2        1 X0A     -0.462000
      6 C08         3.6020    2.3200   -4.4770 c1        1 X0A      0.236000
      7 C09         0.9400   -0.1030   -2.5960 c2        1 X0A      0.076000
      8 C10         1.7550   -0.1200   -1.5110 c2        1 X0A     -0.180000
      9 C11         3.1980   -0.0640   -1.6770 c2        1 X0A     -0.081000
     10 C12         1.2570   -0.2140   -0.1130 c2        1 X0A      0.167000
     11 C13        -0.3020    0.4040    1.5100 c2        1 X0A      0.211000
     12 C14         1.4740   -1.0040    2.0690 c2        1 X0A      0.209000
     13 C15         1.7870   -2.2330    4.2100 c2        1 X0A     -0.033000
     14 C16         0.5300   -2.4870    4.6020 c2        1 X0A     -0.272000
     15 C17         0.1220    1.3070    8.2480 c1        1 X0A     -0.195000
     16 C18        -0.0160    1.0140    7.0960 c1        1 X0A     -0.103000
     17 C19        -0.1680    0.6630    5.7550 c2        1 X0A     -0.346000
     18 C20        -0.9260    1.1930    4.8210 c1        1 X0A      0.192000
     19 CL22        5.5430    0.6880   -2.6390 cl        1 X0A     -0.027000
     20 HN04       -1.8420    1.7130    1.2160 hn        1 X0A      0.245000
     21 HN0A       -1.6830    1.1730    2.8240 hn        1 X0A      0.245000
     22 HN05        3.0770   -2.1390    2.6380 hn        1 X0A      0.251000
     23 H07         2.2230    2.1350   -2.9520 ha        1 X0A      0.207000
     24 H08         1.3440   -0.0600   -3.6290 h4        1 X0A      0.176000
     25 H11         3.7810   -0.7640   -1.0500 ha        1 X0A      0.168000
     26 H16        -0.3630   -2.3290    3.9870 ha        1 X0A      0.134500
     27 H17         0.3420   -2.8860    5.6070 ha        1 X0A      0.134500
     28 H18         0.2430    1.5690    9.2680 ha        1 X0A      0.228000
     29 H19         0.4500   -0.2110    5.4030 ha        1 X0A      0.230000
     30 H20         2.6410   -2.4510    4.8880 h4        1 X0A      0.138000
     31 HO21       -0.7960   -0.1920   -1.7600 ho        1 X0A      0.247000
     32 N04        -1.4860    1.0380    1.8520 nh        1 X0A     -0.331000
     33 N05         2.2480   -1.7120    3.0000 nh        1 X0A     -0.252000
     34 O21        -0.4100   -0.1760   -2.6500 oh        1 X0A     -0.244000
@<TRIPOS>BOND
     1    1   10 1   
     2    1   11 1   
     3    2   11 1   
     4    2   12 1   
     5    3   10 1   
     6    3   12 1   
     7    4    5 1   
     8    4    9 1   
     9    4   19 1   
    10    5    6 1   
    11    5   23 1   
    12    7    8 1   
    13    7   24 1   
    14    7   34 1   
    15    8    9 1   
    16    8   10 1   
    17    9   25 1   
    18   11   32 1   
    19   12   33 1   
    20   13   14 1   
    21   13   30 1   
    22   13   33 1   
    23   14   26 1   
    24   14   27 1   
    25   15   16 1   
    26   15   28 1   
    27   16   17 1   
    28   17   18 1   
    29   17   29 1   
    30   20   32 1   
    31   21   32 1   
    32   22   33 1   
    33   31   34 1   
@<TRIPOS>SUBSTRUCTURE
     1 X0A         1 TEMP              0 ****  ****    0 ROOT
