@<TRIPOS>MOLECULE
X0B
   70    75     1     0     0
SMALL
bcc


@<TRIPOS>ATOM
      1 O1          4.9530    0.2890    0.8970 o         1 X0B     -0.841800
      2 C19         4.0380   -0.3100    0.2510 c         1 X0B      0.845100
      3 O           3.0390   -0.8030    0.8670 o         1 X0B     -0.841800
      4 C18         4.1600   -0.4810   -1.2330 cc        1 X0B      0.331800
      5 N3          3.1310   -0.0870   -2.0780 nc        1 X0B     -0.590000
      6 C20         5.2660   -1.0490   -1.8690 cd        1 X0B     -0.156700
      7 C21         6.5100   -1.4680   -1.2060 c3        1 X0B     -0.012100
      8 C22         7.1660   -2.7000   -1.7990 c3        1 X0B     -0.111400
      9 C23         6.5080   -4.0110   -1.4060 c3        1 X0B      0.130400
     10 O24         6.9620   -4.4770   -0.1240 os        1 X0B     -0.344900
     11 C25         6.3380   -3.8830    0.9590 ca        1 X0B      0.142100
     12 C30         7.1600   -3.3220    1.9520 ca        1 X0B     -0.158000
     13 C29         6.5720   -2.6420    3.0130 ca        1 X0B     -0.067000
     14 C28         5.1800   -2.5250    3.0870 ca        1 X0B     -0.179300
     15 C31         4.5480   -1.5950    4.0690 c3        1 X0B      0.185100
     16 N4          4.0410   -0.3870    3.3670 n4        1 X0B     -0.895600
     17 C27         4.3680   -3.1830    2.1550 ca        1 X0B     -0.067000
     18 C26         4.9420   -3.8750    1.0940 ca        1 X0B     -0.158000
     19 S1          5.0070   -1.0990   -3.5370 ss        1 X0B     -0.157300
     20 C17         3.4550   -0.3580   -3.3450 cd        1 X0B      0.446900
     21 C14         2.6210   -0.0880   -4.5050 ca        1 X0B     -0.133500
     22 C15         3.2160    0.0740   -5.7650 ca        1 X0B     -0.108000
     23 C16         2.4270    0.3360   -6.8780 ca        1 X0B     -0.143000
     24 C11         1.0350    0.4430   -6.7650 ca        1 X0B     -0.049300
     25 C10         0.2620    0.7770   -7.9920 c3        1 X0B     -0.040100
     26 C9         -1.2330    0.6150   -7.8300 c3        1 X0B     -0.071400
     27 C8         -1.6910    1.1490   -6.4890 c3        1 X0B     -0.150700
     28 C13         1.2290    0.0110   -4.3830 ca        1 X0B     -0.049000
     29 C12         0.4310    0.2670   -5.5070 ca        1 X0B     -0.127900
     30 C7         -1.0420    0.3600   -5.3830 ce        1 X0B      0.419900
     31 N2         -1.6220   -0.2420   -4.3740 n2        1 X0B     -0.452400
     32 N1         -2.9550   -0.2980   -4.2270 nh        1 X0B     -0.443300
     33 C6         -3.4080   -0.6690   -2.9350 cc        1 X0B      0.546100
     34 S          -2.5140   -1.8290   -1.9800 ss        1 X0B      0.059900
     35 C3         -3.7270   -1.8180   -0.8090 ca        1 X0B     -0.126100
     36 C2         -3.8160   -2.5230    0.3940 ca        1 X0B     -0.082000
     37 C1         -4.9260   -2.3480    1.2040 ca        1 X0B     -0.134000
     38 N          -4.5720   -0.2590   -2.4090 nd        1 X0B     -0.590100
     39 C4         -4.7780   -0.9180   -1.1940 ca        1 X0B      0.109400
     40 C5         -5.9000   -0.7550   -0.3530 ca        1 X0B     -0.087000
     41 C          -5.9590   -1.4700    0.8300 ca        1 X0B     -0.128000
     42 H211        6.3040   -1.6350   -0.1100 hc        1 X0B      0.072700
     43 H212        7.2410   -0.6120   -1.2610 hc        1 X0B      0.072700
     44 H221        7.1540   -2.6300   -2.9200 hc        1 X0B      0.055200
     45 H222        8.2390   -2.7270   -1.4710 hc        1 X0B      0.055200
     46 H231        5.3920   -3.9260   -1.4290 h1        1 X0B      0.061700
     47 H232        6.8440   -4.8370   -2.0920 h1        1 X0B      0.061700
     48 H30         8.2530   -3.3990    1.8610 ha        1 X0B      0.154500
     49 H26         4.3040   -4.3690    0.3470 ha        1 X0B      0.154500
     50 H29         7.2100   -2.1660    3.7730 ha        1 X0B      0.142500
     51 H311        3.6770   -2.0920    4.5820 hx        1 X0B      0.075700
     52 H312        5.2920   -1.2710    4.8500 hx        1 X0B      0.075700
     53 H27         3.2700   -3.1000    2.2160 ha        1 X0B      0.142500
     54 H41N        4.7940    0.0500    2.7820 hn        1 X0B      0.473133
     55 H42N        3.3070   -0.6530    2.6510 hn        1 X0B      0.473133
     56 H15         4.3110    0.0000   -5.8710 ha        1 X0B      0.137000
     57 H13         0.7690   -0.1120   -3.3880 ha        1 X0B      0.175000
     58 H16         2.9000    0.4680   -7.8630 ha        1 X0B      0.134000
     59 H101        0.6150    0.1340   -8.8440 hc        1 X0B      0.055200
     60 H102        0.4930    1.8440   -8.2680 hc        1 X0B      0.055200
     61 H91C       -1.5120   -0.4680   -7.9160 hc        1 X0B      0.050700
     62 H92C       -1.7600    1.1650   -8.6520 hc        1 X0B      0.050700
     63 H81C       -2.8110    1.1190   -6.4540 hc        1 X0B      0.057700
     64 H82C       -1.3830    2.2240   -6.3780 hc        1 X0B      0.057700
     65 HA         -3.5050    0.4470   -4.6370 hn        1 X0B      0.407800
     66 H2         -3.0100   -3.2090    0.6900 ha        1 X0B      0.137000
     67 HB         -5.0060   -2.9010    2.1510 ha        1 X0B      0.131000
     68 H          -6.8290   -1.3530    1.4940 ha        1 X0B      0.132000
     69 H5         -6.7070   -0.0680   -0.6450 ha        1 X0B      0.148000
     70 H43         3.6680    0.2870    4.0250 hn        1 X0B      0.473133
@<TRIPOS>BOND
     1    1    2 1   
     2    2    3 1   
     3    2    4 1   
     4    4    5 1   
     5    4    6 2   
     6    5   20 2   
     7    6    7 1   
     8    6   19 1   
     9    7    8 1   
    10    7   42 1   
    11    7   43 1   
    12    8    9 1   
    13    8   44 1   
    14    8   45 1   
    15    9   10 1   
    16    9   46 1   
    17    9   47 1   
    18   10   11 1   
    19   11   12 ar  
    20   11   18 ar  
    21   12   13 ar  
    22   12   48 1   
    23   13   14 ar  
    24   13   50 1   
    25   14   15 1   
    26   14   17 ar  
    27   15   16 1   
    28   15   51 1   
    29   15   52 1   
    30   16   54 1   
    31   16   55 1   
    32   16   70 1   
    33   17   18 ar  
    34   17   53 1   
    35   18   49 1   
    36   19   20 1   
    37   20   21 1   
    38   21   22 ar  
    39   21   28 ar  
    40   22   23 ar  
    41   22   56 1   
    42   23   24 ar  
    43   23   58 1   
    44   24   25 1   
    45   24   29 ar  
    46   25   26 1   
    47   25   59 1   
    48   25   60 1   
    49   26   27 1   
    50   26   61 1   
    51   26   62 1   
    52   27   30 1   
    53   27   63 1   
    54   27   64 1   
    55   28   29 ar  
    56   28   57 1   
    57   29   30 1   
    58   30   31 2   
    59   31   32 1   
    60   32   33 1   
    61   32   65 1   
    62   33   34 1   
    63   33   38 2   
    64   34   35 1   
    65   35   36 ar  
    66   35   39 ar  
    67   36   37 ar  
    68   36   66 1   
    69   37   41 ar  
    70   37   67 1   
    71   38   39 1   
    72   39   40 ar  
    73   40   41 ar  
    74   40   69 1   
    75   41   68 1   
@<TRIPOS>SUBSTRUCTURE
     1 X0B         1 TEMP              0 ****  ****    0 ROOT
