@<TRIPOS>MOLECULE
X0B
   69    74     1     0     0
SMALL
bcc


@<TRIPOS>ATOM
      1 O1         -1.1610    2.6670    0.6020 o         1 X0B     -0.806800
      2 C19        -1.4970    1.9920   -0.4010 c         1 X0B      0.840100
      3 O          -2.0400    2.4360   -1.4480 o         1 X0B     -0.806800
      4 C18        -1.2690    0.4720   -0.3320 cc        1 X0B      0.332800
      5 N3         -0.0150   -0.0830   -0.5220 nc        1 X0B     -0.595000
      6 C20        -2.2810   -0.4500   -0.0640 cd        1 X0B     -0.163700
      7 C21        -3.6950   -0.1300    0.1800 c3        1 X0B      0.010900
      8 C22        -4.3880    0.3250   -1.0930 c3        1 X0B     -0.103400
      9 C23        -5.7650    0.8900   -0.8160 c3        1 X0B      0.132400
     10 O24        -6.6390   -0.2330   -0.5870 os        1 X0B     -0.333900
     11 C25        -7.9460    0.0660   -0.2950 ca        1 X0B      0.151100
     12 C30        -8.7740   -1.0520   -0.0590 ca        1 X0B     -0.189500
     13 C29       -10.1130   -0.8570    0.2430 ca        1 X0B     -0.090000
     14 C28       -10.6510    0.4350    0.3180 ca        1 X0B     -0.186300
     15 C31       -12.1050    0.6220    0.6410 c3        1 X0B      0.202100
     16 N4        -12.5200    0.2260    1.9660 n3        1 X0B     -0.902800
     17 C27        -9.8250    1.5340    0.0830 ca        1 X0B     -0.090000
     18 C26        -8.4760    1.3620   -0.2250 ca        1 X0B     -0.189500
     19 S1         -1.6540   -2.0230   -0.0440 ss        1 X0B     -0.227300
     20 C17        -0.0710   -1.4140   -0.3960 cd        1 X0B      0.418900
     21 C14         1.0600   -2.3180   -0.5210 ca        1 X0B     -0.099500
     22 C15         0.8410   -3.6950   -0.6680 ca        1 X0B     -0.119000
     23 C16         1.9190   -4.5660   -0.7880 ca        1 X0B     -0.140000
     24 C11         3.2300   -4.0860   -0.7580 ca        1 X0B     -0.073300
     25 C10         4.3680   -5.0290   -0.9180 c3        1 X0B     -0.034100
     26 C9          5.4860   -4.3630   -1.6900 c3        1 X0B     -0.069400
     27 C8          5.9620   -3.1160   -0.9810 c3        1 X0B     -0.150700
     28 C13         2.3760   -1.8320   -0.4890 ca        1 X0B     -0.056000
     29 C12         3.4650   -2.7080   -0.5940 ca        1 X0B     -0.129900
     30 C7          4.8540   -2.2060   -0.5170 ce        1 X0B      0.423900
     31 N2          5.0470   -1.0090   -0.0070 n2        1 X0B     -0.456400
     32 N1          6.2720   -0.5080    0.2180 nh        1 X0B     -0.442300
     33 C6          6.3280    0.9030    0.3570 cc        1 X0B      0.528100
     34 S           4.9550    1.7960    0.9580 ss        1 X0B      0.115900
     35 C3          5.8580    3.2150    0.9480 ca        1 X0B     -0.137100
     36 C2          5.4840    4.5130    1.3060 ca        1 X0B     -0.072000
     37 C1          6.4120    5.5370    1.2120 ca        1 X0B     -0.140000
     38 N           7.4410    1.6230    0.1330 nd        1 X0B     -0.602100
     39 C4          7.1900    2.9530    0.4800 ca        1 X0B      0.107400
     40 C5          8.1190    4.0130    0.3940 ca        1 X0B     -0.096000
     41 C           7.7190    5.2850    0.7600 ca        1 X0B     -0.131000
     42 H211       -4.2360   -1.0160    0.6050 hc        1 X0B      0.049200
     43 H212       -3.7460    0.6980    0.9430 hc        1 X0B      0.049200
     44 H221       -3.7650    1.1400   -1.5710 hc        1 X0B      0.090700
     45 H222       -4.4680   -0.5290   -1.8120 hc        1 X0B      0.090700
     46 H231       -5.7640    1.5490    0.0920 h1        1 X0B      0.042200
     47 H232       -6.1430    1.4640   -1.7020 h1        1 X0B      0.042200
     48 H30        -8.3420   -2.0610   -0.1200 ha        1 X0B      0.146500
     49 H26        -7.8420    2.2410   -0.4070 ha        1 X0B      0.146500
     50 H29       -10.7630   -1.7270    0.4210 ha        1 X0B      0.124000
     51 H311      -12.3830    1.7060    0.5060 h1        1 X0B      0.051200
     52 H312      -12.7140    0.0220   -0.0970 h1        1 X0B      0.051200
     53 H27       -10.2370    2.5530    0.1380 ha        1 X0B      0.124000
     54 H41N      -12.2850   -0.7350    2.1340 hn        1 X0B      0.343300
     55 H42N      -12.0600    0.7840    2.6600 hn        1 X0B      0.343300
     56 H15        -0.1880   -4.0870   -0.6940 ha        1 X0B      0.138000
     57 H13         2.5360   -0.7450   -0.3790 ha        1 X0B      0.181000
     58 H16         1.7380   -5.6440   -0.9120 ha        1 X0B      0.124000
     59 H101        4.7370   -5.3440    0.0960 hc        1 X0B      0.048200
     60 H102        4.0360   -5.9560   -1.4560 hc        1 X0B      0.048200
     61 H91C        6.3460   -5.0730   -1.8050 hc        1 X0B      0.044700
     62 H92C        5.1240   -4.1000   -2.7180 hc        1 X0B      0.044700
     63 H81C        6.5680   -3.4150   -0.0810 hc        1 X0B      0.051700
     64 H82C        6.6460   -2.5550   -1.6760 hc        1 X0B      0.051700
     65 HA          7.0400   -0.8820   -0.3260 hn        1 X0B      0.398800
     66 H2          4.4580    4.7140    1.6520 ha        1 X0B      0.149000
     67 HB          6.1260    6.5620    1.4900 ha        1 X0B      0.130000
     68 H           8.4330    6.1200    0.6960 ha        1 X0B      0.124000
     69 H5          9.1400    3.8180    0.0370 ha        1 X0B      0.140000
@<TRIPOS>BOND
     1    1    2 1   
     2    2    3 1   
     3    2    4 1   
     4    4    5 1   
     5    4    6 2   
     6    5   20 2   
     7    6    7 1   
     8    6   19 1   
     9    7    8 1   
    10    7   42 1   
    11    7   43 1   
    12    8    9 1   
    13    8   44 1   
    14    8   45 1   
    15    9   10 1   
    16    9   46 1   
    17    9   47 1   
    18   10   11 1   
    19   11   12 ar  
    20   11   18 ar  
    21   12   13 ar  
    22   12   48 1   
    23   13   14 ar  
    24   13   50 1   
    25   14   15 1   
    26   14   17 ar  
    27   15   16 1   
    28   15   51 1   
    29   15   52 1   
    30   16   54 1   
    31   16   55 1   
    32   17   18 ar  
    33   17   53 1   
    34   18   49 1   
    35   19   20 1   
    36   20   21 1   
    37   21   22 ar  
    38   21   28 ar  
    39   22   23 ar  
    40   22   56 1   
    41   23   24 ar  
    42   23   58 1   
    43   24   25 1   
    44   24   29 ar  
    45   25   26 1   
    46   25   59 1   
    47   25   60 1   
    48   26   27 1   
    49   26   61 1   
    50   26   62 1   
    51   27   30 1   
    52   27   63 1   
    53   27   64 1   
    54   28   29 ar  
    55   28   57 1   
    56   29   30 1   
    57   30   31 2   
    58   31   32 1   
    59   32   33 1   
    60   32   65 1   
    61   33   34 1   
    62   33   38 2   
    63   34   35 1   
    64   35   36 ar  
    65   35   39 ar  
    66   36   37 ar  
    67   36   66 1   
    68   37   41 ar  
    69   37   67 1   
    70   38   39 1   
    71   39   40 ar  
    72   40   41 ar  
    73   40   69 1   
    74   41   68 1   
@<TRIPOS>SUBSTRUCTURE
     1 X0B         1 TEMP              0 ****  ****    0 ROOT
