@<TRIPOS>MOLECULE
X0B
   71    76     1     0     0
SMALL
bcc


@<TRIPOS>ATOM
      1 O1          1.2040    0.2640   -0.1450 o         1 X0B     -0.827800
      2 C19         2.3000   -0.3210   -0.3420 c         1 X0B      0.857100
      3 O           2.9320   -0.9820    0.5260 o         1 X0B     -0.827800
      4 C18         2.8930   -0.2290   -1.7550 cc        1 X0B      0.321800
      5 N3          2.1570   -0.7420   -2.8020 nc        1 X0B     -0.624000
      6 C20         4.0780    0.4030   -2.1450 cd        1 X0B     -0.165700
      7 C21         5.0500    1.0870   -1.2790 c3        1 X0B     -0.001100
      8 C22         6.1890    0.1930   -0.8130 c3        1 X0B     -0.077400
      9 C23         5.6390   -0.8450    0.1430 c3        1 X0B      0.111400
     10 O24         6.7710   -1.5580    0.6970 os        1 X0B     -0.320900
     11 C25         6.4600   -2.4800    1.6510 ca        1 X0B      0.209100
     12 C30         7.5660   -3.0990    2.2800 ca        1 X0B     -0.189500
     13 C29         7.3470   -4.0270    3.2840 ca        1 X0B     -0.063500
     14 C28         6.0400   -4.3610    3.6700 ca        1 X0B     -0.280300
     15 C31         5.8010   -5.3400    4.7500 c3        1 X0B      0.199100
     16 N4          5.4480   -4.6120    6.0260 n4        1 X0B     -0.852600
     17 C27         4.9480   -3.7670    3.0170 ca        1 X0B     -0.063500
     18 C26         5.1430   -2.8270    2.0190 ca        1 X0B     -0.189500
     19 S1          4.2380    0.3570   -3.8300 ss        1 X0B     -0.121300
     20 C17         2.7470   -0.4700   -3.9810 cd        1 X0B      0.386900
     21 C14         2.0770   -0.7310   -5.2470 ca        1 X0B     -0.104500
     22 C15         2.7170   -0.6940   -6.4920 ca        1 X0B     -0.069000
     23 C16         1.9740   -0.8040   -7.6690 ca        1 X0B     -0.140000
     24 C11         0.5820   -0.9420   -7.6420 ca        1 X0B     -0.024300
     25 C10        -0.1920   -0.9180   -8.9110 c3        1 X0B     -0.051100
     26 C9         -1.6710   -1.2020   -8.7380 c3        1 X0B     -0.072400
     27 C8         -2.2460   -0.5500   -7.4920 c3        1 X0B     -0.180700
     28 C13         0.6920   -0.9470   -5.2110 ca        1 X0B     -0.033000
     29 C12        -0.0570   -1.0350   -6.3920 ca        1 X0B     -0.205900
     30 C7         -1.5230   -1.0850   -6.2920 ce        1 X0B      0.585900
     31 N2         -2.0070   -1.5750   -5.1710 n2        1 X0B     -0.596400
     32 N1         -3.3110   -1.3980   -4.7060 n4        1 X0B     -0.351100
     33 C6         -3.2440   -0.6810   -3.4110 cc        1 X0B      0.260100
     34 S          -1.7930   -0.6270   -2.4870 ss        1 X0B      0.303900
     35 C3         -2.5530    0.3100   -1.3390 ca        1 X0B     -0.125100
     36 C2         -2.0290    0.8570   -0.1570 ca        1 X0B     -0.076000
     37 C1         -2.8600    1.6120    0.6480 ca        1 X0B     -0.097000
     38 N          -4.3100   -0.0270   -2.9120 nd        1 X0B     -0.505100
     39 C4         -3.9280    0.5480   -1.7080 ca        1 X0B      0.073400
     40 C5         -4.7550    1.3240   -0.8560 ca        1 X0B     -0.077000
     41 C          -4.2100    1.8390    0.3010 ca        1 X0B     -0.117000
     42 H211        4.5060    1.4900   -0.3780 hc        1 X0B      0.065700
     43 H212        5.4920    1.9650   -1.8250 hc        1 X0B      0.065700
     44 H221        6.9630    0.8170   -0.2960 hc        1 X0B      0.051700
     45 H222        6.6830   -0.3080   -1.6840 hc        1 X0B      0.051700
     46 H231        5.0660   -0.3600    0.9800 h1        1 X0B      0.089200
     47 H232        4.9680   -1.5710   -0.3900 h1        1 X0B      0.089200
     48 H30         8.5850   -2.8310    1.9620 ha        1 X0B      0.200000
     49 H26         4.2660   -2.3580    1.5220 ha        1 X0B      0.200000
     50 H29         8.2080   -4.5110    3.7720 ha        1 X0B      0.131500
     51 H311        6.7130   -5.9660    4.9630 hx        1 X0B      0.100700
     52 H312        4.9300   -6.0160    4.5110 hx        1 X0B      0.100700
     53 H27         3.9190   -4.0530    3.2900 ha        1 X0B      0.131500
     54 H41N        6.2320   -4.0170    6.3100 hn        1 X0B      0.450800
     55 H42N        5.2310   -5.2700    6.7750 hn        1 X0B      0.450800
     56 H15         3.8100   -0.5600   -6.5460 ha        1 X0B      0.154000
     57 H13         0.1890   -1.0100   -4.2270 ha        1 X0B      0.176000
     58 H16         2.4910   -0.7600   -8.6400 ha        1 X0B      0.149000
     59 H101       -0.0620    0.1000   -9.3760 hc        1 X0B      0.074700
     60 H102        0.2420   -1.6640   -9.6310 hc        1 X0B      0.074700
     61 H91C       -2.2280   -0.8200   -9.6340 hc        1 X0B      0.064700
     62 H92C       -1.8390   -2.3110   -8.6870 hc        1 X0B      0.064700
     63 H81C       -3.3500   -0.7410   -7.4500 hc        1 X0B      0.076200
     64 H82C       -2.0930    0.5640   -7.5370 hc        1 X0B      0.076200
     65 HA         -3.6980   -2.3410   -4.5180 hn        1 X0B      0.450300
     66 H2         -0.9620    0.6860    0.1050 ha        1 X0B      0.224000
     67 HB         -2.4650    2.0510    1.5790 ha        1 X0B      0.154000
     68 H          -4.8370    2.4470    0.9740 ha        1 X0B      0.147000
     69 H5         -5.8050    1.5050   -1.1290 ha        1 X0B      0.156000
     70 H43         4.6370   -4.0080    5.8540 hn        1 X0B      0.450800
     71 H12        -3.9530   -0.8980   -5.3440 hn        1 X0B      0.450300
@<TRIPOS>BOND
     1    1    2 1   
     2    2    3 1   
     3    2    4 1   
     4    4    5 1   
     5    4    6 2   
     6    5   20 2   
     7    6    7 1   
     8    6   19 1   
     9    7    8 1   
    10    7   42 1   
    11    7   43 1   
    12    8    9 1   
    13    8   44 1   
    14    8   45 1   
    15    9   10 1   
    16    9   46 1   
    17    9   47 1   
    18   10   11 1   
    19   11   12 ar  
    20   11   18 ar  
    21   12   13 ar  
    22   12   48 1   
    23   13   14 ar  
    24   13   50 1   
    25   14   15 1   
    26   14   17 ar  
    27   15   16 1   
    28   15   51 1   
    29   15   52 1   
    30   16   54 1   
    31   16   55 1   
    32   16   70 1   
    33   17   18 ar  
    34   17   53 1   
    35   18   49 1   
    36   19   20 1   
    37   20   21 1   
    38   21   22 ar  
    39   21   28 ar  
    40   22   23 ar  
    41   22   56 1   
    42   23   24 ar  
    43   23   58 1   
    44   24   25 1   
    45   24   29 ar  
    46   25   26 1   
    47   25   59 1   
    48   25   60 1   
    49   26   27 1   
    50   26   61 1   
    51   26   62 1   
    52   27   30 1   
    53   27   63 1   
    54   27   64 1   
    55   28   29 ar  
    56   28   57 1   
    57   29   30 1   
    58   30   31 2   
    59   31   32 1   
    60   32   33 1   
    61   32   65 1   
    62   32   71 1   
    63   33   34 1   
    64   33   38 2   
    65   34   35 1   
    66   35   36 ar  
    67   35   39 ar  
    68   36   37 ar  
    69   36   66 1   
    70   37   41 ar  
    71   37   67 1   
    72   38   39 1   
    73   39   40 ar  
    74   40   41 ar  
    75   40   69 1   
    76   41   68 1   
@<TRIPOS>SUBSTRUCTURE
     1 X0B         1 TEMP              0 ****  ****    0 ROOT
