@<TRIPOS>MOLECULE
X0B
   70    75     1     0     0
SMALL
bcc


@<TRIPOS>ATOM
      1 O1          4.9620    0.2900    0.8950 o         1 X0B     -0.841800
      2 C19         4.0410   -0.3050    0.2520 c         1 X0B      0.845100
      3 O           3.0350   -0.7810    0.8690 o         1 X0B     -0.841800
      4 C18         4.1650   -0.4910   -1.2310 cc        1 X0B      0.331800
      5 N3          3.1430   -0.0930   -2.0820 nc        1 X0B     -0.590000
      6 C20         5.2670   -1.0770   -1.8590 cd        1 X0B     -0.156700
      7 C21         6.5050   -1.5030   -1.1880 c3        1 X0B     -0.012100
      8 C22         7.1480   -2.7480   -1.7690 c3        1 X0B     -0.111400
      9 C23         6.4750   -4.0470   -1.3650 c3        1 X0B      0.130400
     10 O24         6.9200   -4.5070   -0.0780 os        1 X0B     -0.344900
     11 C25         6.3000   -3.8970    0.9980 ca        1 X0B      0.142100
     12 C30         7.1260   -3.3360    1.9880 ca        1 X0B     -0.158000
     13 C29         6.5420   -2.6400    3.0410 ca        1 X0B     -0.067000
     14 C28         5.1510   -2.5070    3.1100 ca        1 X0B     -0.179300
     15 C31         4.5270   -1.5610    4.0820 c3        1 X0B      0.185100
     16 N4          4.0360   -0.3530    3.3680 nz        1 X0B     -0.895600
     17 C27         4.3340   -3.1640    2.1820 ca        1 X0B     -0.067000
     18 C26         4.9040   -3.8720    1.1290 ca        1 X0B     -0.158000
     19 S1          5.0120   -1.1380   -3.5270 ss        1 X0B     -0.157300
     20 C17         3.4690   -0.3790   -3.3460 cd        1 X0B      0.446900
     21 C14         2.6400   -0.1100   -4.5110 ca        1 X0B     -0.133500
     22 C15         3.2400    0.0400   -5.7690 ca        1 X0B     -0.108000
     23 C16         2.4570    0.3010   -6.8860 ca        1 X0B     -0.143000
     24 C11         1.0650    0.4170   -6.7790 ca        1 X0B     -0.049300
     25 C10         0.2980    0.7480   -8.0110 c3        1 X0B     -0.040100
     26 C9         -1.1980    0.5960   -7.8530 c3        1 X0B     -0.071400
     27 C8         -1.6580    1.1410   -6.5160 c3        1 X0B     -0.150700
     28 C13         1.2480   -0.0020   -4.3930 ca        1 X0B     -0.049000
     29 C12         0.4560    0.2520   -5.5220 ca        1 X0B     -0.127900
     30 C7         -1.0170    0.3550   -5.4040 ce        1 X0B      0.419900
     31 N2         -1.6050   -0.2380   -4.3930 n2        1 X0B     -0.452400
     32 N1         -2.9390   -0.2860   -4.2500 nu        1 X0B     -0.443300
     33 C6         -3.3980   -0.6470   -2.9580 cc        1 X0B      0.547100
     34 S          -2.5150   -1.8080   -1.9940 ss        1 X0B      0.059900
     35 C3         -3.7310   -1.7820   -0.8280 ca        1 X0B     -0.126100
     36 C2         -3.8290   -2.4810    0.3780 ca        1 X0B     -0.082000
     37 C1         -4.9400   -2.2950    1.1840 ca        1 X0B     -0.134000
     38 N          -4.5610   -0.2260   -2.4380 nd        1 X0B     -0.590100
     39 C4         -4.7740   -0.8780   -1.2200 ca        1 X0B      0.109400
     40 C5         -5.8980   -0.7040   -0.3840 ca        1 X0B     -0.087000
     41 C          -5.9650   -1.4120    0.8030 ca        1 X0B     -0.128000
     42 H211        7.2460   -0.6550   -1.2500 hc        1 X0B      0.072700
     43 H212        6.2940   -1.6570   -0.0920 hc        1 X0B      0.072700
     44 H221        8.2210   -2.7830   -1.4370 hc        1 X0B      0.055200
     45 H222        7.1410   -2.6880   -2.8900 hc        1 X0B      0.055200
     46 H231        6.8040   -4.8830   -2.0430 h1        1 X0B      0.061700
     47 H232        5.3600   -3.9500   -1.3930 h1        1 X0B      0.061700
     48 H30         8.2180   -3.4250    1.9010 ha        1 X0B      0.154500
     49 H26         4.2630   -4.3650    0.3840 ha        1 X0B      0.154500
     50 H29         7.1830   -2.1640    3.7990 ha        1 X0B      0.142500
     51 H311        3.6490   -2.0440    4.5980 hx        1 X0B      0.075700
     52 H312        5.2720   -1.2380    4.8620 hx        1 X0B      0.075700
     53 H27         3.2380   -3.0680    2.2390 ha        1 X0B      0.142500
     54 H41N        3.6680    0.3300    4.0190 hn        1 X0B      0.473133
     55 H42N        4.7940    0.0700    2.7810 hn        1 X0B      0.473133
     56 H15         4.3350   -0.0410   -5.8700 ha        1 X0B      0.137000
     57 H13         0.7840   -0.1170   -3.3990 ha        1 X0B      0.175000
     58 H16         2.9330    0.4240   -7.8700 ha        1 X0B      0.134000
     59 H101        0.5360    1.8120   -8.2910 hc        1 X0B      0.055200
     60 H102        0.6500    0.0980   -8.8570 hc        1 X0B      0.055200
     61 H91C       -1.4830   -0.4860   -7.9340 hc        1 X0B      0.050700
     62 H92C       -1.7190    1.1450   -8.6800 hc        1 X0B      0.050700
     63 H81C       -2.7770    1.1180   -6.4850 hc        1 X0B      0.057700
     64 H82C       -1.3430    2.2140   -6.4100 hc        1 X0B      0.057700
     65 HA         -3.4820    0.4610   -4.6660 hn        1 X0B      0.407800
     66 H2         -3.0270   -3.1710    0.6800 ha        1 X0B      0.137000
     67 HB         -5.0260   -2.8420    2.1340 ha        1 X0B      0.131000
     68 H          -6.8360   -1.2860    1.4640 ha        1 X0B      0.132000
     69 H5         -6.7000   -0.0130   -0.6810 ha        1 X0B      0.148000
     70 H43         3.3000   -0.6180    2.6520 hn        1 X0B      0.473133
@<TRIPOS>BOND
     1    1    2 1   
     2    2    3 1   
     3    2    4 1   
     4    4    5 1   
     5    4    6 2   
     6    5   20 2   
     7    6    7 1   
     8    6   19 1   
     9    7    8 1   
    10    7   42 1   
    11    7   43 1   
    12    8    9 1   
    13    8   44 1   
    14    8   45 1   
    15    9   10 1   
    16    9   46 1   
    17    9   47 1   
    18   10   11 1   
    19   11   12 ar  
    20   11   18 ar  
    21   12   13 ar  
    22   12   48 1   
    23   13   14 ar  
    24   13   50 1   
    25   14   15 1   
    26   14   17 ar  
    27   15   16 1   
    28   15   51 1   
    29   15   52 1   
    30   16   54 1   
    31   16   55 1   
    32   16   70 1   
    33   17   18 ar  
    34   17   53 1   
    35   18   49 1   
    36   19   20 1   
    37   20   21 1   
    38   21   22 ar  
    39   21   28 ar  
    40   22   23 ar  
    41   22   56 1   
    42   23   24 ar  
    43   23   58 1   
    44   24   25 1   
    45   24   29 ar  
    46   25   26 1   
    47   25   59 1   
    48   25   60 1   
    49   26   27 1   
    50   26   61 1   
    51   26   62 1   
    52   27   30 1   
    53   27   63 1   
    54   27   64 1   
    55   28   29 ar  
    56   28   57 1   
    57   29   30 1   
    58   30   31 2   
    59   31   32 1   
    60   32   33 1   
    61   32   65 1   
    62   33   34 1   
    63   33   38 2   
    64   34   35 1   
    65   35   36 ar  
    66   35   39 ar  
    67   36   37 ar  
    68   36   66 1   
    69   37   41 ar  
    70   37   67 1   
    71   38   39 1   
    72   39   40 ar  
    73   40   41 ar  
    74   40   69 1   
    75   41   68 1   
@<TRIPOS>SUBSTRUCTURE
     1 X0B         1 TEMP              0 ****  ****    0 ROOT
