@<TRIPOS>MOLECULE
X0D
   64    65     1     0     0
SMALL
bcc


@<TRIPOS>ATOM
      1 O2          3.2790   -1.6290   -1.6130 o         1 X0D     -0.432000
      2 C21         3.7200   -0.5170   -1.3490 c         1 X0D      0.613100
      3 O1          4.0450    0.2470   -2.4250 oh        1 X0D     -0.547100
      4 C20         3.8960    0.0180    0.0770 c3        1 X0D     -0.012300
      5 C22         2.9620    1.2120    0.2820 c3        1 X0D     -0.061300
      6 S23         3.1820    2.0010    1.8390 ss        1 X0D     -0.319200
      7 C24         1.9580    1.2320    2.8810 c3        1 X0D      0.008700
      8 C25         1.9200    2.0060    4.1840 c3        1 X0D     -0.060700
      9 C27         0.6120    1.7320    4.9010 c3        1 X0D     -0.094600
     10 C26         3.0920    1.6460    5.0740 c3        1 X0D     -0.094600
     11 N19         5.2980    0.3370    0.3320 ns        1 X0D     -0.506900
     12 C19         6.0020   -0.4750    1.2060 c         1 X0D      0.640100
     13 O19         5.6340   -1.5660    1.6530 o         1 X0D     -0.471100
     14 N15         7.4330   -0.0680    1.5460 nx        1 X0D     -0.498000
     15 C16         7.5410    1.3140    2.1040 c3        1 X0D      0.113800
     16 C17         6.5180    1.6730    3.1750 c3        1 X0D     -0.123400
     17 C18         6.8310    3.0450    3.7190 c3        1 X0D     -0.099100
     18 C15         8.0660   -1.1110    2.4970 c         1 X0D      0.603700
     19 O15         7.7110   -1.0690    3.6610 o         1 X0D     -0.400100
     20 C11         9.0670   -1.9760    1.8670 ca        1 X0D     -0.198600
     21 C10         8.9000   -2.4830    0.5730 ca        1 X0D     -0.087000
     22 C12        10.1890   -2.3300    2.6340 ca        1 X0D     -0.056000
     23 C13        11.1540   -3.1720    2.0860 ca        1 X0D     -0.122000
     24 C14        11.0080   -3.6690    0.7920 ca        1 X0D     -0.049000
     25 C9          9.8760   -3.3300    0.0260 ca        1 X0D      0.069000
     26 C8          9.7150   -3.8290   -1.2750 cg        1 X0D     -0.171000
     27 C7          9.5670   -4.2500   -2.3890 ch        1 X0D     -0.005000
     28 C1          9.3870   -4.7350   -3.6930 ca        1 X0D     -0.066000
     29 C6         10.0980   -5.8650   -4.1350 ca        1 X0D     -0.044000
     30 C5          9.9300   -6.3630   -5.4180 ca        1 X0D     -0.182000
     31 C4          9.0320   -5.7280   -6.3000 ca        1 X0D      0.188900
     32 F4          8.8660   -6.2090   -7.5500 f         1 X0D     -0.114900
     33 C3          8.3080   -4.5960   -5.8900 ca        1 X0D     -0.212000
     34 C2          8.4870   -4.1020   -4.5890 ca        1 X0D      0.187900
     35 F2          7.7900   -3.0110   -4.2000 f         1 X0D     -0.129900
     36 H20         3.5710   -0.8230    0.7700 h1        1 X0D      0.136700
     37 H221        3.1460    1.9980   -0.4960 h1        1 X0D      0.105700
     38 H222        1.9100    0.8500    0.1500 h1        1 X0D      0.105700
     39 H19         5.5270    1.3090    0.3000 hn        1 X0D      0.330500
     40 H241        2.2190    0.1620    3.0610 h1        1 X0D      0.074200
     41 H242        0.9630    1.2720    2.3740 h1        1 X0D      0.074200
     42 H25         1.9710    3.1080    3.9480 hc        1 X0D      0.069700
     43 H271        0.5000    0.6420    5.1140 hc        1 X0D      0.043700
     44 H272       -0.2540    2.0650    4.2790 hc        1 X0D      0.043700
     45 H273        0.5870    2.2870    5.8700 hc        1 X0D      0.043700
     46 H261        3.0540    0.5680    5.3610 hc        1 X0D      0.043700
     47 H262        4.0590    1.8430    4.5480 hc        1 X0D      0.043700
     48 H263        3.0640    2.2600    6.0070 hc        1 X0D      0.043700
     49 H161        7.4570    2.0410    1.2450 hx        1 X0D      0.094700
     50 H162        8.5790    1.4080    2.5410 hx        1 X0D      0.094700
     51 H171        5.4730    1.6700    2.7490 hc        1 X0D      0.086700
     52 H172        6.5450    0.9220    4.0110 hc        1 X0D      0.086700
     53 H181        6.0620    3.3220    4.4830 hc        1 X0D      0.057033
     54 H182        6.8130    3.8140    2.9090 hc        1 X0D      0.057033
     55 H183        7.8350    3.0650    4.2080 hc        1 X0D      0.057033
     56 H10         7.9930   -2.2730   -0.0160 ha        1 X0D      0.146000
     57 H12        10.2980   -1.9520    3.6640 ha        1 X0D      0.164000
     58 H13        12.0360   -3.4520    2.6860 ha        1 X0D      0.169000
     59 H14        11.7750   -4.3370    0.3640 ha        1 X0D      0.170000
     60 H6         10.7980   -6.3630   -3.4440 ha        1 X0D      0.155000
     61 H5         10.4890   -7.2490   -5.7560 ha        1 X0D      0.169000
     62 H3          7.6060   -4.1030   -6.5790 ha        1 X0D      0.178000
     63 H192        4.3370    1.1260   -2.1460 ho        1 X0D      0.425000
     64 H151        7.9750   -0.0970    0.6710 hn        1 X0D      0.461800
@<TRIPOS>BOND
     1    1    2 2   
     2    2    3 1   
     3    2    4 1   
     4    3   63 1   
     5    4    5 1   
     6    4   11 1   
     7    4   36 1   
     8    5    6 1   
     9    5   37 1   
    10    5   38 1   
    11    6    7 1   
    12    7    8 1   
    13    7   40 1   
    14    7   41 1   
    15    8    9 1   
    16    8   10 1   
    17    8   42 1   
    18    9   43 1   
    19    9   44 1   
    20    9   45 1   
    21   10   46 1   
    22   10   47 1   
    23   10   48 1   
    24   11   12 1   
    25   11   39 1   
    26   12   13 2   
    27   12   14 1   
    28   14   15 1   
    29   14   18 1   
    30   14   64 1   
    31   15   16 1   
    32   15   49 1   
    33   15   50 1   
    34   16   17 1   
    35   16   51 1   
    36   16   52 1   
    37   17   53 1   
    38   17   54 1   
    39   17   55 1   
    40   18   19 2   
    41   18   20 1   
    42   20   21 ar  
    43   20   22 ar  
    44   21   25 ar  
    45   21   56 1   
    46   22   23 ar  
    47   22   57 1   
    48   23   24 ar  
    49   23   58 1   
    50   24   25 ar  
    51   24   59 1   
    52   25   26 1   
    53   26   27 3   
    54   27   28 1   
    55   28   29 ar  
    56   28   34 ar  
    57   29   30 ar  
    58   29   60 1   
    59   30   31 ar  
    60   30   61 1   
    61   31   32 1   
    62   31   33 ar  
    63   33   34 ar  
    64   33   62 1   
    65   34   35 1   
@<TRIPOS>SUBSTRUCTURE
     1 X0D         1 TEMP              0 ****  ****    0 ROOT
