@<TRIPOS>MOLECULE
X0D
   64    66     1     0     0
SMALL
bcc


@<TRIPOS>ATOM
      1 O2          2.2940    0.5210   -1.0450 o         1 X0D     -0.463500
      2 C21         3.1460    0.0310   -0.3320 c         1 X0D      0.718600
      3 O1          4.3690   -0.2530   -0.9250 os        1 X0D     -0.417900
      4 C20         3.1450   -0.3590    1.1420 c3        1 X0D      0.066500
      5 C22         2.5310    0.7270    2.0040 c3        1 X0D     -0.050300
      6 S23         2.7250    0.2380    3.6890 ss        1 X0D     -0.327200
      7 C24         1.9070    1.5510    4.5750 c3        1 X0D      0.022700
      8 C25         2.3130    1.4440    6.0310 c3        1 X0D     -0.060700
      9 C27         1.7810    2.6430    6.7930 c3        1 X0D     -0.096600
     10 C26         1.8090    0.1550    6.6450 c3        1 X0D     -0.096600
     11 N19         4.5660   -0.6790    1.4550 n4        1 X0D     -0.894000
     12 C19         5.2730   -0.8980   -0.0250 c3        1 X0D      0.926700
     13 O19         5.4670   -2.1220   -0.2330 o         1 X0D     -0.569500
     14 N15         6.6480   -0.0820   -0.1120 n4        1 X0D     -0.674200
     15 C16         6.5380    1.3680   -0.4220 c3        1 X0D      0.108800
     16 C17         5.8280    2.2380    0.6060 c3        1 X0D     -0.097400
     17 C18         5.9780    3.6900    0.2200 c3        1 X0D     -0.102100
     18 C15         7.5490   -0.3670    1.0580 c         1 X0D      0.593700
     19 O15         7.1990    0.0620    2.1570 o         1 X0D     -0.492100
     20 C11         8.7740   -1.1210    0.7680 ca        1 X0D     -0.207600
     21 C10         8.7720   -2.2060   -0.1180 ca        1 X0D     -0.080000
     22 C12         9.9470   -0.7530    1.4480 ca        1 X0D     -0.058000
     23 C13        11.1250   -1.4560    1.2100 ca        1 X0D     -0.128000
     24 C14        11.1410   -2.5260    0.3170 ca        1 X0D     -0.051000
     25 C9          9.9630   -2.9130   -0.3500 ca        1 X0D      0.061000
     26 C8          9.9700   -3.9970   -1.2400 cg        1 X0D     -0.161000
     27 C7          9.9700   -4.9230   -2.0040 ch        1 X0D     -0.013000
     28 C1          9.9680   -6.0040   -2.8980 ca        1 X0D     -0.062000
     29 C6         11.0770   -6.8630   -2.9720 ca        1 X0D     -0.047000
     30 C5         11.0970   -7.9390   -3.8470 ca        1 X0D     -0.183000
     31 C4          9.9860   -8.1790   -4.6810 ca        1 X0D      0.185900
     32 F4         10.0000   -9.2250   -5.5340 f         1 X0D     -0.116900
     33 C3          8.8620   -7.3390   -4.6320 ca        1 X0D     -0.213000
     34 C2          8.8550   -6.2530   -3.7420 ca        1 X0D      0.188900
     35 F2          7.7700   -5.4470   -3.7010 f         1 X0D     -0.124900
     36 H20         2.5290   -1.3100    1.2440 hx        1 X0D      0.156700
     37 H221        3.0070    1.7230    1.8210 h1        1 X0D      0.102200
     38 H222        1.4490    0.8250    1.7240 h1        1 X0D      0.102200
     39 H19         4.6400   -1.5700    1.9480 hn        1 X0D      0.463300
     40 H241        0.8010    1.4410    4.4650 h1        1 X0D      0.074700
     41 H242        2.2110    2.5390    4.1530 h1        1 X0D      0.074700
     42 H25         3.4390    1.4560    6.0920 hc        1 X0D      0.060700
     43 H271        2.0810    2.5720    7.8660 hc        1 X0D      0.046867
     44 H272        0.6660    2.6790    6.7390 hc        1 X0D      0.046867
     45 H273        2.1900    3.5910    6.3700 hc        1 X0D      0.046867
     46 H261        2.1830   -0.7260    6.0660 hc        1 X0D      0.046867
     47 H262        2.1690    0.0670    7.6990 hc        1 X0D      0.046867
     48 H263        0.6930    0.1300    6.6500 hc        1 X0D      0.046867
     49 H161        5.9880    1.4490   -1.4080 hx        1 X0D      0.106700
     50 H162        7.5890    1.7570   -0.5670 hx        1 X0D      0.106700
     51 H171        6.2510    2.0780    1.6330 hc        1 X0D      0.053700
     52 H172        4.7370    1.9730    0.6280 hc        1 X0D      0.053700
     53 H181        7.0520    3.9960    0.2290 hc        1 X0D      0.059033
     54 H182        5.5630    3.8780   -0.8000 hc        1 X0D      0.059033
     55 H183        5.4250    4.3320    0.9500 hc        1 X0D      0.059033
     56 H10         7.8410   -2.5500   -0.6060 ha        1 X0D      0.174000
     57 H12         9.9300    0.0820    2.1670 ha        1 X0D      0.159000
     58 H13        12.0490   -1.1670    1.7370 ha        1 X0D      0.165000
     59 H14        12.0770   -3.0800    0.1340 ha        1 X0D      0.167000
     60 H6         11.9460   -6.6760   -2.3190 ha        1 X0D      0.153000
     61 H5         11.9700   -8.6080   -3.8980 ha        1 X0D      0.167000
     62 H3          7.9960   -7.5270   -5.2840 ha        1 X0D      0.177000
     63 H192        4.9930    0.0590    2.0160 hn        1 X0D      0.463300
     64 H151        7.0840   -0.5190   -0.9420 hn        1 X0D      0.474800
@<TRIPOS>BOND
     1    1    2 2   
     2    2    3 1   
     3    2    4 1   
     4    3   12 1   
     5    4    5 1   
     6    4   11 1   
     7    4   36 1   
     8    5    6 1   
     9    5   37 1   
    10    5   38 1   
    11    6    7 1   
    12    7    8 1   
    13    7   40 1   
    14    7   41 1   
    15    8    9 1   
    16    8   10 1   
    17    8   42 1   
    18    9   43 1   
    19    9   44 1   
    20    9   45 1   
    21   10   46 1   
    22   10   47 1   
    23   10   48 1   
    24   11   12 1   
    25   11   39 1   
    26   11   63 1   
    27   12   13 1   
    28   12   14 1   
    29   14   15 1   
    30   14   18 1   
    31   14   64 1   
    32   15   16 1   
    33   15   49 1   
    34   15   50 1   
    35   16   17 1   
    36   16   51 1   
    37   16   52 1   
    38   17   53 1   
    39   17   54 1   
    40   17   55 1   
    41   18   19 2   
    42   18   20 1   
    43   20   21 ar  
    44   20   22 ar  
    45   21   25 ar  
    46   21   56 1   
    47   22   23 ar  
    48   22   57 1   
    49   23   24 ar  
    50   23   58 1   
    51   24   25 ar  
    52   24   59 1   
    53   25   26 1   
    54   26   27 3   
    55   27   28 1   
    56   28   29 ar  
    57   28   34 ar  
    58   29   30 ar  
    59   29   60 1   
    60   30   31 ar  
    61   30   61 1   
    62   31   32 1   
    63   31   33 ar  
    64   33   34 ar  
    65   33   62 1   
    66   34   35 1   
@<TRIPOS>SUBSTRUCTURE
     1 X0D         1 TEMP              0 ****  ****    0 ROOT
