@<TRIPOS>MOLECULE
X0D
   64    65     1     0     0
SMALL
bcc


@<TRIPOS>ATOM
      1 O2          4.3060   -1.6020    0.3740 o         1 X0D     -0.372000
      2 C21         4.7170   -1.0670    1.3820 c         1 X0D      0.666100
      3 O1          6.0930   -0.7050    1.1760 os        1 X0D     -0.459200
      4 C20         4.0580   -0.7150    2.7030 c3        1 X0D      0.118500
      5 C22         2.5510   -0.9450    2.5450 c3        1 X0D     -0.071300
      6 S23         1.7680   -0.6850    4.1010 ss        1 X0D     -0.272200
      7 C24         0.4550    0.4470    3.7480 c3        1 X0D     -0.016300
      8 C25         0.8780    1.8590    3.4000 c3        1 X0D     -0.063700
      9 C27        -0.3230    2.6500    2.9170 c3        1 X0D     -0.096600
     10 C26         1.5240    2.5530    4.5810 c3        1 X0D     -0.096600
     11 N19         4.4670    0.6050    3.1350 n3        1 X0D     -0.928800
     12 C19         6.9420   -0.5910    2.2130 c         1 X0D      0.668100
     13 O19         6.8500   -1.1790    3.2810 o         1 X0D     -0.435000
     14 N15         8.1230    0.2730    1.8830 n4        1 X0D     -0.479000
     15 C16         7.8170    1.7110    2.1880 c3        1 X0D      0.116800
     16 C17         7.8140    2.0180    3.6800 c3        1 X0D     -0.104400
     17 C18         7.5140    3.4820    3.8870 c3        1 X0D     -0.099100
     18 C15         8.5460    0.0810    0.4170 c         1 X0D      0.594700
     19 O15         8.0810    0.8720   -0.3830 o         1 X0D     -0.393100
     20 C11         9.4480   -1.0520    0.1880 ca        1 X0D     -0.199600
     21 C10         9.1740   -1.8800   -0.9090 ca        1 X0D     -0.041000
     22 C12        10.5730   -1.2810    0.9950 ca        1 X0D     -0.103000
     23 C13        11.4130   -2.3520    0.7060 ca        1 X0D     -0.116000
     24 C14        11.1430   -3.1950   -0.3730 ca        1 X0D     -0.055000
     25 C9         10.0220   -2.9650   -1.1900 ca        1 X0D      0.068000
     26 C8          9.7450   -3.8010   -2.2810 cg        1 X0D     -0.166000
     27 C7          9.5020   -4.5110   -3.2180 ch        1 X0D     -0.004000
     28 C1          9.2160   -5.3390   -4.3140 ca        1 X0D     -0.065000
     29 C6         10.0940   -6.3800   -4.6630 ca        1 X0D     -0.045000
     30 C5          9.8320   -7.2090   -5.7430 ca        1 X0D     -0.184000
     31 C4          8.6640   -7.0090   -6.5080 ca        1 X0D      0.187900
     32 F4          8.4050   -7.8140   -7.5600 f         1 X0D     -0.115900
     33 C3          7.7670   -5.9780   -6.1850 ca        1 X0D     -0.213000
     34 C2          8.0440   -5.1450   -5.0890 ca        1 X0D      0.190900
     35 F2          7.1760   -4.1550   -4.7840 f         1 X0D     -0.123900
     36 H20         4.4570   -1.4740    3.4520 h1        1 X0D      0.126700
     37 H221        2.3800   -2.0050    2.2230 h1        1 X0D      0.098200
     38 H222        2.1250   -0.2830    1.7520 h1        1 X0D      0.098200
     39 H19         4.3700    0.6780    4.1320 hn        1 X0D      0.384800
     40 H241       -0.1460    0.4470    4.6950 h1        1 X0D      0.091200
     41 H242       -0.1880    0.0350    2.9320 h1        1 X0D      0.091200
     42 H25         1.6280    1.8110    2.5580 hc        1 X0D      0.025700
     43 H271       -0.0180    3.6940    2.6650 hc        1 X0D      0.043867
     44 H272       -0.7640    2.1770    2.0070 hc        1 X0D      0.043867
     45 H273       -1.1070    2.6920    3.7110 hc        1 X0D      0.043867
     46 H261        0.7930    2.6640    5.4180 hc        1 X0D      0.043867
     47 H262        2.3970    1.9610    4.9500 hc        1 X0D      0.043867
     48 H263        1.8760    3.5700    4.2850 hc        1 X0D      0.043867
     49 H161        8.6000    2.3330    1.6660 hx        1 X0D      0.113200
     50 H162        6.8120    1.9490    1.7330 hx        1 X0D      0.113200
     51 H171        7.0400    1.3920    4.2010 hc        1 X0D      0.068700
     52 H172        8.8120    1.7720    4.1310 hc        1 X0D      0.068700
     53 H181        6.5140    3.7480    3.4670 hc        1 X0D      0.058033
     54 H182        8.2870    4.1220    3.3970 hc        1 X0D      0.058033
     55 H183        7.5100    3.7110    4.9810 hc        1 X0D      0.058033
     56 H10         8.2990   -1.6840   -1.5520 ha        1 X0D      0.176000
     57 H12        10.8280   -0.6120    1.8300 ha        1 X0D      0.133000
     58 H13        12.3030   -2.5330    1.3300 ha        1 X0D      0.165000
     59 H14        11.8130   -4.0430   -0.5920 ha        1 X0D      0.169000
     60 H6         11.0070   -6.5360   -4.0660 ha        1 X0D      0.153000
     61 H5         10.5240   -8.0220   -6.0110 ha        1 X0D      0.168000
     62 H3          6.8560   -5.8220   -6.7830 ha        1 X0D      0.177000
     63 H192        3.9050    1.3140    2.7010 hn        1 X0D      0.384800
     64 H151        8.8910   -0.0400    2.4950 hn        1 X0D      0.467800
@<TRIPOS>BOND
     1    1    2 2   
     2    2    3 1   
     3    2    4 1   
     4    3   12 1   
     5    4    5 1   
     6    4   11 1   
     7    4   36 1   
     8    5    6 1   
     9    5   37 1   
    10    5   38 1   
    11    6    7 1   
    12    7    8 1   
    13    7   40 1   
    14    7   41 1   
    15    8    9 1   
    16    8   10 1   
    17    8   42 1   
    18    9   43 1   
    19    9   44 1   
    20    9   45 1   
    21   10   46 1   
    22   10   47 1   
    23   10   48 1   
    24   11   39 1   
    25   11   63 1   
    26   12   13 2   
    27   12   14 1   
    28   14   15 1   
    29   14   18 1   
    30   14   64 1   
    31   15   16 1   
    32   15   49 1   
    33   15   50 1   
    34   16   17 1   
    35   16   51 1   
    36   16   52 1   
    37   17   53 1   
    38   17   54 1   
    39   17   55 1   
    40   18   19 2   
    41   18   20 1   
    42   20   21 ar  
    43   20   22 ar  
    44   21   25 ar  
    45   21   56 1   
    46   22   23 ar  
    47   22   57 1   
    48   23   24 ar  
    49   23   58 1   
    50   24   25 ar  
    51   24   59 1   
    52   25   26 1   
    53   26   27 3   
    54   27   28 1   
    55   28   29 ar  
    56   28   34 ar  
    57   29   30 ar  
    58   29   60 1   
    59   30   31 ar  
    60   30   61 1   
    61   31   32 1   
    62   31   33 ar  
    63   33   34 ar  
    64   33   62 1   
    65   34   35 1   
@<TRIPOS>SUBSTRUCTURE
     1 X0D         1 TEMP              0 ****  ****    0 ROOT
