@<TRIPOS>MOLECULE
X0P
   68    67     1     0     0
SMALL
bcc


@<TRIPOS>ATOM
      1 C1          1.0730    0.2580    0.2530 c2        1 X0P     -0.119000
      2 C2          0.9290    1.6560   -0.3570 c3        1 X0P     -0.024000
      3 C3          1.1350    0.1810    1.6950 c2        1 X0P     -0.039000
      4 C4          0.3270    2.6520    0.5640 c2        1 X0P     -0.120000
      5 C5          3.1220   -5.5300    6.7110 c2        1 X0P     -0.056000
      6 C6         -2.8950   -0.9920    4.7770 c2        1 X0P      0.134000
      7 C7         -6.7640    0.9890    4.1640 c1        1 X0P     -0.025000
      8 C8          2.5710   -6.6690    7.2100 c2        1 X0P     -0.182000
      9 C9         -4.1550   -1.5860    4.7850 c2        1 X0P     -0.371000
     10 C10        -5.6300    0.3360    4.0410 c2        1 X0P     -0.192000
     11 C11         0.7820    1.2330    2.4730 c2        1 X0P     -0.143000
     12 C12         0.9370   -4.5990    6.1430 c2        1 X0P     -0.159000
     13 C13        -2.5960    0.3680    4.7910 c2        1 X0P     -0.386000
     14 C14         0.2990    2.4850    1.9020 c2        1 X0P     -0.065000
     15 C15         2.2890   -4.4640    6.1810 c2        1 X0P     -0.026000
     16 C16         1.1650   -6.7720    7.3950 c1        1 X0P     -0.027000
     17 C17         0.3090   -5.8980    6.5870 c3        1 X0P     -0.008000
     18 C18        -5.3950   -0.9910    4.5710 c2        1 X0P      0.307000
     19 C19         0.8910    1.1610    3.9410 c2        1 X0P      0.362000
     20 C21         1.1850   -0.6740   -1.9830 c2        1 X0P     -0.113000
     21 C25        -1.3650    0.9860    4.7420 c1        1 X0P     -0.042000
     22 C26        -0.2200    3.5180    2.8280 c3        1 X0P     -0.205000
     23 C27         3.0190   -3.2290    5.7080 c3        1 X0P      0.035000
     24 C28         2.5850   -2.5580    3.2500 c1        1 X0P      0.107000
     25 C29         0.5520    0.4470   -2.3040 c1        1 X0P     -0.120000
     26 N1         -0.1150    0.2500    4.6140 ny        1 X0P     -0.113000
     27 N2          2.7920   -2.8930    4.3630 n2        1 X0P     -0.328000
     28 O1          0.2470   -2.3240    5.6360 o         1 X0P     -0.409000
     29 O3          1.6910    1.7140    4.6790 o         1 X0P     -0.193000
     30 C40         0.1310    1.5090   -1.6310 c2        1 X0P     -0.107000
     31 O4         -1.1830   -3.8450    5.1190 oh        1 X0P     -0.299000
     32 C50         1.1610   -0.8610   -0.5210 c2        1 X0P     -0.068000
     33 O6         -0.9720   -5.6310    7.1500 os        1 X0P     -0.300000
     34 O8         -6.5330   -1.6920    4.7880 oh        1 X0P     -0.208000
     35 H3          1.4750   -0.7800    2.1280 ha        1 X0P      0.155000
     36 H40         1.9850    2.0120   -0.5810 hc        1 X0P      0.140000
     37 H4         -0.0550    3.5720    0.0940 ha        1 X0P      0.151000
     38 H50         1.3160   -1.8660   -0.1070 ha        1 X0P      0.149000
     39 H5          4.2150   -5.3720    6.7090 ha        1 X0P      0.161000
     40 H8          3.2000   -7.4980    7.5820 ha        1 X0P      0.182000
     41 H6         -2.0470   -1.7190    4.8150 ha        1 X0P      0.150000
     42 H9         -4.1650   -2.6750    4.9920 ha        1 X0P      0.153000
     43 H7         -3.4230    1.0980    4.9030 ha        1 X0P      0.177000
     44 H10        -4.7870    0.7860    3.4780 ha        1 X0P      0.186000
     45 H16         0.1000   -6.5150    5.6410 h1        1 X0P      0.159000
     46 H251       -3.7380    2.8190    2.8480 ha        1 X0P      0.002000
     47 H252       -3.1920    2.5630    3.1560 ha        1 X0P      0.002000
     48 H261        0.6150    3.9210    3.4560 hc        1 X0P      0.103333
     49 H262       -0.9920    3.0760    3.5120 hc        1 X0P      0.103333
     50 H271        2.6800   -2.3620    6.3560 h1        1 X0P      0.131000
     51 H272        4.1330   -3.3640    5.8570 h1        1 X0P      0.131000
     52 H1         -0.1650   -0.6410    4.1000 hn        1 X0P      0.232500
     53 H21         1.7600   -1.3430   -2.6270 ha        1 X0P      0.174000
     54 H29        -0.7270    2.1500   -1.8430 ha        1 X0P      0.167000
     55 H221       -2.2350   -5.8620    8.6890 h1        1 X0P      0.094000
     56 H222       -1.0870   -7.2860    8.4310 h1        1 X0P      0.094000
     57 H223       -0.4600   -5.7360    9.1770 h1        1 X0P      0.094000
     58 H241       -6.3310   -2.5720    5.1540 ho        1 X0P      0.255000
     59 H242       -8.6820    1.5920    3.5530 ha        1 X0P      0.176500
     60 H243       -8.0360    2.3630    5.1230 ha        1 X0P      0.176500
     61 H281        0.0430   -2.5290    3.0650 ha        1 X0P      0.002000
     62 H282       -0.6320   -2.5720    3.1280 ha        1 X0P      0.002000
     63 H283       -1.4170   -4.7780    5.2470 ho        1 X0P      0.268000
     64 C22        -1.1860   -6.1740    8.4510 c3        1 X0P     -0.054000
     65 C24        -7.8590    1.6680    4.2850 c2        1 X0P     -0.146000
     66 H12         0.2140    0.0360    5.5700 hn        1 X0P      0.232500
     67 H211       -0.6820    4.3670    2.2680 hc        1 X0P      0.103333
     68 C20         0.0340   -3.5470    5.6490 c2        1 X0P      0.397000
@<TRIPOS>BOND
     1    1    2 1   
     2    1    3 1   
     3    1   32 1   
     4    2    4 1   
     5    2   30 1   
     6    2   36 1   
     7    3   11 1   
     8    3   35 1   
     9    4   14 1   
    10    4   37 1   
    11    5    8 1   
    12    5   15 1   
    13    5   39 1   
    14    6    9 1   
    15    6   13 1   
    16    6   41 1   
    17    7   10 1   
    18    7   65 1   
    19    8   16 1   
    20    8   40 1   
    21    9   18 1   
    22    9   42 1   
    23   10   18 1   
    24   10   44 1   
    25   11   14 1   
    26   11   19 1   
    27   12   15 1   
    28   12   17 1   
    29   12   68 1   
    30   13   21 1   
    31   13   43 1   
    32   14   22 1   
    33   15   23 1   
    34   16   17 1   
    35   17   33 1   
    36   17   45 1   
    37   18   34 1   
    38   19   26 1   
    39   19   29 1   
    40   20   25 1   
    41   20   32 1   
    42   20   53 1   
    43   21   26 1   
    44   22   48 1   
    45   22   49 1   
    46   22   67 1   
    47   23   27 1   
    48   23   50 1   
    49   23   51 1   
    50   24   27 1   
    51   25   30 1   
    52   26   52 1   
    53   26   66 1   
    54   28   68 1   
    55   30   54 1   
    56   31   63 1   
    57   31   68 1   
    58   32   38 1   
    59   33   64 1   
    60   34   58 1   
    61   46   47 1   
    62   55   64 1   
    63   56   64 1   
    64   57   64 1   
    65   59   65 1   
    66   60   65 1   
    67   61   62 1   
@<TRIPOS>SUBSTRUCTURE
     1 X0P         1 TEMP              0 ****  ****    0 ROOT
