@<TRIPOS>MOLECULE
X0P
   68    66     1     0     0
SMALL
bcc


@<TRIPOS>ATOM
      1 C1          1.3160   -0.1870    0.4060 c2        1 X0P     -0.135000
      2 C2          1.0010    1.1630   -0.1990 c3        1 X0P     -0.020000
      3 C3          1.0650   -0.2910    1.8250 c2        1 X0P     -0.018000
      4 C4         -0.2420    1.7440    0.3560 c2        1 X0P     -0.113000
      5 C5          4.2330   -4.9080    7.2020 ca        1 X0P     -0.151000
      6 C6         -4.6560   -1.2250    3.6680 c3        1 X0P      0.057000
      7 C7         -6.5270    2.9350    5.5350 c2        1 X0P     -0.168000
      8 C8          3.7160   -6.0690    7.7830 ca        1 X0P     -0.044000
      9 C9         -5.3750   -0.0320    3.9940 c1        1 X0P     -0.251000
     10 C10        -6.7820    2.0910    4.5310 c2        1 X0P     -0.111000
     11 C11         0.1240    0.5040    2.4020 c2        1 X0P     -0.172000
     12 C12         1.9900   -4.1850    6.6280 ca        1 X0P     -0.189000
     13 C13        -3.2410   -1.1030    3.9090 c1        1 X0P      0.071000
     14 C14        -0.6430    1.4660    1.6160 c2        1 X0P     -0.077000
     15 C15         3.3790   -3.9650    6.6310 ca        1 X0P     -0.008000
     16 C16         2.3470   -6.3140    7.7800 ca        1 X0P     -0.192000
     17 C17         1.4850   -5.3770    7.1920 ca        1 X0P      0.125000
     18 C18        -6.0110    0.9500    4.2550 c1        1 X0P     -0.017000
     19 C19        -0.1490    0.4560    3.8410 c2        1 X0P      0.345000
     20 C21         1.3570   -1.2880   -1.7400 c2        1 X0P     -0.117000
     21 C25        -2.0640   -1.0040    4.1070 c1        1 X0P     -0.284000
     22 C26        -1.8310    2.0970    2.2340 c3        1 X0P     -0.193000
     23 C27         3.9750   -2.7070    6.0500 c3        1 X0P      0.034000
     24 C28         3.2520   -2.1930    3.6210 c1        1 X0P      0.073000
     25 C29         1.2370   -0.0440   -2.2110 c1        1 X0P     -0.101000
     26 N1         -0.7050   -0.8920    4.3490 n4        1 X0P      0.026000
     27 N2          3.5960   -2.4450    4.7200 n2        1 X0P     -0.311000
     28 O1          1.0910   -1.9540    6.2260 o         1 X0P     -0.375000
     29 O3         -0.0060    1.2970    4.7090 o         1 X0P     -0.160000
     30 C40         1.2100    1.1690   -1.7000 c2        1 X0P     -0.113000
     31 O4          0.0610   -3.5560    5.2310 oh        1 X0P     -0.344000
     32 C50         1.6890   -1.2870   -0.3250 c2        1 X0P     -0.042000
     33 O6          0.1190   -5.5360    7.1010 os        1 X0P     -0.243000
     34 O8         -9.6130    1.9970    1.6940 oh        1 X0P     -0.133000
     35 H3          1.6430   -1.0490    2.3890 ha        1 X0P      0.168000
     36 H40         1.8540    1.8530    0.1280 hc        1 X0P      0.152000
     37 H4         -0.7940    2.4460   -0.2880 ha        1 X0P      0.159000
     38 H50         2.0380   -2.2150    0.1510 ha        1 X0P      0.151000
     39 H5          5.3220   -4.7410    7.2000 ha        1 X0P      0.158000
     40 H8          4.4000   -6.8010    8.2420 ha        1 X0P      0.160000
     41 H6         -4.8160   -1.4840    2.5770 hc        1 X0P      0.142000
     42 H9         -5.0530   -2.0910    4.2820 hc        1 X0P      0.142000
     43 H7         -7.1590    3.8160    5.7140 ha        1 X0P      0.120500
     44 H10        -5.6890    2.8090    6.2330 ha        1 X0P      0.120500
     45 H16         1.9510   -7.2340    8.2350 ha        1 X0P      0.162000
     46 H251        0.0390    0.0590    7.1830 ha        1 X0P      0.003500
     47 H252        0.5970    0.3200    6.8990 ha        1 X0P      0.003500
     48 H261       -1.5180    2.7700    3.0720 hc        1 X0P      0.096667
     49 H262       -2.5210    1.3170    2.6460 hc        1 X0P      0.096667
     50 H271        3.6380   -1.8340    6.6920 h1        1 X0P      0.133500
     51 H272        5.1040   -2.7660    6.0950 h1        1 X0P      0.133500
     52 H1         -0.2110   -1.6780    3.8880 hn        1 X0P      0.281500
     53 H21         1.1020   -2.2200   -2.2520 ha        1 X0P      0.175000
     54 H29         1.4770    2.1120   -2.1870 ha        1 X0P      0.172000
     55 H221       -1.5490   -6.4980    7.6600 h1        1 X0P      0.101333
     56 H222       -0.1040   -7.6030    7.3670 h1        1 X0P      0.101333
     57 H223       -0.1870   -6.5810    8.8970 h1        1 X0P      0.101333
     58 H241      -10.4170    2.0910    1.1340 ho        1 X0P      0.159000
     59 H242       -7.6470    2.2510    3.8420 ha        1 X0P      0.199000
     60 H243      -10.3180    3.5150    2.9020 ha        1 X0P      0.021000
     61 H281        1.0510   -3.2020    2.9510 ha        1 X0P      0.003500
     62 H282        0.4450   -3.4710    2.8030 ha        1 X0P      0.003500
     63 H283       -0.0260   -4.5210    5.1870 ho        1 X0P      0.273000
     64 C22        -0.4480   -6.6380    7.8130 c3        1 X0P     -0.074000
     65 C24        -9.5080    2.7760    2.7040 c1        1 X0P     -0.037000
     66 H12        -0.5280   -0.9710    5.3780 hn        1 X0P      0.281500
     67 H211       -2.3970    2.7070    1.4870 hc        1 X0P      0.096667
     68 C20         1.0730   -3.1850    6.0740 c2        1 X0P      0.393000
@<TRIPOS>BOND
     1    1    2 1   
     2    1    3 1   
     3    1   32 1   
     4    2    4 1   
     5    2   30 1   
     6    2   36 1   
     7    3   11 1   
     8    3   35 1   
     9    4   14 1   
    10    4   37 1   
    11    5    8 1   
    12    5   15 1   
    13    5   39 1   
    14    6    9 1   
    15    6   13 1   
    16    6   41 1   
    17    6   42 1   
    18    7   10 1   
    19    7   43 1   
    20    7   44 1   
    21    8   16 1   
    22    8   40 1   
    23    9   18 1   
    24   10   18 1   
    25   10   59 1   
    26   11   14 1   
    27   11   19 1   
    28   12   15 1   
    29   12   17 1   
    30   12   68 1   
    31   13   21 1   
    32   14   22 1   
    33   15   23 1   
    34   16   17 1   
    35   16   45 1   
    36   17   33 1   
    37   19   26 1   
    38   19   29 1   
    39   20   25 1   
    40   20   32 1   
    41   20   53 1   
    42   21   26 1   
    43   22   48 1   
    44   22   49 1   
    45   22   67 1   
    46   23   27 1   
    47   23   50 1   
    48   23   51 1   
    49   24   27 1   
    50   25   30 1   
    51   26   52 1   
    52   26   66 1   
    53   28   68 1   
    54   30   54 1   
    55   31   63 1   
    56   31   68 1   
    57   32   38 1   
    58   33   64 1   
    59   34   58 1   
    60   34   65 1   
    61   46   47 1   
    62   55   64 1   
    63   56   64 1   
    64   57   64 1   
    65   60   65 1   
    66   61   62 1   
@<TRIPOS>SUBSTRUCTURE
     1 X0P         1 TEMP              0 ****  ****    0 ROOT
