@<TRIPOS>MOLECULE
X0P
   66    69     1     0     0
SMALL
bcc


@<TRIPOS>ATOM
      1 C1          0.9840   -4.4090   -0.4380 ca        1 X0P     -0.042000
      2 C2         -0.3930   -4.7370   -0.3610 ca        1 X0P     -0.030000
      3 C3          1.4450   -3.2280    0.1970 ca        1 X0P     -0.088000
      4 C4         -1.2710   -3.8600    0.3260 ca        1 X0P     -0.133000
      5 C5         -5.0890    1.1850    0.2130 ca        1 X0P     -0.153000
      6 C6          2.5480    2.3510   -0.2460 ca        1 X0P     -0.085500
      7 C7          4.0560    1.4470    1.4180 ca        1 X0P     -0.085500
      8 C8         -5.6910    2.1430   -0.5990 ca        1 X0P     -0.151000
      9 C9          3.6280    2.8300   -0.9770 ca        1 X0P     -0.195000
     10 C10         5.1530    1.9250    0.6990 ca        1 X0P     -0.195000
     11 C11         0.5730   -2.3920    0.8640 ca        1 X0P     -0.089600
     12 C12        -2.9290    2.2760   -0.0490 ca        1 X0P     -0.092600
     13 C13         2.7580    1.6610    0.9570 ca        1 X0P     -0.118300
     14 C14        -0.8140   -2.6970    0.9130 ca        1 X0P     -0.030300
     15 C15        -3.7190    1.2480    0.4880 ca        1 X0P     -0.062300
     16 C16        -4.9250    3.1630   -1.1550 ca        1 X0P     -0.155000
     17 C17        -3.5500    3.2270   -0.8760 ca        1 X0P      0.109100
     18 C18         4.9330    2.6150   -0.4960 ca        1 X0P      0.101100
     19 C19         1.1770   -1.2300    1.6000 c         1 X0P      0.652700
     20 C21         1.3920   -6.4240   -1.7280 ca        1 X0P     -0.144000
     21 C25         1.5660    1.1850    1.7420 c3        1 X0P      0.109300
     22 C26        -1.7910   -1.7920    1.6150 c3        1 X0P      0.212100
     23 C27        -3.1070    0.2230    1.4040 c3        1 X0P      0.211100
     24 C28        -3.4010   -1.5970   -0.1860 c3        1 X0P      0.154100
     25 C29         0.0170   -6.7540   -1.6470 ca        1 X0P     -0.136000
     26 N1          0.9170    0.0340    1.1640 n         1 X0P     -0.522900
     27 N2         -2.5020   -0.9060    0.7040 n3        1 X0P     -0.721600
     28 O1         -1.1510    2.7450    1.4720 o         1 X0P     -0.833300
     29 O3          1.9270   -1.4660    2.5800 o         1 X0P     -0.660100
     30 C40         1.8660   -5.2790   -1.1380 ca        1 X0P     -0.107000
     31 O4         -0.5960    1.9520   -0.5290 o         1 X0P     -0.833300
     32 C50        -0.8560   -5.9310   -0.9800 ca        1 X0P     -0.119000
     33 O6         -2.8820    4.3410   -1.3740 os        1 X0P     -0.351900
     34 O8          5.9420    3.1350   -1.2970 os        1 X0P     -0.337900
     35 H3          2.5200   -2.9900    0.1660 ha        1 X0P      0.145000
     36 H40         2.9320   -5.0120   -1.1940 ha        1 X0P      0.131000
     37 H4         -2.3390   -4.1210    0.3790 ha        1 X0P      0.130000
     38 H50        -1.9260   -6.1770   -0.9150 ha        1 X0P      0.126000
     39 H5         -5.6950    0.3760    0.6460 ha        1 X0P      0.112000
     40 H8         -6.7690    2.0920   -0.8040 ha        1 X0P      0.110000
     41 H6          1.5060    2.5030   -0.5970 ha        1 X0P      0.169000
     42 H9          3.4800    3.3730   -1.9200 ha        1 X0P      0.128500
     43 H7          4.2200    0.8920    2.3540 ha        1 X0P      0.169000
     44 H10         6.1680    1.7510    1.0780 ha        1 X0P      0.128500
     45 H16        -5.3820    3.9280   -1.7960 ha        1 X0P      0.125000
     46 H251        1.8850    0.9400    2.7950 h1        1 X0P      0.095700
     47 H252        0.7950    2.0210    1.7650 h1        1 X0P      0.095700
     48 H261       -2.5090   -2.4460    2.1990 h1        1 X0P      0.042200
     49 H262       -1.2340   -1.1600    2.3650 h1        1 X0P      0.042200
     50 H271       -2.2890    0.7330    2.0000 h1        1 X0P      0.050700
     51 H272       -3.9000   -0.1310    2.1290 h1        1 X0P      0.050700
     52 H1          0.2670    0.2170    0.4200 hn        1 X0P      0.373500
     53 H21         2.0710   -7.0980   -2.2700 ha        1 X0P      0.122000
     54 H29        -0.3390   -7.6760   -2.1290 ha        1 X0P      0.121000
     55 H221       -1.3910    5.0060   -2.5460 h1        1 X0P      0.045033
     56 H222       -1.2500    3.2220   -2.1030 h1        1 X0P      0.045033
     57 H223       -2.4950    3.7740   -3.3420 h1        1 X0P      0.045033
     58 H241        7.5020    1.8400   -0.7670 h1        1 X0P      0.033367
     59 H242        7.9010    3.4210   -1.6140 h1        1 X0P      0.033367
     60 H243        7.4210    3.4190    0.1600 h1        1 X0P      0.033367
     61 H281       -4.1650   -2.2260    0.3520 h1        1 X0P      0.027700
     62 H282       -3.9420   -0.8470   -0.8220 h1        1 X0P      0.027700
     63 H283       -2.8010   -2.2640   -0.8590 h1        1 X0P      0.027700
     64 C20        -1.4580    2.3410    0.3150 c         1 X0P      0.923200
     65 C22        -1.9450    4.0450   -2.4080 c3        1 X0P      0.101700
     66 C24         7.2670    2.9310   -0.8330 c3        1 X0P      0.119700
@<TRIPOS>BOND
     1    1    2 ar  
     2    1    3 ar  
     3    1   30 ar  
     4    2    4 ar  
     5    2   32 ar  
     6    3   11 ar  
     7    3   35 1   
     8    4   14 ar  
     9    4   37 1   
    10    5    8 ar  
    11    5   15 ar  
    12    5   39 1   
    13    6    9 ar  
    14    6   13 ar  
    15    6   41 1   
    16    7   10 ar  
    17    7   13 ar  
    18    7   43 1   
    19    8   16 ar  
    20    8   40 1   
    21    9   18 ar  
    22    9   42 1   
    23   10   18 ar  
    24   10   44 1   
    25   11   14 ar  
    26   11   19 1   
    27   12   15 ar  
    28   12   17 ar  
    29   12   64 1   
    30   13   21 1   
    31   14   22 1   
    32   15   23 1   
    33   16   17 ar  
    34   16   45 1   
    35   17   33 1   
    36   18   34 1   
    37   19   26 1   
    38   19   29 2   
    39   20   25 ar  
    40   20   30 ar  
    41   20   53 1   
    42   21   26 1   
    43   21   46 1   
    44   21   47 1   
    45   22   27 1   
    46   22   48 1   
    47   22   49 1   
    48   23   27 1   
    49   23   50 1   
    50   23   51 1   
    51   24   27 1   
    52   24   61 1   
    53   24   62 1   
    54   24   63 1   
    55   25   32 ar  
    56   25   54 1   
    57   26   52 1   
    58   28   64 1   
    59   30   36 1   
    60   31   64 1   
    61   32   38 1   
    62   33   65 1   
    63   34   66 1   
    64   55   65 1   
    65   56   65 1   
    66   57   65 1   
    67   58   66 1   
    68   59   66 1   
    69   60   66 1   
@<TRIPOS>SUBSTRUCTURE
     1 X0P         1 TEMP              0 ****  ****    0 ROOT
