@<TRIPOS>MOLECULE
X0P
   68    69     1     0     0
SMALL
bcc


@<TRIPOS>ATOM
      1 C1         -1.1940   -0.1190    0.1880 ce        1 X0P     -0.147200
      2 C2          0.0440   -1.0220    0.1500 c3        1 X0P      0.023900
      3 C3         -1.6420    0.3070    1.4900 ce        1 X0P     -0.017000
      4 C4          0.9300   -0.8620    1.3310 c2        1 X0P     -0.080200
      5 C5          4.3700   -2.9920    7.3220 cc        1 X0P     -0.126000
      6 C6         -4.6110   -1.3980    6.3030 c3        1 X0P      0.002900
      7 C7         -7.6150    1.7270    3.9830 c2        1 X0P     -0.116000
      8 C8          4.4490   -4.3050    7.9070 cc        1 X0P     -0.075000
      9 C9         -5.2370   -0.4670    5.4160 c1        1 X0P     -0.185100
     10 C10        -6.4100    1.1790    3.7700 ce        1 X0P     -0.069900
     11 C11        -0.8460    0.2040    2.5870 cf        1 X0P     -0.176200
     12 C12         2.0990   -3.4600    6.5560 cd        1 X0P     -0.324200
     13 C13        -3.2260   -1.7800    5.9390 c2        1 X0P     -0.070200
     14 C14         0.5100   -0.3240    2.4950 cf        1 X0P     -0.085200
     15 C15         3.2580   -2.5900    6.6530 cd        1 X0P     -0.078200
     16 C16         3.4800   -5.2140    7.6830 cd        1 X0P     -0.215200
     17 C17         2.2780   -4.8830    6.9060 c         1 X0P      0.584500
     18 C18        -5.8040    0.2900    4.6780 cg        1 X0P     -0.112300
     19 C19        -1.3130    0.6900    3.8900 c         1 X0P      0.596300
     20 C21        -1.3790   -0.3040   -2.2260 cf        1 X0P     -0.189100
     21 C25        -2.3620   -1.1670    5.1170 c2        1 X0P     -0.126000
     22 C26         1.4080   -0.2060    3.6800 c3        1 X0P     -0.093100
     23 C27         3.3120   -1.2940    5.8870 c3        1 X0P      0.150000
     24 C28         2.6150   -1.0560    3.5010 c1        1 X0P     -0.129100
     25 C29        -0.0920   -0.6140   -2.1320 c1        1 X0P      0.027200
     26 N1         -2.6170    0.0590    4.3770 n4        1 X0P     -0.554600
     27 N2          3.3900   -1.4950    4.4460 n3        1 X0P     -0.521000
     28 O1          0.4140   -1.6950    6.4450 oh        1 X0P     -0.530100
     29 O3         -0.8360    1.5260    4.6410 o         1 X0P     -0.426100
     30 C40         0.7780   -0.7260   -1.1370 c2        1 X0P     -0.167300
     31 O4         -0.2730   -3.6100    5.8130 os        1 X0P     -0.339900
     32 C50        -1.8500    0.2580   -0.9490 cf        1 X0P     -0.039000
     33 O6          1.4260   -5.7480    6.6410 o         1 X0P     -0.575100
     34 O8         -4.2720    1.7620    2.8010 oh        1 X0P     -0.660800
     35 H3         -2.6430    0.7770    1.5440 ha        1 X0P      0.149000
     36 H40        -0.3360   -2.0920    0.1650 hc        1 X0P      0.094700
     37 H4          1.9620   -1.2500    1.2310 ha        1 X0P      0.191000
     38 H50        -2.7600    0.8740   -0.9400 ha        1 X0P      0.147000
     39 H5          5.2590   -2.3460    7.4000 ha        1 X0P      0.145000
     40 H8          5.3430   -4.5490    8.5050 ha        1 X0P      0.151000
     41 H6         -5.2430   -2.3370    6.3500 hc        1 X0P      0.108700
     42 H9         -4.5960   -0.9720    7.3530 hc        1 X0P      0.108700
     43 H7         -8.0770    2.4170    3.2610 ha        1 X0P      0.140500
     44 H10        -8.2110    1.5140    4.8820 ha        1 X0P      0.140500
     45 H16         3.5360   -6.2480    8.0590 ha        1 X0P      0.166000
     46 H251       -1.3360   -1.5730    4.9640 hx        1 X0P      0.214000
     47 H252       -2.8570   -2.7020    6.4380 ha        1 X0P      0.188000
     48 H261        1.7420    0.8680    3.7740 hc        1 X0P      0.060200
     49 H262        0.8230   -0.4540    4.6130 hc        1 X0P      0.060200
     50 H271        0.9290   -1.3080    7.1740 ho        1 X0P      0.461000
     51 H272        4.2310   -0.7180    6.2080 h1        1 X0P      0.062700
     52 H1         -3.1220    0.7310    4.9740 hn        1 X0P      0.462300
     53 H21        -2.0750   -0.5070   -3.0430 ha        1 X0P      0.178000
     54 H29         1.8520   -0.5260   -1.1480 ha        1 X0P      0.177000
     55 H221       -0.4560   -5.5940    5.2980 h1        1 X0P      0.070033
     56 H222        0.9540   -4.7390    4.4880 h1        1 X0P      0.070033
     57 H223       -0.7690   -4.3290    3.9790 h1        1 X0P      0.070033
     58 H241       -4.2520    2.6780    3.1060 ho        1 X0P      0.426000
     59 H242       -6.1030    2.2550    1.9080 h1        1 X0P      0.070700
     60 H243       -5.5660    0.5000    1.8950 h1        1 X0P      0.070700
     61 H281        0.6750   -3.4810    1.7270 ha        1 X0P      0.000000
     62 H282        0.5630   -4.0290    2.1110 ha        1 X0P      0.000000
     63 H283        4.1620   -2.0660    4.1560 hn        1 X0P      0.458800
     64 C22        -0.1050   -4.6440    4.8240 c3        1 X0P      0.129700
     65 C24        -5.6270    1.4390    2.5140 c3        1 X0P      0.169600
     66 H12        -3.2230   -0.1360    3.5640 hn        1 X0P      0.462300
     67 H211        2.4270   -0.6380    6.1130 h1        1 X0P      0.062700
     68 C20         0.8450   -2.9820    6.2610 c2        1 X0P      0.379200
@<TRIPOS>BOND
     1    1    2 1   
     2    1    3 1   
     3    1   32 2   
     4    2    4 1   
     5    2   30 1   
     6    2   36 1   
     7    3   11 2   
     8    3   35 1   
     9    4   14 2   
    10    4   37 1   
    11    5    8 1   
    12    5   15 2   
    13    5   39 1   
    14    6    9 1   
    15    6   13 1   
    16    6   41 1   
    17    6   42 1   
    18    7   10 2   
    19    7   43 1   
    20    7   44 1   
    21    8   16 2   
    22    8   40 1   
    23    9   18 3   
    24   10   18 1   
    25   10   65 1   
    26   11   14 1   
    27   11   19 1   
    28   12   15 1   
    29   12   17 1   
    30   12   68 2   
    31   13   21 2   
    32   13   47 1   
    33   14   22 1   
    34   15   23 1   
    35   16   17 1   
    36   16   45 1   
    37   17   33 2   
    38   19   26 1   
    39   19   29 2   
    40   20   25 2   
    41   20   32 1   
    42   20   53 1   
    43   21   26 1   
    44   21   46 1   
    45   22   24 1   
    46   22   48 1   
    47   22   49 1   
    48   23   27 1   
    49   23   51 1   
    50   23   67 1   
    51   24   27 3   
    52   25   30 2   
    53   26   52 1   
    54   26   66 1   
    55   27   63 1   
    56   28   50 1   
    57   28   68 1   
    58   30   54 1   
    59   31   64 1   
    60   31   68 1   
    61   32   38 1   
    62   34   58 1   
    63   34   65 1   
    64   55   64 1   
    65   56   64 1   
    66   57   64 1   
    67   59   65 1   
    68   60   65 1   
    69   61   62 1   
@<TRIPOS>SUBSTRUCTURE
     1 X0P         1 TEMP              0 ****  ****    0 ROOT
