@<TRIPOS>MOLECULE
X0Q
   32    34     1     0     0
SMALL
bcc


@<TRIPOS>ATOM
      1 O22        -0.1520    0.2510    0.0400 o         1 X0Q     -0.579800
      2 S21         1.2130    0.3920    0.1480 sy        1 X0Q      1.562200
      3 O23         1.8690    0.1230    1.3290 o         1 X0Q     -0.579800
      4 N24         1.7350   -1.2200   -0.8500 nz        1 X0Q     -0.778500
      5 C19         1.8750    1.4510   -0.7720 cc        1 X0Q     -0.735600
      6 S20         3.3340    2.2590   -0.6550 ss        1 X0Q      0.325200
      7 C16         3.1100    3.2260   -1.9580 cc        1 X0Q     -0.019600
      8 C17         1.8540    2.9670   -2.5740 cd        1 X0Q     -0.156000
      9 C18         1.1600    1.9770   -1.9040 cd        1 X0Q     -0.001000
     10 C14         4.0260    4.2000   -2.4290 cc        1 X0Q      0.237800
     11 C15         5.2190    4.7060   -1.8450 cd        1 X0Q     -0.140600
     12 N11         5.6730    5.6500   -2.7600 na        1 X0Q      0.150300
     13 N12         4.8130    5.7110   -3.8270 nd        1 X0Q     -0.112800
     14 N13         3.8640    4.8990   -3.6670 nc        1 X0Q     -0.294000
     15 C10         6.8520    6.4440   -2.6190 ca        1 X0Q     -0.027200
     16 C9          7.9790    5.9130   -1.9580 ca        1 X0Q     -0.116000
     17 C8          9.1220    6.6940   -1.8170 ca        1 X0Q     -0.114000
     18 C7          9.1690    7.9900   -2.3290 ca        1 X0Q     -0.069000
     19 C4          8.0520    8.5120   -2.9940 ca        1 X0Q      0.015000
     20 C3          6.8880    7.7480   -3.1460 ca        1 X0Q     -0.065000
     21 C5          8.0930    9.8320   -3.5230 cg        1 X0Q      0.207800
     22 N22         8.1280   10.9120   -3.9550 n1        1 X0Q     -0.305800
     23 H242        0.9050   -1.7490   -1.1040 hn        1 X0Q      0.446133
     24 H241        2.3220   -1.8150   -0.2730 hn        1 X0Q      0.446133
     25 H18         0.1510    1.6340   -2.1760 ha        1 X0Q      0.191000
     26 H17         1.4920    3.5020   -3.4620 ha        1 X0Q      0.213000
     27 H15         5.7270    4.4880   -0.9050 h4        1 X0Q      0.209000
     28 H9          7.9720    4.8870   -1.5600 ha        1 X0Q      0.142000
     29 H3          6.0210    8.1780   -3.6780 ha        1 X0Q      0.178000
     30 H8         10.0020    6.2790   -1.2980 ha        1 X0Q      0.160000
     31 H7         10.0810    8.5990   -2.2150 ha        1 X0Q      0.168000
     32 H243        2.2400   -0.9970   -1.6980 hn        1 X0Q      0.446133
@<TRIPOS>BOND
     1    1    2 2   
     2    2    3 2   
     3    2    4 1   
     4    2    5 1   
     5    4   23 1   
     6    4   24 1   
     7    4   32 1   
     8    5    6 1   
     9    5    9 2   
    10    6    7 1   
    11    7    8 2   
    12    7   10 1   
    13    8    9 1   
    14    8   26 1   
    15    9   25 1   
    16   10   11 2   
    17   10   14 1   
    18   11   12 1   
    19   11   27 1   
    20   12   13 1   
    21   12   15 1   
    22   13   14 2   
    23   15   16 ar  
    24   15   20 ar  
    25   16   17 ar  
    26   16   28 1   
    27   17   18 ar  
    28   17   30 1   
    29   18   19 ar  
    30   18   31 1   
    31   19   20 ar  
    32   19   21 1   
    33   20   29 1   
    34   21   22 3   
@<TRIPOS>SUBSTRUCTURE
     1 X0Q         1 TEMP              0 ****  ****    0 ROOT
