@<TRIPOS>MOLECULE
X0Q
   32    34     1     0     0
SMALL
bcc


@<TRIPOS>ATOM
      1 O22        -0.1580    0.2520    0.0250 o         1 X0Q     -0.579800
      2 S21         1.2060    0.3940    0.1400 sy        1 X0Q      1.562200
      3 O23         1.8550    0.1290    1.3260 o         1 X0Q     -0.579800
      4 N24         1.7350   -1.2200   -0.8500 n4        1 X0Q     -0.778500
      5 C19         1.8710    1.4510   -0.7790 cc        1 X0Q     -0.735600
      6 S20         3.3290    2.2610   -0.6570 ss        1 X0Q      0.325200
      7 C16         3.1110    3.2250   -1.9630 cc        1 X0Q     -0.019600
      8 C17         1.8580    2.9630   -2.5860 cd        1 X0Q     -0.156000
      9 C18         1.1610    1.9740   -1.9170 cd        1 X0Q     -0.001000
     10 C14         4.0280    4.1980   -2.4330 cc        1 X0Q      0.237800
     11 C15         5.2180    4.7070   -1.8440 cd        1 X0Q     -0.140600
     12 N11         5.6760    5.6490   -2.7590 na        1 X0Q      0.150300
     13 N12         4.8210    5.7060   -3.8300 nd        1 X0Q     -0.112800
     14 N13         3.8720    4.8950   -3.6730 nc        1 X0Q     -0.294000
     15 C10         6.8530    6.4440   -2.6140 ca        1 X0Q     -0.027200
     16 C9          7.9780    5.9160   -1.9470 ca        1 X0Q     -0.116000
     17 C8          9.1190    6.6980   -1.8020 ca        1 X0Q     -0.114000
     18 C7          9.1680    7.9930   -2.3170 ca        1 X0Q     -0.069000
     19 C4          8.0530    8.5130   -2.9880 ca        1 X0Q      0.015000
     20 C3          6.8900    7.7470   -3.1440 ca        1 X0Q     -0.065000
     21 C5          8.0950    9.8320   -3.5190 cg        1 X0Q      0.207800
     22 N22         8.1310   10.9100   -3.9530 n1        1 X0Q     -0.305800
     23 H242        0.9070   -1.7510   -1.1080 hn        1 X0Q      0.446133
     24 H241        2.3200   -1.8120   -0.2690 hn        1 X0Q      0.446133
     25 H18         0.1550    1.6290   -2.1930 ha        1 X0Q      0.191000
     26 H17         1.5000    3.4950   -3.4770 ha        1 X0Q      0.213000
     27 H15         5.7220    4.4910   -0.9010 h4        1 X0Q      0.209000
     28 H9          7.9700    4.8900   -1.5470 ha        1 X0Q      0.142000
     29 H3          6.0260    8.1750   -3.6800 ha        1 X0Q      0.178000
     30 H8          9.9970    6.2850   -1.2790 ha        1 X0Q      0.160000
     31 H7         10.0780    8.6040   -2.2000 ha        1 X0Q      0.168000
     32 H243        2.2440   -0.9990   -1.6970 hn        1 X0Q      0.446133
@<TRIPOS>BOND
     1    1    2 2   
     2    2    3 2   
     3    2    4 1   
     4    2    5 1   
     5    4   23 1   
     6    4   24 1   
     7    4   32 1   
     8    5    6 1   
     9    5    9 2   
    10    6    7 1   
    11    7    8 2   
    12    7   10 1   
    13    8    9 1   
    14    8   26 1   
    15    9   25 1   
    16   10   11 2   
    17   10   14 1   
    18   11   12 1   
    19   11   27 1   
    20   12   13 1   
    21   12   15 1   
    22   13   14 2   
    23   15   16 ar  
    24   15   20 ar  
    25   16   17 ar  
    26   16   28 1   
    27   17   18 ar  
    28   17   30 1   
    29   18   19 ar  
    30   18   31 1   
    31   19   20 ar  
    32   19   21 1   
    33   20   29 1   
    34   21   22 3   
@<TRIPOS>SUBSTRUCTURE
     1 X0Q         1 TEMP              0 ****  ****    0 ROOT
