@<TRIPOS>MOLECULE
X0Q
   31    33     1     0     0
SMALL
bcc


@<TRIPOS>ATOM
      1 O22        -6.0640   -0.5490   -0.8530 o         1 X0Q     -0.659300
      2 S21        -5.2570    0.4220   -0.2280 sy        1 X0Q      1.563200
      3 O23        -5.1630    1.6900   -0.8430 o         1 X0Q     -0.659300
      4 N24        -5.7480    0.6220    1.2840 n3        1 X0Q     -1.025700
      5 C19        -3.7160   -0.1990   -0.0620 cc        1 X0Q     -0.483600
      6 S20        -2.2710    0.5910    0.0530 ss        1 X0Q      0.237200
      7 C16        -1.3470   -0.7850    0.1350 cc        1 X0Q     -0.132600
      8 C17        -2.1470   -1.9290    0.0730 cd        1 X0Q     -0.151000
      9 C18        -3.5110   -1.5860   -0.0440 cd        1 X0Q     -0.033000
     10 C14         0.0760   -0.7860    0.2520 cc        1 X0Q      0.333800
     11 C15         0.9980    0.2500   -0.0060 cd        1 X0Q     -0.202600
     12 N11         2.2480   -0.3260    0.2710 na        1 X0Q      0.115300
     13 N12         2.0750   -1.6210    0.6650 nd        1 X0Q     -0.142800
     14 N13         0.8470   -1.9150    0.6650 nc        1 X0Q     -0.322000
     15 C10         3.5020    0.3360    0.1630 ca        1 X0Q      0.011800
     16 C9          3.5750    1.7360    0.3170 ca        1 X0Q     -0.124000
     17 C8          4.8010    2.3820    0.1990 ca        1 X0Q     -0.117000
     18 C7          5.9650    1.6630   -0.0590 ca        1 X0Q     -0.091000
     19 C4          5.8980    0.2710   -0.2030 ca        1 X0Q      0.003000
     20 C3          4.6740   -0.4020   -0.0960 ca        1 X0Q     -0.080000
     21 C5          7.0830   -0.4720   -0.4630 cg        1 X0Q      0.224800
     22 N22         8.0540   -1.0760   -0.6760 n1        1 X0Q     -0.339800
     23 H242       -6.1660   -0.0920    1.8250 hn        1 X0Q      0.446300
     24 H241       -5.6830    1.4800    1.7710 hn        1 X0Q      0.446300
     25 H18        -4.3200   -2.3210   -0.1360 ha        1 X0Q      0.178000
     26 H17        -1.7690   -2.9540    0.1080 ha        1 X0Q      0.179000
     27 H15         0.8730    1.2710   -0.3600 h4        1 X0Q      0.200000
     28 H9          2.6720    2.3270    0.5370 ha        1 X0Q      0.146000
     29 H3          4.6440   -1.4980   -0.2110 ha        1 X0Q      0.175000
     30 H8          4.8500    3.4760    0.3180 ha        1 X0Q      0.150000
     31 H7          6.9320    2.1820   -0.1480 ha        1 X0Q      0.155000
@<TRIPOS>BOND
     1    1    2 2   
     2    2    3 2   
     3    2    4 1   
     4    2    5 1   
     5    4   23 1   
     6    4   24 1   
     7    5    6 1   
     8    5    9 2   
     9    6    7 1   
    10    7    8 2   
    11    7   10 1   
    12    8    9 1   
    13    8   26 1   
    14    9   25 1   
    15   10   11 2   
    16   10   14 1   
    17   11   12 1   
    18   11   27 1   
    19   12   13 1   
    20   12   15 1   
    21   13   14 2   
    22   15   16 ar  
    23   15   20 ar  
    24   16   17 ar  
    25   16   28 1   
    26   17   18 ar  
    27   17   30 1   
    28   18   19 ar  
    29   18   31 1   
    30   19   20 ar  
    31   19   21 1   
    32   20   29 1   
    33   21   22 3   
@<TRIPOS>SUBSTRUCTURE
     1 X0Q         1 TEMP              0 ****  ****    0 ROOT
