@<TRIPOS>MOLECULE
X0R
   65    66     1     0     0
SMALL
bcc


@<TRIPOS>ATOM
      1 BR          1.5150    0.4600    3.5250 br        1 X0R     -0.060100
      2 C28         3.1410    0.3170    2.6140 ca        1 X0R     -0.022900
      3 C27         4.2860    0.9450    3.1150 ca        1 X0R     -0.106000
      4 C26         5.4980    0.8310    2.4380 ca        1 X0R     -0.116000
      5 C29         3.2160   -0.4150    1.4240 ca        1 X0R     -0.106000
      6 C30         4.4300   -0.5330    0.7520 ca        1 X0R     -0.116000
      7 C25         5.5820    0.0840    1.2560 ca        1 X0R     -0.085300
      8 C24         6.8680   -0.0320    0.5370 c3        1 X0R      0.051000
      9 S23         7.9090   -1.1180    1.4990 ss        1 X0R     -0.305200
     10 C22         9.1080   -1.6770    0.3400 c3        1 X0R     -0.060300
     11 C20         8.7570   -3.0400   -0.2630 c3        1 X0R      0.006700
     12 C21         9.8330   -3.4250   -1.2860 c         1 X0R      0.609100
     13 O2         11.1130   -3.6610   -0.8930 oh        1 X0R     -0.554100
     14 O1          9.6250   -3.5410   -2.4880 o         1 X0R     -0.433000
     15 N19         8.6060   -4.0840    0.7350 n         1 X0R     -0.516900
     16 C19         7.3710   -4.6260    0.9800 c         1 X0R      0.768100
     17 O19         6.3480   -4.4660    0.2970 o         1 X0R     -0.531100
     18 N15         7.2230   -5.5400    2.1560 n         1 X0R     -0.356000
     19 C16         6.1440   -5.4870    2.9100 c2        1 X0R      0.406500
     20 C17         5.0080   -4.5460    2.7580 c3        1 X0R     -0.202700
     21 C18         4.1290   -4.5370    3.9840 c3        1 X0R     -0.112100
     22 C15         8.2870   -6.5390    2.4330 c         1 X0R      0.690700
     23 O15         9.4320   -6.1060    2.5150 o         1 X0R     -0.457100
     24 C11         7.8580   -7.9310    2.6080 ca        1 X0R     -0.206600
     25 C10         8.6370   -8.7360    3.4540 ca        1 X0R     -0.044000
     26 C12         6.7630   -8.4750    1.9190 ca        1 X0R     -0.097000
     27 C13         6.4450   -9.8190    2.0910 ca        1 X0R     -0.123000
     28 C14         7.2000  -10.6240    2.9440 ca        1 X0R     -0.051000
     29 C9          8.3020  -10.0880    3.6340 ca        1 X0R      0.064000
     30 C8          9.0710  -10.8880    4.4920 cg        1 X0R     -0.169000
     31 C7          9.7360  -11.5660    5.2260 ch        1 X0R     -0.003000
     32 C1         10.5160  -12.3540    6.0860 ca        1 X0R     -0.066000
     33 C6         10.3200  -13.7450    6.1440 ca        1 X0R     -0.045000
     34 C5         11.0800  -14.5430    6.9850 ca        1 X0R     -0.183000
     35 C4         12.0700  -13.9530    7.7980 ca        1 X0R      0.188900
     36 F4         12.8130  -14.7260    8.6180 f         1 X0R     -0.114900
     37 C3         12.2910  -12.5670    7.7630 ca        1 X0R     -0.213000
     38 C2         11.5140  -11.7700    6.9070 ca        1 X0R      0.189900
     39 F2         11.7300  -10.4350    6.8790 f         1 X0R     -0.125900
     40 H27         4.2360    1.5400    4.0420 ha        1 X0R      0.156500
     41 H29         2.3150   -0.8910    1.0040 ha        1 X0R      0.156500
     42 H26         6.3940    1.3370    2.8330 ha        1 X0R      0.146000
     43 H30         4.4760   -1.1020   -0.1900 ha        1 X0R      0.146000
     44 H241        6.7280   -0.4410   -0.4940 h1        1 X0R      0.084700
     45 H242        7.3670    0.9660    0.4510 h1        1 X0R      0.084700
     46 H221        9.2300   -0.9500   -0.5040 h1        1 X0R      0.102200
     47 H222       10.0820   -1.7230    0.8900 h1        1 X0R      0.102200
     48 H20         7.7820   -2.9460   -0.8400 h1        1 X0R      0.136700
     49 H19         9.3740   -4.2470    1.3560 hn        1 X0R      0.356500
     50 H161       11.4080   -4.7400    1.8410 ha        1 X0R      0.004000
     51 H162        6.0770   -6.2250    3.7510 h4        1 X0R      0.071800
     52 H171        5.3740   -3.5030    2.5260 hc        1 X0R      0.134700
     53 H172        4.4140   -4.8660    1.8470 hc        1 X0R      0.134700
     54 H181        3.7120   -5.5530    4.1920 hc        1 X0R      0.068700
     55 H182        4.6940   -4.1890    4.8830 hc        1 X0R      0.068700
     56 H183        3.2740   -3.8350    3.8160 hc        1 X0R      0.068700
     57 H10         9.5150   -8.3120    3.9710 ha        1 X0R      0.173000
     58 H12         6.1720   -7.8680    1.2170 ha        1 X0R      0.143000
     59 H13         5.5940  -10.2540    1.5410 ha        1 X0R      0.165000
     60 H14         6.9390  -11.6880    3.0750 ha        1 X0R      0.170000
     61 H6          9.5470  -14.2060    5.5080 ha        1 X0R      0.153000
     62 H5         10.9220  -15.6310    7.0250 ha        1 X0R      0.168000
     63 H3         13.0640  -12.1080    8.3980 ha        1 X0R      0.178000
     64 H192       11.2290   -3.4600    0.0470 ho        1 X0R      0.428000
     65 H151       11.4490   -5.2580    1.4060 ha        1 X0R      0.004000
@<TRIPOS>BOND
     1    1    2 1   
     2    2    3 ar  
     3    2    5 ar  
     4    3    4 ar  
     5    3   40 1   
     6    4    7 ar  
     7    4   42 1   
     8    5    6 ar  
     9    5   41 1   
    10    6    7 ar  
    11    6   43 1   
    12    7    8 1   
    13    8    9 1   
    14    8   44 1   
    15    8   45 1   
    16    9   10 1   
    17   10   11 1   
    18   10   46 1   
    19   10   47 1   
    20   11   12 1   
    21   11   15 1   
    22   11   48 1   
    23   12   13 1   
    24   12   14 2   
    25   13   64 1   
    26   15   16 1   
    27   15   49 1   
    28   16   17 2   
    29   16   18 1   
    30   18   19 2   
    31   18   22 1   
    32   19   20 1   
    33   19   51 1   
    34   20   21 1   
    35   20   52 1   
    36   20   53 1   
    37   21   54 1   
    38   21   55 1   
    39   21   56 1   
    40   22   23 2   
    41   22   24 1   
    42   24   25 ar  
    43   24   26 ar  
    44   25   29 ar  
    45   25   57 1   
    46   26   27 ar  
    47   26   58 1   
    48   27   28 ar  
    49   27   59 1   
    50   28   29 ar  
    51   28   60 1   
    52   29   30 1   
    53   30   31 3   
    54   31   32 1   
    55   32   33 ar  
    56   32   38 ar  
    57   33   34 ar  
    58   33   61 1   
    59   34   35 ar  
    60   34   62 1   
    61   35   36 1   
    62   35   37 ar  
    63   37   38 ar  
    64   37   63 1   
    65   38   39 1   
    66   50   65 1   
@<TRIPOS>SUBSTRUCTURE
     1 X0R         1 TEMP              0 ****  ****    0 ROOT
