@<TRIPOS>MOLECULE
X0R
   65    67     1     0     0
SMALL
bcc


@<TRIPOS>ATOM
      1 Br          1.3490    0.9330   -0.4710 br        1 X0R     -0.056100
      2 C28         3.1040    0.2900   -0.4710 ca        1 X0R     -0.014900
      3 C27         4.1630    1.1350   -0.1250 ca        1 X0R     -0.104000
      4 C26         5.4700    0.6530   -0.1230 ca        1 X0R     -0.110500
      5 C29         3.3640   -1.0390   -0.8220 ca        1 X0R     -0.104000
      6 C30         4.6710   -1.5210   -0.8170 ca        1 X0R     -0.110500
      7 C25         5.7340   -0.6800   -0.4630 ca        1 X0R     -0.092300
      8 C24         7.1220   -1.1870   -0.4710 c3        1 X0R      0.051000
      9 S23         7.5530   -1.5180    1.2290 ss        1 X0R     -0.288200
     10 C22         9.1490   -2.2450    1.1170 c3        1 X0R     -0.060300
     11 C20         9.1210   -3.7790    1.1430 c3        1 X0R      0.016700
     12 C21        10.5700   -4.2770    1.0820 c         1 X0R      0.608100
     13 O2         11.2170   -4.2540   -0.1110 oh        1 X0R     -0.539100
     14 O1         11.2300   -4.6970    2.0280 o         1 X0R     -0.459000
     15 N19         8.4580   -4.3020    2.3250 ns        1 X0R     -0.508900
     16 C19         7.2570   -4.9370    2.2200 c         1 X0R      0.663100
     17 O19         6.6480   -5.2440    1.1860 o         1 X0R     -0.515100
     18 N15         6.5410   -5.3460    3.5130 nx        1 X0R     -0.494000
     19 C16         6.0990   -4.1500    4.2970 c3        1 X0R      0.111800
     20 C17         5.2620   -3.1650    3.4910 c3        1 X0R     -0.115400
     21 C18         4.7580   -2.0760    4.4050 c3        1 X0R     -0.098100
     22 C15         7.4070   -6.2580    4.3710 c         1 X0R      0.584700
     23 O15         8.4160   -5.7440    4.8370 o         1 X0R     -0.440100
     24 C11         6.9500   -7.6400    4.5140 ca        1 X0R     -0.199600
     25 C10         7.9440   -8.6250    4.6300 ca        1 X0R     -0.040000
     26 C12         5.5920   -7.9900    4.5730 ca        1 X0R     -0.098000
     27 C13         5.2360   -9.3260    4.7300 ca        1 X0R     -0.118000
     28 C14         6.2150  -10.3160    4.8250 ca        1 X0R     -0.046000
     29 C9          7.5780   -9.9720    4.7790 ca        1 X0R      0.068000
     30 C8          8.5630  -10.9640    4.8860 cg        1 X0R     -0.170000
     31 C7          9.3930  -11.8260    4.9800 ch        1 X0R      0.001000
     32 C1         10.3590  -12.8380    5.0900 ca        1 X0R     -0.068000
     33 C6         11.7250  -12.5100    5.1420 ca        1 X0R     -0.046000
     34 C5         12.6970  -13.4920    5.2520 ca        1 X0R     -0.185000
     35 C4         12.3120  -14.8480    5.3130 ca        1 X0R      0.188900
     36 F4         13.2550  -15.8080    5.4200 f         1 X0R     -0.115900
     37 C3         10.9570  -15.2090    5.2640 ca        1 X0R     -0.213000
     38 C2          9.9820  -14.2040    5.1530 ca        1 X0R      0.193900
     39 F2          8.6780  -14.5570    5.1060 f         1 X0R     -0.121900
     40 H27         3.9730    2.1880    0.1430 ha        1 X0R      0.157500
     41 H29         2.5390   -1.7100   -1.1120 ha        1 X0R      0.157500
     42 H26         6.3000    1.3270    0.1450 ha        1 X0R      0.143500
     43 H30         4.8650   -2.5660   -1.1030 ha        1 X0R      0.143500
     44 H241        7.8240   -0.4240   -0.8910 h1        1 X0R      0.075700
     45 H242        7.2120   -2.1190   -1.0810 h1        1 X0R      0.075700
     46 H221        9.7340   -1.8570    1.9920 h1        1 X0R      0.104700
     47 H222        9.6810   -1.9230    0.1870 h1        1 X0R      0.104700
     48 H20         8.5690   -4.1560    0.2260 h1        1 X0R      0.112700
     49 H19         8.9440   -4.2190    3.1970 hn        1 X0R      0.374500
     50 H161        7.0200   -3.6370    4.6990 hx        1 X0R      0.104200
     51 H162        5.4990   -4.5380    5.1720 hx        1 X0R      0.104200
     52 H171        5.8870   -2.7090    2.6670 hc        1 X0R      0.079200
     53 H172        4.3930   -3.6870    3.0100 hc        1 X0R      0.079200
     54 H181        5.6060   -1.5310    4.8840 hc        1 X0R      0.058367
     55 H182        4.1050   -2.4970    5.2090 hc        1 X0R      0.058367
     56 H183        4.1580   -1.3420    3.8130 hc        1 X0R      0.058367
     57 H10         9.0100   -8.3420    4.6080 ha        1 X0R      0.172000
     58 H12         4.7970   -7.2300    4.5360 ha        1 X0R      0.132000
     59 H13         4.1710   -9.6050    4.7830 ha        1 X0R      0.166000
     60 H14         5.9230  -11.3740    4.9440 ha        1 X0R      0.175000
     61 H6         12.0250  -11.4500    5.0950 ha        1 X0R      0.152000
     62 H5         13.7640  -13.2290    5.2930 ha        1 X0R      0.167000
     63 H3         10.6570  -16.2670    5.3120 ha        1 X0R      0.179000
     64 H192       10.6380   -3.9190   -0.8110 ho        1 X0R      0.436000
     65 H151        5.7060   -5.8650    3.1970 hn        1 X0R      0.475800
@<TRIPOS>BOND
     1    1    2 1   
     2    2    3 ar  
     3    2    5 ar  
     4    3    4 ar  
     5    3   40 1   
     6    4    7 ar  
     7    4   42 1   
     8    5    6 ar  
     9    5   41 1   
    10    6    7 ar  
    11    6   43 1   
    12    7    8 1   
    13    8    9 1   
    14    8   44 1   
    15    8   45 1   
    16    9   10 1   
    17   10   11 1   
    18   10   46 1   
    19   10   47 1   
    20   11   12 1   
    21   11   15 1   
    22   11   48 1   
    23   12   13 1   
    24   12   14 2   
    25   13   64 1   
    26   15   16 1   
    27   15   49 1   
    28   16   17 2   
    29   16   18 1   
    30   18   19 1   
    31   18   22 1   
    32   18   65 1   
    33   19   20 1   
    34   19   50 1   
    35   19   51 1   
    36   20   21 1   
    37   20   52 1   
    38   20   53 1   
    39   21   54 1   
    40   21   55 1   
    41   21   56 1   
    42   22   23 2   
    43   22   24 1   
    44   24   25 ar  
    45   24   26 ar  
    46   25   29 ar  
    47   25   57 1   
    48   26   27 ar  
    49   26   58 1   
    50   27   28 ar  
    51   27   59 1   
    52   28   29 ar  
    53   28   60 1   
    54   29   30 1   
    55   30   31 3   
    56   31   32 1   
    57   32   33 ar  
    58   32   38 ar  
    59   33   34 ar  
    60   33   61 1   
    61   34   35 ar  
    62   34   62 1   
    63   35   36 1   
    64   35   37 ar  
    65   37   38 ar  
    66   37   63 1   
    67   38   39 1   
@<TRIPOS>SUBSTRUCTURE
     1 X0R         1 TEMP              0 ****  ****    0 ROOT
