@<TRIPOS>MOLECULE
X0R
   65    67     1     0     0
SMALL
bcc


@<TRIPOS>ATOM
      1 BR          2.1160    0.4850    1.1000 br        1 X0R     -0.041100
      2 C28         3.7580    0.0820    0.3060 ca        1 X0R     -0.024900
      3 C27         4.9470    0.5600    0.8690 ca        1 X0R     -0.103000
      4 C26         6.1710    0.2620    0.2740 ca        1 X0R     -0.129500
      5 C29         3.8050   -0.6860   -0.8620 ca        1 X0R     -0.103000
      6 C30         5.0300   -0.9840   -1.4540 ca        1 X0R     -0.129500
      7 C25         6.2240   -0.5190   -0.8880 ca        1 X0R     -0.118300
      8 C24         7.5190   -0.8110   -1.5340 c3        1 X0R      0.039000
      9 S23         8.1720   -2.4170   -1.1350 ss        1 X0R     -0.273200
     10 C22         8.7530   -2.2720    0.5250 c3        1 X0R     -0.066300
     11 C20         8.3440   -3.5290    1.2960 c3        1 X0R      0.046500
     12 C21         8.8000   -3.4090    2.7450 c         1 X0R      0.688600
     13 O2          8.5850   -4.4300    3.6350 os        1 X0R     -0.407900
     14 O1          9.5080   -2.5080    3.1740 o         1 X0R     -0.469500
     15 N19         6.8820   -3.8010    1.1490 n4        1 X0R     -0.692800
     16 C19         6.5450   -5.2810    1.3580 c         1 X0R      0.687500
     17 O19         5.8760   -5.7710    0.4540 o         1 X0R     -0.449500
     18 N15         6.9940   -5.8850    2.5270 n         1 X0R     -0.534400
     19 C16         7.3200   -5.0920    3.6890 c3        1 X0R      0.268800
     20 C17         4.7560   -2.0720    3.4180 c3        1 X0R     -0.112100
     21 C18         5.9460   -1.8130    4.2940 c3        1 X0R     -0.112100
     22 C15         7.3780   -7.2910    2.4540 c         1 X0R      0.714700
     23 O15         7.7700   -7.7040    1.3640 o         1 X0R     -0.476100
     24 C11         7.2700   -8.0830    3.6930 ca        1 X0R     -0.174600
     25 C10         8.2840   -9.0130    3.9550 ca        1 X0R     -0.053000
     26 C12         6.1630   -7.9740    4.5440 ca        1 X0R     -0.099000
     27 C13         6.0790   -8.7930    5.6670 ca        1 X0R     -0.127000
     28 C14         7.0890   -9.7120    5.9500 ca        1 X0R     -0.061000
     29 C9          8.2000   -9.8290    5.0960 ca        1 X0R      0.057000
     30 C8          9.2140  -10.7570    5.3770 cg        1 X0R     -0.150000
     31 C7         10.0720  -11.5580    5.6310 ch        1 X0R     -0.024000
     32 C1         11.0720  -12.4950    5.9320 ca        1 X0R     -0.057000
     33 C6         12.0440  -12.8240    4.9730 ca        1 X0R     -0.050000
     34 C5         13.0410  -13.7490    5.2460 ca        1 X0R     -0.185000
     35 C4         13.0840  -14.3730    6.5100 ca        1 X0R      0.182900
     36 F4         14.0530  -15.2730    6.7820 f         1 X0R     -0.118900
     37 C3         12.1270  -14.0660    7.4900 ca        1 X0R     -0.212000
     38 C2         11.1220  -13.1280    7.2000 ca        1 X0R      0.189900
     39 F2         10.2050  -12.8380    8.1490 f         1 X0R     -0.122900
     40 H27         4.9230    1.1910    1.7720 ha        1 X0R      0.164000
     41 H29         2.8740   -1.0460   -1.3310 ha        1 X0R      0.164000
     42 H26         7.0970    0.6760    0.7050 ha        1 X0R      0.147500
     43 H30         5.0550   -1.5710   -2.3860 ha        1 X0R      0.147500
     44 H241        8.2770   -0.0230   -1.2950 h1        1 X0R      0.112200
     45 H242        7.4110   -0.8570   -2.6520 h1        1 X0R      0.112200
     46 H221        8.3700   -1.3450    1.0230 h1        1 X0R      0.122700
     47 H222        9.8740   -2.2140    0.5430 h1        1 X0R      0.122700
     48 H20         8.9020   -4.4150    0.8490 hx        1 X0R      0.152700
     49 H19         6.6240   -3.5490    0.1570 hn        1 X0R      0.484300
     50 H161        4.6620   -3.1580    3.1700 hc        1 X0R      0.038200
     51 H162        7.4500   -5.7800    4.5840 h2        1 X0R      0.118700
     52 H171        3.8160   -1.7650    3.9410 hc        1 X0R      0.038200
     53 H172        4.8210   -1.4860    2.4670 hc        1 X0R      0.038200
     54 H181        6.0150   -0.7280    4.5530 hc        1 X0R      0.038200
     55 H182        5.8730   -2.3890    5.2490 hc        1 X0R      0.038200
     56 H183        6.8990   -2.1040    3.7820 hc        1 X0R      0.038200
     57 H10         9.1380   -9.1120    3.2660 ha        1 X0R      0.165000
     58 H12         5.3480   -7.2690    4.3210 ha        1 X0R      0.139000
     59 H13         5.2050   -8.7210    6.3340 ha        1 X0R      0.159000
     60 H14         7.0180  -10.3560    6.8430 ha        1 X0R      0.168000
     61 H6         12.0090  -12.3380    3.9840 ha        1 X0R      0.151000
     62 H5         13.7990  -14.0030    4.4900 ha        1 X0R      0.165000
     63 H3         12.1600  -14.5540    8.4760 ha        1 X0R      0.177000
     64 H192        6.3370   -3.2120    1.7910 hn        1 X0R      0.484300
     65 H151        6.5070   -4.3310    3.8860 h2        1 X0R      0.118700
@<TRIPOS>BOND
     1    1    2 1   
     2    2    3 ar  
     3    2    5 ar  
     4    3    4 ar  
     5    3   40 1   
     6    4    7 ar  
     7    4   42 1   
     8    5    6 ar  
     9    5   41 1   
    10    6    7 ar  
    11    6   43 1   
    12    7    8 1   
    13    8    9 1   
    14    8   44 1   
    15    8   45 1   
    16    9   10 1   
    17   10   11 1   
    18   10   46 1   
    19   10   47 1   
    20   11   12 1   
    21   11   15 1   
    22   11   48 1   
    23   12   13 1   
    24   12   14 2   
    25   13   19 1   
    26   15   16 1   
    27   15   49 1   
    28   15   64 1   
    29   16   17 2   
    30   16   18 1   
    31   18   19 1   
    32   18   22 1   
    33   19   51 1   
    34   19   65 1   
    35   20   21 1   
    36   20   50 1   
    37   20   52 1   
    38   20   53 1   
    39   21   54 1   
    40   21   55 1   
    41   21   56 1   
    42   22   23 2   
    43   22   24 1   
    44   24   25 ar  
    45   24   26 ar  
    46   25   29 ar  
    47   25   57 1   
    48   26   27 ar  
    49   26   58 1   
    50   27   28 ar  
    51   27   59 1   
    52   28   29 ar  
    53   28   60 1   
    54   29   30 1   
    55   30   31 3   
    56   31   32 1   
    57   32   33 ar  
    58   32   38 ar  
    59   33   34 ar  
    60   33   61 1   
    61   34   35 ar  
    62   34   62 1   
    63   35   36 1   
    64   35   37 ar  
    65   37   38 ar  
    66   37   63 1   
    67   38   39 1   
@<TRIPOS>SUBSTRUCTURE
     1 X0R         1 TEMP              0 ****  ****    0 ROOT
