@<TRIPOS>MOLECULE
X0T
   32    33     1     0     0
SMALL
bcc


@<TRIPOS>ATOM
      1 CAB        -0.0730   -0.0930   -0.0520 c3        1 X0T      0.090300
      2 N3          1.3570    0.0380    0.0510 n         1 X0T     -0.416300
      3 C2          1.9740    0.3070    1.2960 c         1 X0T      0.814500
      4 O2          1.2680    0.4710    2.3160 o         1 X0T     -0.639500
      5 N1          3.3870    0.4060    1.3970 n         1 X0T     -0.483400
      6 CAA         3.9150    0.6950    2.7100 c3        1 X0T      0.081300
      7 C6          4.2630    0.2290    0.3050 c         1 X0T      0.767100
      8 O6          5.4950    0.3480    0.4430 o         1 X0T     -0.634500
      9 C5          3.5930   -0.0820   -0.9450 cc        1 X0T     -0.340200
     10 C4          2.1680   -0.1750   -1.0540 cd        1 X0T      0.485200
     11 N9          1.8070   -0.4810   -2.3760 nd        1 X0T     -0.685000
     12 C8          2.9920   -0.5730   -3.0370 cc        1 X0T      0.449400
     13 N7          4.1000   -0.3350   -2.2250 na        1 X0T     -0.141900
     14 CAI         5.4870   -0.3780   -2.5880 c3        1 X0T      0.028300
     15 CAO         5.9070   -1.6280   -3.3850 c3        1 X0T      0.130100
     16 OAF         5.8450   -2.7340   -2.5040 oh        1 X0T     -0.588800
     17 CAH         7.3380   -1.4230   -3.8990 c3        1 X0T      0.091400
     18 OAE         7.6710   -2.6150   -4.5910 oh        1 X0T     -0.609800
     19 HAB1       -0.5480    0.1700    0.9300 h1        1 X0T      0.063033
     20 HAB2       -0.3380   -1.1490   -0.3280 h1        1 X0T      0.063033
     21 HAB3       -0.4510    0.5990   -0.8520 h1        1 X0T      0.063033
     22 HAA1        5.0350    0.7340    2.6630 h1        1 X0T      0.063033
     23 HAA2        3.5130    1.6800    3.0670 h1        1 X0T      0.063033
     24 HAA3        3.5910   -0.1050    3.4290 h1        1 X0T      0.063033
     25 H8          3.0800   -0.8080   -4.1050 h5        1 X0T      0.069100
     26 HAI1        5.7160    0.5280   -3.2210 h1        1 X0T      0.091700
     27 HAI2        6.0990   -0.3310   -1.6380 h1        1 X0T      0.091700
     28 HAO         5.2210   -1.8070   -4.2610 h1        1 X0T      0.048700
     29 HAF         6.2350   -3.4850   -2.9740 ho        1 X0T      0.425000
     30 HAH1        8.0390   -1.2580   -3.0390 h1        1 X0T      0.042200
     31 HAH2        7.3830   -0.5480   -4.6000 h1        1 X0T      0.042200
     32 HAE         8.6150   -2.5740   -4.7830 ho        1 X0T      0.415000
@<TRIPOS>BOND
     1    1    2 1   
     2    1   19 1   
     3    1   20 1   
     4    1   21 1   
     5    2    3 1   
     6    2   10 1   
     7    3    4 2   
     8    3    5 1   
     9    5    6 1   
    10    5    7 1   
    11    6   22 1   
    12    6   23 1   
    13    6   24 1   
    14    7    8 2   
    15    7    9 1   
    16    9   10 2   
    17    9   13 1   
    18   10   11 1   
    19   11   12 2   
    20   12   13 1   
    21   12   25 1   
    22   13   14 1   
    23   14   15 1   
    24   14   26 1   
    25   14   27 1   
    26   15   16 1   
    27   15   17 1   
    28   15   28 1   
    29   16   29 1   
    30   17   18 1   
    31   17   30 1   
    32   17   31 1   
    33   18   32 1   
@<TRIPOS>SUBSTRUCTURE
     1 X0T         1 TEMP              0 ****  ****    0 ROOT
