@<TRIPOS>MOLECULE
X0T
   32    33     1     0     0
SMALL
bcc


@<TRIPOS>ATOM
      1 CAB         3.6040   -1.7460   -0.7240 c3        1 X0T      0.089300
      2 N3          2.5760   -0.8310   -0.3030 n         1 X0T     -0.415300
      3 C2          2.8270    0.5610   -0.2290 c         1 X0T      0.813500
      4 O2          3.9690    1.0000   -0.4870 o         1 X0T     -0.632500
      5 N1          1.7970    1.4650    0.1480 n         1 X0T     -0.479400
      6 CAA         2.1560    2.8640    0.1850 c3        1 X0T      0.080300
      7 C6          0.4800    1.0640    0.4400 c         1 X0T      0.772100
      8 O6         -0.4040    1.8940    0.7380 o         1 X0T     -0.658500
      9 C5          0.2650   -0.3680    0.3590 cc        1 X0T     -0.349200
     10 C4          1.2960   -1.2840   -0.0240 cd        1 X0T      0.492200
     11 N9          0.7890   -2.5940   -0.0390 nd        1 X0T     -0.682000
     12 C8         -0.5140   -2.4590    0.3250 cc        1 X0T      0.454400
     13 N7         -0.8810   -1.1390    0.5890 na        1 X0T     -0.149900
     14 CAI        -2.1650   -0.6430    0.9860 c3        1 X0T      0.001300
     15 CAO        -3.1060   -0.2630   -0.1730 c3        1 X0T      0.083100
     16 OAF        -2.5680    0.7360   -1.0160 oh        1 X0T     -0.597800
     17 CAH        -4.4380    0.2220    0.4140 c3        1 X0T      0.102400
     18 OAE        -5.3590    0.5160   -0.6130 oh        1 X0T     -0.591800
     19 HAB1        4.5740   -1.1940   -0.8470 h1        1 X0T      0.065033
     20 HAB2        3.7230   -2.5510    0.0490 h1        1 X0T      0.065033
     21 HAB3        3.3130   -2.2170   -1.7010 h1        1 X0T      0.065033
     22 HAA1        3.0320    3.0070    0.8720 h1        1 X0T      0.064700
     23 HAA2        2.4480    3.2050   -0.8440 h1        1 X0T      0.064700
     24 HAA3        1.2820    3.4650    0.5500 h1        1 X0T      0.064700
     25 H8         -1.2160   -3.2970    0.4200 h5        1 X0T      0.072100
     26 HAI1       -2.6720   -1.4340    1.6080 h1        1 X0T      0.083700
     27 HAI2       -1.9940    0.2780    1.6210 h1        1 X0T      0.083700
     28 HAO        -3.2860   -1.1370   -0.8620 h1        1 X0T      0.092700
     29 HAF        -2.2080    1.4400   -0.4550 ho        1 X0T      0.427000
     30 HAH1       -4.9250   -0.5840    1.0240 h1        1 X0T      0.050200
     31 HAH2       -4.2690    1.1320    1.0500 h1        1 X0T      0.050200
     32 HAE        -4.9000    1.0770   -1.2550 ho        1 X0T      0.418000
@<TRIPOS>BOND
     1    1    2 1   
     2    1   19 1   
     3    1   20 1   
     4    1   21 1   
     5    2    3 1   
     6    2   10 1   
     7    3    4 2   
     8    3    5 1   
     9    5    6 1   
    10    5    7 1   
    11    6   22 1   
    12    6   23 1   
    13    6   24 1   
    14    7    8 2   
    15    7    9 1   
    16    9   10 2   
    17    9   13 1   
    18   10   11 1   
    19   11   12 2   
    20   12   13 1   
    21   12   25 1   
    22   13   14 1   
    23   14   15 1   
    24   14   26 1   
    25   14   27 1   
    26   15   16 1   
    27   15   17 1   
    28   15   28 1   
    29   16   29 1   
    30   17   18 1   
    31   17   30 1   
    32   17   31 1   
    33   18   32 1   
@<TRIPOS>SUBSTRUCTURE
     1 X0T         1 TEMP              0 ****  ****    0 ROOT
