@<TRIPOS>MOLECULE
X0T
   32    33     1     0     0
SMALL
bcc


@<TRIPOS>ATOM
      1 CAB        -0.0640    0.0070   -0.0530 c3        1 X0T      0.090300
      2 N3          1.3690    0.0860    0.0610 n         1 X0T     -0.417300
      3 C2          1.9880    0.2930    1.3170 c         1 X0T      0.814500
      4 O2          1.2820    0.4470    2.3390 o         1 X0T     -0.639500
      5 N1          3.4020    0.3410    1.4270 n         1 X0T     -0.483400
      6 CAA         3.9330    0.5690    2.7520 c3        1 X0T      0.081300
      7 C6          4.2780    0.1720    0.3340 c         1 X0T      0.767100
      8 O6          5.5120    0.2450    0.4810 o         1 X0T     -0.634500
      9 C5          3.6060   -0.0750   -0.9280 cc        1 X0T     -0.340200
     10 C4          2.1790   -0.1170   -1.0460 cd        1 X0T      0.485200
     11 N9          1.8150   -0.3670   -2.3790 nd        1 X0T     -0.685000
     12 C8          2.9990   -0.4760   -3.0380 cc        1 X0T      0.449400
     13 N7          4.1110   -0.3020   -2.2140 na        1 X0T     -0.141900
     14 CAI         5.4970   -0.3800   -2.5730 c3        1 X0T      0.028300
     15 CAO         5.8790   -1.6160   -3.4100 c3        1 X0T      0.130100
     16 OAF         5.7760   -2.7480   -2.5660 oh        1 X0T     -0.588800
     17 CAH         7.3190   -1.4410   -3.9100 c3        1 X0T      0.091400
     18 OAE         7.6170   -2.6200   -4.6410 oh        1 X0T     -0.609800
     19 HAB1       -0.4140    0.7390   -0.8290 h1        1 X0T      0.063033
     20 HAB2       -0.3620   -1.0290   -0.3660 h1        1 X0T      0.063033
     21 HAB3       -0.5350    0.2510    0.9360 h1        1 X0T      0.063033
     22 HAA1        3.5720    1.5610    3.1340 h1        1 X0T      0.063033
     23 HAA2        5.0540    0.5600    2.7130 h1        1 X0T      0.063033
     24 HAA3        3.5690   -0.2350    3.4450 h1        1 X0T      0.063033
     25 H8          3.0860   -0.6790   -4.1130 h5        1 X0T      0.069100
     26 HAI1        6.1050   -0.3840   -1.6190 h1        1 X0T      0.091700
     27 HAI2        5.7590    0.5390   -3.1740 h1        1 X0T      0.091700
     28 HAO         5.1920   -1.7420   -4.2930 h1        1 X0T      0.048700
     29 HAF         6.1430   -3.4950   -3.0590 ho        1 X0T      0.425000
     30 HAH1        7.3970   -0.5450   -4.5810 h1        1 X0T      0.042200
     31 HAH2        8.0210   -1.3280   -3.0420 h1        1 X0T      0.042200
     32 HAE         8.5620   -2.6030   -4.8270 ho        1 X0T      0.415000
@<TRIPOS>BOND
     1    1    2 1   
     2    1   19 1   
     3    1   20 1   
     4    1   21 1   
     5    2    3 1   
     6    2   10 1   
     7    3    4 2   
     8    3    5 1   
     9    5    6 1   
    10    5    7 1   
    11    6   22 1   
    12    6   23 1   
    13    6   24 1   
    14    7    8 2   
    15    7    9 1   
    16    9   10 2   
    17    9   13 1   
    18   10   11 1   
    19   11   12 2   
    20   12   13 1   
    21   12   25 1   
    22   13   14 1   
    23   14   15 1   
    24   14   26 1   
    25   14   27 1   
    26   15   16 1   
    27   15   17 1   
    28   15   28 1   
    29   16   29 1   
    30   17   18 1   
    31   17   30 1   
    32   17   31 1   
    33   18   32 1   
@<TRIPOS>SUBSTRUCTURE
     1 X0T         1 TEMP              0 ****  ****    0 ROOT
