@<TRIPOS>MOLECULE
X0T
   32    33     1     0     0
SMALL
bcc


@<TRIPOS>ATOM
      1 CAB        -0.0560   -0.0710    0.0050 c3        1 X0T      0.090300
      2 N3          1.3760    0.0380    0.0970 n         1 X0T     -0.417300
      3 C2          2.0100    0.2610    1.3420 c         1 X0T      0.814500
      4 O2          1.3170    0.4050    2.3740 o         1 X0T     -0.639500
      5 N1          3.4250    0.3380    1.4300 n         1 X0T     -0.483400
      6 CAA         3.9710    0.5820    2.7450 c3        1 X0T      0.081300
      7 C6          4.2870    0.1820    0.3250 c         1 X0T      0.767100
      8 O6          5.5210    0.2810    0.4520 o         1 X0T     -0.634500
      9 C5          3.6000   -0.0830   -0.9270 cc        1 X0T     -0.340200
     10 C4          2.1730   -0.1540   -1.0220 cd        1 X0T      0.485200
     11 N9          1.7940   -0.4160   -2.3490 nd        1 X0T     -0.685000
     12 C8          2.9700   -0.5040   -3.0260 cc        1 X0T      0.449400
     13 N7          4.0900   -0.3050   -2.2190 na        1 X0T     -0.141900
     14 CAI         5.4720   -0.3570   -2.5990 c3        1 X0T      0.028300
     15 CAO         5.8650   -1.5880   -3.4370 c3        1 X0T      0.130100
     16 OAF         5.7970   -2.7190   -2.5880 oh        1 X0T     -0.588800
     17 CAH         7.2940   -1.3870   -3.9600 c3        1 X0T      0.091400
     18 OAE         7.6040   -2.5630   -4.6910 oh        1 X0T     -0.609800
     19 HAB1       -0.5180    0.1690    1.0000 h1        1 X0T      0.063033
     20 HAB2       -0.3390   -1.1140   -0.2980 h1        1 X0T      0.063033
     21 HAB3       -0.4330    0.6500   -0.7690 h1        1 X0T      0.063033
     22 HAA1        3.5920    1.5660    3.1320 h1        1 X0T      0.063033
     23 HAA2        5.0910    0.6000    2.6890 h1        1 X0T      0.063033
     24 HAA3        3.6380   -0.2300    3.4460 h1        1 X0T      0.063033
     25 H8          3.0440   -0.7090   -4.1010 h5        1 X0T      0.069100
     26 HAI1        5.7060    0.5650   -3.2070 h1        1 X0T      0.091700
     27 HAI2        6.0940   -0.3450   -1.6540 h1        1 X0T      0.091700
     28 HAO         5.1680   -1.7310   -4.3100 h1        1 X0T      0.048700
     29 HAF         6.1720   -3.4600   -3.0840 ho        1 X0T      0.425000
     30 HAH1        7.3450   -0.4930   -4.6350 h1        1 X0T      0.042200
     31 HAH2        8.0060   -1.2580   -3.1030 h1        1 X0T      0.042200
     32 HAE         8.5460   -2.5290   -4.8910 ho        1 X0T      0.415000
@<TRIPOS>BOND
     1    1    2 1   
     2    1   19 1   
     3    1   20 1   
     4    1   21 1   
     5    2    3 1   
     6    2   10 1   
     7    3    4 2   
     8    3    5 1   
     9    5    6 1   
    10    5    7 1   
    11    6   22 1   
    12    6   23 1   
    13    6   24 1   
    14    7    8 2   
    15    7    9 1   
    16    9   10 2   
    17    9   13 1   
    18   10   11 1   
    19   11   12 2   
    20   12   13 1   
    21   12   25 1   
    22   13   14 1   
    23   14   15 1   
    24   14   26 1   
    25   14   27 1   
    26   15   16 1   
    27   15   17 1   
    28   15   28 1   
    29   16   29 1   
    30   17   18 1   
    31   17   30 1   
    32   17   31 1   
    33   18   32 1   
@<TRIPOS>SUBSTRUCTURE
     1 X0T         1 TEMP              0 ****  ****    0 ROOT
