@<TRIPOS>MOLECULE
X0U
   22    24     1     0     0
SMALL
bcc


@<TRIPOS>ATOM
      1 N1          2.1420   -1.3880   -0.0210 nc        1 X0U     -0.591100
      2 N2          4.4550   -0.6550    0.1440 nh        1 X0U     -0.858800
      3 C1         -1.5240   -0.7550   -0.0120 ca        1 X0U      0.067100
      4 C2         -1.5120    0.6600    0.0180 ca        1 X0U      0.057100
      5 C3         -3.8400    0.6660   -0.3390 c3        1 X0U      0.091400
      6 C4         -3.8590   -0.7090    0.3080 c3        1 X0U      0.090400
      7 C5         -0.3430   -1.4920   -0.0220 ca        1 X0U     -0.085000
      8 C6          0.8750   -0.7900    0.0030 ca        1 X0U      0.116400
      9 C7          0.8800    0.6450    0.0490 ca        1 X0U     -0.096100
     10 C8         -0.3100    1.3670    0.0510 ca        1 X0U     -0.081000
     11 C9          3.0860   -0.4420    0.0320 cd        1 X0U      0.564100
     12 O1         -2.7100   -1.4720   -0.0720 os        1 X0U     -0.314900
     13 O2         -2.6800    1.4050    0.0560 os        1 X0U     -0.315900
     14 S           2.4710    1.2180    0.0930 ss        1 X0U     -0.069100
     15 H21N        4.7440   -1.6080    0.0650 hn        1 X0U      0.406800
     16 H22N        4.9990   -0.0310   -0.4120 hn        1 X0U      0.406800
     17 H5         -0.3700   -2.5910   -0.0500 ha        1 X0U      0.169000
     18 H8         -0.3200    2.4650    0.0820 ha        1 X0U      0.158000
     19 H31C       -3.8490    0.5790   -1.4570 h1        1 X0U      0.070700
     20 H32C       -4.6960    1.2980    0.0130 h1        1 X0U      0.070700
     21 H41C       -3.8810   -0.6220    1.4260 h1        1 X0U      0.071700
     22 H42C       -4.7230   -1.3230   -0.0560 h1        1 X0U      0.071700
@<TRIPOS>BOND
     1    1    8 1   
     2    1   11 2   
     3    2   11 1   
     4    2   15 1   
     5    2   16 1   
     6    3    4 ar  
     7    3    7 ar  
     8    3   12 1   
     9    4   10 ar  
    10    4   13 1   
    11    5    6 1   
    12    5   13 1   
    13    5   19 1   
    14    5   20 1   
    15    6   12 1   
    16    6   21 1   
    17    6   22 1   
    18    7    8 ar  
    19    7   17 1   
    20    8    9 ar  
    21    9   10 ar  
    22    9   14 1   
    23   10   18 1   
    24   11   14 1   
@<TRIPOS>SUBSTRUCTURE
     1 X0U         1 TEMP              0 ****  ****    0 ROOT
