@<TRIPOS>MOLECULE
X0U
   22    24     1     0     0
SMALL
bcc


@<TRIPOS>ATOM
      1 N1         -0.0540    0.0560   -0.1310 nc        1 X0U     -0.591100
      2 N2         -1.9170    0.1600    1.4290 nh        1 X0U     -0.858800
      3 C1          3.5800    0.0400   -0.9280 ca        1 X0U      0.067100
      4 C2          4.1010   -0.0270    0.3870 ca        1 X0U      0.057100
      5 C3          6.2530   -0.3730   -0.5090 c3        1 X0U      0.091400
      6 C4          5.7670    0.3670   -1.7440 c3        1 X0U      0.090400
      7 C5          2.2080    0.0750   -1.1650 ca        1 X0U     -0.085000
      8 C6          1.3440    0.0460   -0.0550 ca        1 X0U      0.116400
      9 C7          1.8810   -0.0070    1.2760 ca        1 X0U     -0.096100
     10 C8          3.2550   -0.0490    1.4940 ca        1 X0U     -0.081000
     11 C9         -0.5710    0.0400    1.1020 cd        1 X0U      0.564100
     12 O1          4.4070    0.0350   -2.0410 os        1 X0U     -0.314900
     13 O2          5.4650   -0.0350    0.6370 os        1 X0U     -0.315900
     14 S           0.6240   -0.0110    2.4080 ss        1 X0U     -0.069100
     15 H21N       -2.1990   -0.4410    2.1740 hn        1 X0U      0.406800
     16 H22N       -2.5460    0.1450    0.6520 hn        1 X0U      0.406800
     17 H5          1.8190    0.1230   -2.1910 ha        1 X0U      0.169000
     18 H8          3.6780   -0.0930    2.5080 ha        1 X0U      0.158000
     19 H31C        6.2040   -1.4820   -0.6660 h1        1 X0U      0.070700
     20 H32C        7.2910   -0.0600   -0.2250 h1        1 X0U      0.070700
     21 H41C        6.3280    0.0510   -2.6610 h1        1 X0U      0.071700
     22 H42C        5.8440    1.4770   -1.5980 h1        1 X0U      0.071700
@<TRIPOS>BOND
     1    1    8 1   
     2    1   11 2   
     3    2   11 1   
     4    2   15 1   
     5    2   16 1   
     6    3    4 ar  
     7    3    7 ar  
     8    3   12 1   
     9    4   10 ar  
    10    4   13 1   
    11    5    6 1   
    12    5   13 1   
    13    5   19 1   
    14    5   20 1   
    15    6   12 1   
    16    6   21 1   
    17    6   22 1   
    18    7    8 ar  
    19    7   17 1   
    20    8    9 ar  
    21    9   10 ar  
    22    9   14 1   
    23   10   18 1   
    24   11   14 1   
@<TRIPOS>SUBSTRUCTURE
     1 X0U         1 TEMP              0 ****  ****    0 ROOT
