@<TRIPOS>MOLECULE
X0U
   22    24     1     0     0
SMALL
bcc


@<TRIPOS>ATOM
      1 N1         -0.0540   -0.0400   -0.1340 nc        1 X0U     -0.591100
      2 N2         -1.9190   -0.1640    1.4230 nv        1 X0U     -0.858800
      3 C1          3.5800   -0.0120   -0.9280 ca        1 X0U      0.067100
      4 C2          4.1010    0.0080    0.3880 ca        1 X0U      0.057100
      5 C3          6.2630   -0.3160   -0.4870 c3        1 X0U      0.091400
      6 C4          5.7580    0.3410   -1.7610 c3        1 X0U      0.090400
      7 C5          2.2090   -0.0360   -1.1660 ca        1 X0U     -0.085000
      8 C6          1.3440   -0.0360   -0.0570 ca        1 X0U      0.116400
      9 C7          1.8800   -0.0090    1.2750 ca        1 X0U     -0.096100
     10 C8          3.2540    0.0110    1.4950 ca        1 X0U     -0.081000
     11 C9         -0.5720   -0.0430    1.0990 cd        1 X0U      0.564100
     12 O1          4.4090   -0.0470   -2.0400 os        1 X0U     -0.314900
     13 O2          5.4640    0.0620    0.6380 os        1 X0U     -0.315900
     14 S           0.6220   -0.0190    2.4060 ss        1 X0U     -0.069100
     15 H21N       -2.2000    0.4260    2.1760 hn        1 X0U      0.406800
     16 H22N       -2.5470   -0.1360    0.6450 hn        1 X0U      0.406800
     17 H5          1.8200   -0.0590   -2.1940 ha        1 X0U      0.169000
     18 H8          3.6770    0.0300    2.5100 ha        1 X0U      0.158000
     19 H31C        7.2920    0.0430   -0.2200 h1        1 X0U      0.071200
     20 H32C        6.2480   -1.4330   -0.5820 h1        1 X0U      0.071200
     21 H41C        6.3300   -0.0100   -2.6590 h1        1 X0U      0.071200
     22 H42C        5.8010    1.4580   -1.6770 h1        1 X0U      0.071200
@<TRIPOS>BOND
     1    1    8 1   
     2    1   11 2   
     3    2   11 1   
     4    2   15 1   
     5    2   16 1   
     6    3    4 ar  
     7    3    7 ar  
     8    3   12 1   
     9    4   10 ar  
    10    4   13 1   
    11    5    6 1   
    12    5   13 1   
    13    5   19 1   
    14    5   20 1   
    15    6   12 1   
    16    6   21 1   
    17    6   22 1   
    18    7    8 ar  
    19    7   17 1   
    20    8    9 ar  
    21    9   10 ar  
    22    9   14 1   
    23   10   18 1   
    24   11   14 1   
@<TRIPOS>SUBSTRUCTURE
     1 X0U         1 TEMP              0 ****  ****    0 ROOT
