@<TRIPOS>MOLECULE
X0U
   23    25     1     0     0
SMALL
bcc


@<TRIPOS>ATOM
      1 N1         -0.0330    0.0790   -0.1100 nc        1 X0U     -0.445100
      2 N2         -1.9560    0.0160    1.3890 n4        1 X0U     -0.737600
      3 C1          3.5810    0.0480   -0.9330 ca        1 X0U      0.072100
      4 C2          4.1070   -0.0880    0.3860 ca        1 X0U      0.145100
      5 C3          6.2670   -0.3750   -0.5360 c3        1 X0U      0.085400
      6 C4          5.7700    0.4240   -1.7250 c3        1 X0U      0.085400
      7 C5          2.2160    0.1080   -1.1660 ca        1 X0U     -0.045000
      8 C6          1.3490    0.0370   -0.0490 ca        1 X0U      0.064400
      9 C7          1.8890   -0.0810    1.2870 ca        1 X0U     -0.064100
     10 C8          3.2640   -0.1440    1.4970 ca        1 X0U     -0.118000
     11 C9         -0.5250   -0.0030    1.1390 cd        1 X0U      0.243100
     12 O1          4.4090    0.0910   -2.0370 os        1 X0U     -0.297900
     13 O2          5.4560   -0.1380    0.6290 os        1 X0U     -0.293900
     14 S           0.6390   -0.1310    2.4100 ss        1 X0U      0.141900
     15 H21N       -2.2290   -0.8540    1.8620 hn        1 X0U      0.472800
     16 H22N       -2.4800    0.0930    0.5030 hn        1 X0U      0.472800
     17 H5          1.8210    0.2070   -2.1900 ha        1 X0U      0.190000
     18 H8          3.6950   -0.2390    2.5060 ha        1 X0U      0.182000
     19 H31C        6.2530   -1.4760   -0.7510 h1        1 X0U      0.094200
     20 H32C        7.2910   -0.0470   -0.2130 h1        1 X0U      0.094200
     21 H41C        6.3270    0.1570   -2.6630 h1        1 X0U      0.092200
     22 H42C        5.8340    1.5270   -1.5290 h1        1 X0U      0.092200
     23 H23        -2.1860    0.8240    1.9810 hn        1 X0U      0.472800
@<TRIPOS>BOND
     1    1    8 1   
     2    1   11 2   
     3    2   11 1   
     4    2   15 1   
     5    2   16 1   
     6    2   23 1   
     7    3    4 ar  
     8    3    7 ar  
     9    3   12 1   
    10    4   10 ar  
    11    4   13 1   
    12    5    6 1   
    13    5   13 1   
    14    5   19 1   
    15    5   20 1   
    16    6   12 1   
    17    6   21 1   
    18    6   22 1   
    19    7    8 ar  
    20    7   17 1   
    21    8    9 ar  
    22    9   10 ar  
    23    9   14 1   
    24   10   18 1   
    25   11   14 1   
@<TRIPOS>SUBSTRUCTURE
     1 X0U         1 TEMP              0 ****  ****    0 ROOT
