@<TRIPOS>MOLECULE
X0V
   21    21     1     0     0
SMALL
bcc


@<TRIPOS>ATOM
      1 C1         -0.0500    0.0040   -0.0040 c3        1 X0V      0.699200
      2 C2          1.5000   -0.0110   -0.0220 ca        1 X0V     -0.103300
      3 C3          3.5930    0.0030    1.2160 ca        1 X0V     -0.048400
      4 C4          2.1910   -0.0000    1.1960 ca        1 X0V     -0.023000
      5 C6          4.3070   -0.0050   -0.0210 ca        1 X0V     -0.021400
      6 C7          2.1900   -0.0230   -1.2280 ca        1 X0V      0.002000
      7 F1         -0.5490    1.2740    0.0790 f         1 X0V     -0.188300
      8 F2         -0.5990   -0.5560   -1.1210 f         1 X0V     -0.188300
      9 F3         -0.5660   -0.6770    1.0640 f         1 X0V     -0.188300
     10 C8          3.5930   -0.0190   -1.2260 ca        1 X0V     -0.061000
     11 N1          4.2580    0.0130    2.5200 n4        1 X0V     -0.718000
     12 N2          5.7700    0.0010   -0.0890 n4        1 X0V     -0.723000
     13 H4          1.5920   -0.0010    2.1330 ha        1 X0V      0.212000
     14 H7          1.6390   -0.0400   -2.1950 ha        1 X0V      0.234000
     15 H11N        4.8380   -0.8270    2.6450 hn        1 X0V      0.484467
     16 H12N        4.8300    0.8600    2.6360 hn        1 X0V      0.484467
     17 H8          4.1110   -0.0270   -2.2080 ha        1 X0V      0.206000
     18 H21N        6.1630   -0.8370    0.3590 hn        1 X0V      0.485133
     19 H22N        6.1560    0.8490    0.3460 hn        1 X0V      0.485133
     20 H13         3.5410    0.0130    3.2710 hn        1 X0V      0.484467
     21 H23         6.0680   -0.0050   -1.0830 hn        1 X0V      0.485133
@<TRIPOS>BOND
     1    1    2 1   
     2    1    7 1   
     3    1    8 1   
     4    1    9 1   
     5    2    4 ar  
     6    2    6 ar  
     7    3    4 ar  
     8    3    5 ar  
     9    3   11 1   
    10    4   13 1   
    11    5   10 ar  
    12    5   12 1   
    13    6   10 ar  
    14    6   14 1   
    15   10   17 1   
    16   11   15 1   
    17   11   16 1   
    18   11   20 1   
    19   12   18 1   
    20   12   19 1   
    21   12   21 1   
@<TRIPOS>SUBSTRUCTURE
     1 X0V         1 TEMP              0 ****  ****    0 ROOT
