@<TRIPOS>MOLECULE
X0V
   19    19     1     0     0
SMALL
bcc


@<TRIPOS>ATOM
      1 C1          1.9770    0.0710    0.0190 c3        1 X0V      0.691200
      2 C2          0.4710   -0.1450   -0.0090 ca        1 X0V     -0.182300
      3 C3         -1.7760    0.7960    0.0130 ca        1 X0V      0.063600
      4 C4         -0.3800    0.9590    0.0150 ca        1 X0V     -0.111000
      5 C6         -2.3160   -0.5360   -0.0090 ca        1 X0V      0.137600
      6 C7         -0.0460   -1.4370   -0.0490 ca        1 X0V     -0.073000
      7 F1          2.5130    0.1560    1.2820 f         1 X0V     -0.240300
      8 F2          2.7110   -0.9210   -0.5850 f         1 X0V     -0.240300
      9 F3          2.4040    1.2230   -0.5980 f         1 X0V     -0.240300
     10 C8         -1.4220   -1.6270   -0.0460 ca        1 X0V     -0.181000
     11 N1         -2.6310    1.9120    0.1180 nh        1 X0V     -0.802200
     12 N2         -3.6970   -0.7520   -0.0830 nh        1 X0V     -0.814200
     13 H4          0.0610    1.9700    0.0360 ha        1 X0V      0.147000
     14 H7          0.6320   -2.3040   -0.0810 ha        1 X0V      0.150000
     15 H11N       -2.1320    2.7780    0.0830 hn        1 X0V      0.380800
     16 H12N       -3.3680    1.8960   -0.5580 hn        1 X0V      0.380800
     17 H8         -1.8160   -2.6560   -0.0740 ha        1 X0V      0.140000
     18 H21N       -4.2460   -0.1120    0.4490 hn        1 X0V      0.395300
     19 H22N       -3.9630   -1.7010    0.0700 hn        1 X0V      0.395300
@<TRIPOS>BOND
     1    1    2 1   
     2    1    7 1   
     3    1    8 1   
     4    1    9 1   
     5    2    4 ar  
     6    2    6 ar  
     7    3    4 ar  
     8    3    5 ar  
     9    3   11 1   
    10    4   13 1   
    11    5   10 ar  
    12    5   12 1   
    13    6   10 ar  
    14    6   14 1   
    15   10   17 1   
    16   11   15 1   
    17   11   16 1   
    18   12   18 1   
    19   12   19 1   
@<TRIPOS>SUBSTRUCTURE
     1 X0V         1 TEMP              0 ****  ****    0 ROOT
