@<TRIPOS>MOLECULE
X0V
   19    17     1     0     0
SMALL
bcc


@<TRIPOS>ATOM
      1 C1         -2.8910    0.0120   -0.3260 c3        1 X0V      0.470000
      2 C2         -1.3790    0.0180   -0.3220 c2        1 X0V     -0.175000
      3 C3          0.6970    0.0030    0.8850 c1        1 X0V      0.019000
      4 C4         -0.6890    0.0200    0.8810 c1        1 X0V     -0.111000
      5 C6          1.3930   -0.0170   -0.3130 c1        1 X0V      0.019000
      6 C7         -0.6820   -0.0020   -1.5200 c2        1 X0V     -0.073000
      7 F1         -3.3420    1.2590   -0.5150 f         1 X0V     -0.169000
      8 F2         -3.3320   -0.7760   -1.3150 f         1 X0V     -0.169000
      9 F3         -3.3400   -0.4520    0.8470 f         1 X0V     -0.169000
     10 C8          0.7040   -0.0190   -1.5160 c1        1 X0V     -0.181000
     11 N1          1.4020   -0.0150    2.1160 n3        1 X0V     -0.317000
     12 N2          2.8120   -0.0000   -0.3090 n3        1 X0V     -0.317000
     13 H4         -1.1800    0.0340    1.7240 ha        1 X0V      0.147000
     14 H7         -1.1670   -0.0030   -2.3670 ha        1 X0V      0.150000
     15 H11N        1.1120    0.4950    2.8160 hn        1 X0V      0.183250
     16 H12N        2.1490   -0.5340    2.2070 hn        1 X0V      0.183250
     17 H8          1.1940   -0.0330   -2.3590 ha        1 X0V      0.140000
     18 H21N        3.2780   -0.7490   -0.5470 hn        1 X0V      0.183250
     19 H22N        3.2590    0.7590   -0.0670 hn        1 X0V      0.183250
@<TRIPOS>BOND
     1    1    2 1   
     2    1    7 1   
     3    1    8 1   
     4    1    9 1   
     5    2    4 1   
     6    2    6 1   
     7    3    5 1   
     8    3   11 1   
     9    4   13 1   
    10    5   12 1   
    11    6   10 1   
    12    6   14 1   
    13   10   17 1   
    14   11   15 1   
    15   11   16 1   
    16   12   18 1   
    17   12   19 1   
@<TRIPOS>SUBSTRUCTURE
     1 X0V         1 TEMP              0 ****  ****    0 ROOT
