@<TRIPOS>MOLECULE
X0V
   19    19     1     0     0
SMALL
bcc


@<TRIPOS>ATOM
      1 C1          0.0210   -0.1360    0.0310 c3        1 X0V      0.691200
      2 C2          1.5400   -0.0550    0.0120 ca        1 X0V     -0.182300
      3 C3          3.6500   -0.0820    1.2290 ca        1 X0V      0.063600
      4 C4          2.2480   -0.1740    1.2060 ca        1 X0V     -0.111000
      5 C6          4.3480    0.1440   -0.0080 ca        1 X0V      0.137600
      6 C7          2.2120    0.1460   -1.1920 ca        1 X0V     -0.073000
      7 F1         -0.6070    1.0690    0.2420 f         1 X0V     -0.240300
      8 F2         -0.5440   -0.6040   -1.1310 f         1 X0V     -0.240300
      9 F3         -0.4980   -0.9530    1.0070 f         1 X0V     -0.240300
     10 C8          3.5970    0.2460   -1.1980 ca        1 X0V     -0.181000
     11 N1          4.3550   -0.1220    2.4500 nv        1 X0V     -0.802200
     12 N2          5.7460    0.1730   -0.0510 nv        1 X0V     -0.814200
     13 H4          1.6880   -0.3430    2.1420 ha        1 X0V      0.147000
     14 H7          1.6460    0.2250   -2.1340 ha        1 X0V      0.150000
     15 H11N        5.1330   -0.7500    2.4220 hn        1 X0V      0.380800
     16 H12N        3.7590   -0.3250    3.2260 hn        1 X0V      0.380800
     17 H8          4.1130    0.4090   -2.1580 ha        1 X0V      0.140000
     18 H21N        6.1140    0.4950   -0.9200 hn        1 X0V      0.395300
     19 H22N        6.1770    0.6180    0.7320 hn        1 X0V      0.395300
@<TRIPOS>BOND
     1    1    2 1   
     2    1    7 1   
     3    1    8 1   
     4    1    9 1   
     5    2    4 ar  
     6    2    6 ar  
     7    3    4 ar  
     8    3    5 ar  
     9    3   11 1   
    10    4   13 1   
    11    5   10 ar  
    12    5   12 1   
    13    6   10 ar  
    14    6   14 1   
    15   10   17 1   
    16   11   15 1   
    17   11   16 1   
    18   12   18 1   
    19   12   19 1   
@<TRIPOS>SUBSTRUCTURE
     1 X0V         1 TEMP              0 ****  ****    0 ROOT
