@<TRIPOS>MOLECULE
X0W
   25    26     1     0     0
SMALL
bcc


@<TRIPOS>ATOM
      1 N           2.0850   -1.3970   -0.0150 nc        1 X0W     -0.525100
      2 C1          0.8300    0.6330    0.0170 ca        1 X0W     -0.084100
      3 O1         -2.8150    1.2610    0.0190 os        1 X0W     -0.299900
      4 C2         -0.3650    1.3570    0.0270 ca        1 X0W     -0.152000
      5 O2         -2.8560   -1.3170   -0.0270 os        1 X0W     -0.302900
      6 C3         -1.5700    0.6690    0.0120 ca        1 X0W      0.120100
      7 C4         -2.8290    2.6840    0.0440 c3        1 X0W      0.108700
      8 C5         -1.5910   -0.7640   -0.0140 ca        1 X0W      0.109100
      9 C6         -2.9130   -2.7390   -0.0520 c3        1 X0W      0.108700
     10 C7         -0.4120   -1.4930   -0.0240 ca        1 X0W     -0.138000
     11 C8          0.8160   -0.7980   -0.0080 ca        1 X0W      0.089400
     12 C9          3.0180   -0.4590    0.0040 cd        1 X0W      0.368200
     13 C10         4.4770   -0.6990    0.0030 c3        1 X0W     -0.118400
     14 S           2.4270    1.1810    0.0310 ss        1 X0W     -0.052100
     15 H2         -0.3380    2.4550    0.0460 ha        1 X0W      0.147000
     16 H41C       -3.9210    2.9300    0.0450 h1        1 X0W      0.046033
     17 H42C       -2.3370    3.0680    0.9700 h1        1 X0W      0.046033
     18 H43C       -2.3320    3.1010   -0.8660 h1        1 X0W      0.046033
     19 H61C       -4.0120   -2.9510   -0.0590 h1        1 X0W      0.046367
     20 H62C       -2.4290   -3.1380   -0.9760 h1        1 X0W      0.046367
     21 H63C       -2.4330   -3.1700    0.8600 h1        1 X0W      0.046367
     22 H7         -0.4130   -2.5920   -0.0430 ha        1 X0W      0.160000
     23 H101        4.7800   -1.2660   -0.9130 hc        1 X0W      0.061700
     24 H102        5.0270    0.2740    0.0220 hc        1 X0W      0.061700
     25 H103        4.7750   -1.2980    0.9010 hc        1 X0W      0.061700
@<TRIPOS>BOND
     1    1   11 1   
     2    1   12 2   
     3    2    4 ar  
     4    2   11 ar  
     5    2   14 1   
     6    3    6 1   
     7    3    7 1   
     8    4    6 ar  
     9    4   15 1   
    10    5    8 1   
    11    5    9 1   
    12    6    8 ar  
    13    7   16 1   
    14    7   17 1   
    15    7   18 1   
    16    8   10 ar  
    17    9   19 1   
    18    9   20 1   
    19    9   21 1   
    20   10   11 ar  
    21   10   22 1   
    22   12   13 1   
    23   12   14 1   
    24   13   23 1   
    25   13   24 1   
    26   13   25 1   
@<TRIPOS>SUBSTRUCTURE
     1 X0W         1 TEMP              0 ****  ****    0 ROOT
