@<TRIPOS>MOLECULE
X11
   24    25     1     0     0
SMALL
bcc


@<TRIPOS>ATOM
      1 N1         -0.9540   -1.2510    0.3740 nb        1 X11     -0.826000
      2 C2         -2.3450   -1.1470    0.3230 ca        1 X11      0.926400
      3 N3         -3.0400    0.0060   -0.0130 nb        1 X11     -0.846000
      4 C4         -2.2380    1.0950   -0.3180 ca        1 X11      0.926400
      5 N5         -0.8440    1.0740   -0.3310 nb        1 X11     -0.826000
      6 C6         -0.2780   -0.1180    0.0260 cp        1 X11      0.787500
      7 N7         -3.0850   -2.2900    0.5820 nh        1 X11     -0.939500
      8 N8         -2.8680    2.3050   -0.5800 nh        1 X11     -0.939500
      9 C9          1.2070   -0.1990    0.0110 cp        1 X11     -0.230500
     10 C10         2.0320    0.7990    0.5620 ca        1 X11      0.180100
     11 C11         3.4360    0.6650    0.5130 ca        1 X11     -0.175000
     12 C12         4.0030   -0.4500   -0.0850 ca        1 X11     -0.080000
     13 C13         3.1890   -1.4440   -0.6370 ca        1 X11     -0.181000
     14 C14         1.8060   -1.3200   -0.5860 ca        1 X11     -0.051000
     15 O15         1.5960    1.9280    1.2030 oh        1 X11     -0.499100
     16 HN7        -2.6220   -3.0700    0.9810 hn        1 X11      0.440550
     17 HN7A       -4.0630   -2.2010    0.7180 hn        1 X11      0.440550
     18 HN8        -3.8420    2.2910   -0.7690 hn        1 X11      0.440550
     19 HN8A       -2.3290    3.0260   -0.9990 hn        1 X11      0.440550
     20 H11         4.0580    1.4570    0.9550 ha        1 X11      0.152000
     21 H12         5.0980   -0.5510   -0.1250 ha        1 X11      0.135000
     22 H13         3.6440   -2.3260   -1.1100 ha        1 X11      0.136000
     23 H14         1.1730   -2.1100   -1.0200 ha        1 X11      0.147000
     24 HO15        0.6360    2.0060    1.1130 ho        1 X11      0.443000
@<TRIPOS>BOND
     1    1    2 ar  
     2    1    6 ar  
     3    2    3 ar  
     4    2    7 1   
     5    3    4 ar  
     6    4    5 ar  
     7    4    8 1   
     8    5    6 ar  
     9    6    9 1   
    10    7   16 1   
    11    7   17 1   
    12    8   18 1   
    13    8   19 1   
    14    9   10 ar  
    15    9   14 ar  
    16   10   11 ar  
    17   10   15 1   
    18   11   12 ar  
    19   11   20 1   
    20   12   13 ar  
    21   12   21 1   
    22   13   14 ar  
    23   13   22 1   
    24   14   23 1   
    25   15   24 1   
@<TRIPOS>SUBSTRUCTURE
     1 X11         1 TEMP              0 ****  ****    0 ROOT
