@<TRIPOS>MOLECULE
X11
   26    27     1     0     0
SMALL
bcc


@<TRIPOS>ATOM
      1 N1         -0.0200   -0.2210   -0.0150 nb        1 X11     -0.679500
      2 C2          1.3340   -0.2100    0.0290 ca        1 X11      0.797400
      3 N3          2.1340   -0.0030    1.1370 nb        1 X11     -0.751000
      4 C4          1.3830    0.2260    2.2760 ca        1 X11      0.797400
      5 N5          0.0330    0.2600    2.3750 nb        1 X11     -0.679500
      6 C6         -0.6760    0.0110    1.1990 cp        1 X11      0.879500
      7 N7          2.0520   -0.4680   -1.2560 n4        1 X11     -0.824800
      8 N8          2.1530    0.4750    3.5320 n4        1 X11     -0.824800
      9 C9         -2.1200    0.0110    1.2100 cp        1 X11     -0.266500
     10 C10        -2.8950   -0.3270    2.3570 ca        1 X11      0.252100
     11 C11        -4.3030   -0.2680    2.3100 ca        1 X11     -0.237000
     12 C12        -4.9480    0.1090    1.1450 ca        1 X11      0.031000
     13 C13        -4.1990    0.4230   -0.0070 ca        1 X11     -0.160000
     14 C14        -2.8230    0.3680    0.0210 ca        1 X11     -0.029000
     15 O15        -2.2520   -0.7630    3.4730 oh        1 X11     -0.484100
     16 HN7         2.6100    0.3630   -1.5070 hn        1 X11      0.500967
     17 HN7A        1.3720   -0.6640   -2.0100 hn        1 X11      0.500967
     18 HN8         2.7420   -0.3450    3.7390 hn        1 X11      0.500967
     19 HN8A        1.5010    0.6370    4.3190 hn        1 X11      0.500967
     20 H11        -4.8860   -0.5280    3.2100 ha        1 X11      0.179000
     21 H12        -6.0520    0.1600    1.1110 ha        1 X11      0.185000
     22 H13        -4.7250    0.7160   -0.9320 ha        1 X11      0.182000
     23 H14        -2.2610    0.6310   -0.8910 ha        1 X11      0.157000
     24 HO15       -2.9120   -0.9950    4.1520 ho        1 X11      0.468000
     25 H73         2.6800   -1.2780   -1.1430 hn        1 X11      0.500967
     26 H83         2.7540    1.3050    3.4090 hn        1 X11      0.500967
@<TRIPOS>BOND
     1    1    2 ar  
     2    1    6 ar  
     3    2    3 ar  
     4    2    7 1   
     5    3    4 ar  
     6    4    5 ar  
     7    4    8 1   
     8    5    6 ar  
     9    6    9 1   
    10    7   16 1   
    11    7   17 1   
    12    7   25 1   
    13    8   18 1   
    14    8   19 1   
    15    8   26 1   
    16    9   10 ar  
    17    9   14 ar  
    18   10   11 ar  
    19   10   15 1   
    20   11   12 ar  
    21   11   20 1   
    22   12   13 ar  
    23   12   21 1   
    24   13   14 ar  
    25   13   22 1   
    26   14   23 1   
    27   15   24 1   
@<TRIPOS>SUBSTRUCTURE
     1 X11         1 TEMP              0 ****  ****    0 ROOT
