@<TRIPOS>MOLECULE
X11
   24    25     1     0     0
SMALL
bcc


@<TRIPOS>ATOM
      1 N1         -0.0650    0.4900    0.0610 nb        1 X11     -0.800500
      2 C2          1.3290    0.5440    0.1010 ca        1 X11      0.917900
      3 N3          2.1080    0.0740    1.1480 nb        1 X11     -0.846000
      4 C4          1.3920   -0.4650    2.2050 ca        1 X11      0.917900
      5 N5         -0.0010   -0.5260    2.2750 nb        1 X11     -0.800500
      6 C6         -0.6460   -0.0350    1.1790 cp        1 X11      0.791500
      7 N7          1.9820    1.1560   -0.9610 nh        1 X11     -0.940000
      8 N8          2.1150   -1.0370    3.2470 nh        1 X11     -0.940000
      9 C9         -2.1340   -0.0880    1.1930 cp        1 X11     -0.163500
     10 C10        -2.8760    0.6250    2.1530 ca        1 X11      0.162100
     11 C11        -4.2790    0.5460    2.1650 ca        1 X11     -0.222000
     12 C12        -4.9310   -0.2370    1.2170 ca        1 X11     -0.079000
     13 C13        -4.2000   -0.9340    0.2550 ca        1 X11     -0.173000
     14 C14        -2.8080   -0.8570    0.2420 ca        1 X11     -0.060000
     15 O15        -2.1840    1.4100    3.0430 oh        1 X11     -0.483100
     16 HN7         1.4620    1.3420   -1.7840 hn        1 X11      0.436550
     17 HN7A        2.9630    1.0430   -1.0380 hn        1 X11      0.436550
     18 HN8         1.6280   -1.2270    4.0900 hn        1 X11      0.436550
     19 HN8A        3.0790   -0.8110    3.3180 hn        1 X11      0.436550
     20 H11        -4.8520    1.1010    2.9200 ha        1 X11      0.135000
     21 H12        -6.0290   -0.3020    1.2280 ha        1 X11      0.133000
     22 H13        -4.7210   -1.5460   -0.4950 ha        1 X11      0.137000
     23 H14        -2.2320   -1.4030   -0.5210 ha        1 X11      0.145000
     24 HO15       -2.8250    1.7910    3.6630 ho        1 X11      0.419000
@<TRIPOS>BOND
     1    1    2 ar  
     2    1    6 ar  
     3    2    3 ar  
     4    2    7 1   
     5    3    4 ar  
     6    4    5 ar  
     7    4    8 1   
     8    5    6 ar  
     9    6    9 1   
    10    7   16 1   
    11    7   17 1   
    12    8   18 1   
    13    8   19 1   
    14    9   10 ar  
    15    9   14 ar  
    16   10   11 ar  
    17   10   15 1   
    18   11   12 ar  
    19   11   20 1   
    20   12   13 ar  
    21   12   21 1   
    22   13   14 ar  
    23   13   22 1   
    24   14   23 1   
    25   15   24 1   
@<TRIPOS>SUBSTRUCTURE
     1 X11         1 TEMP              0 ****  ****    0 ROOT
