@<TRIPOS>MOLECULE
X11
   24    25     1     0     0
SMALL
bcc


@<TRIPOS>ATOM
      1 N1         -0.0630    0.5100    0.0690 nb        1 X11     -0.800500
      2 C2          1.3300    0.5750    0.1160 ca        1 X11      0.917900
      3 N3          2.1080    0.1010    1.1620 nb        1 X11     -0.846000
      4 C4          1.3920   -0.4540    2.2110 ca        1 X11      0.917900
      5 N5         -0.0000   -0.5260    2.2730 nb        1 X11     -0.800500
      6 C6         -0.6450   -0.0300    1.1800 cp        1 X11      0.791500
      7 N7          1.9820    1.2010   -0.9370 nv        1 X11     -0.940000
      8 N8          2.1160   -1.0300    3.2510 nv        1 X11     -0.940000
      9 C9         -2.1320   -0.0950    1.1870 cp        1 X11     -0.163500
     10 C10        -2.8840    0.6030    2.1500 ca        1 X11      0.162100
     11 C11        -4.2860    0.5120    2.1560 ca        1 X11     -0.222000
     12 C12        -4.9280   -0.2660    1.1980 ca        1 X11     -0.079000
     13 C13        -4.1880   -0.9480    0.2320 ca        1 X11     -0.173000
     14 C14        -2.7960   -0.8600    0.2260 ca        1 X11     -0.060000
     15 O15        -2.2020    1.3850    3.0520 oh        1 X11     -0.483100
     16 HN7         1.4650    1.3910   -1.7610 hn        1 X11      0.436550
     17 HN7A        2.9650    1.0970   -1.0120 hn        1 X11      0.436550
     18 HN8         3.0770   -0.7970    3.3270 hn        1 X11      0.436550
     19 HN8A        1.6260   -1.2320    4.0900 hn        1 X11      0.436550
     20 H11        -4.8670    1.0550    2.9140 ha        1 X11      0.135000
     21 H12        -6.0260   -0.3400    1.2030 ha        1 X11      0.133000
     22 H13        -4.7000   -1.5570   -0.5270 ha        1 X11      0.137000
     23 H14        -2.2130   -1.3940   -0.5400 ha        1 X11      0.145000
     24 HO15       -2.8480    1.7540    3.6720 ho        1 X11      0.419000
@<TRIPOS>BOND
     1    1    2 ar  
     2    1    6 ar  
     3    2    3 ar  
     4    2    7 1   
     5    3    4 ar  
     6    4    5 ar  
     7    4    8 1   
     8    5    6 ar  
     9    6    9 1   
    10    7   16 1   
    11    7   17 1   
    12    8   18 1   
    13    8   19 1   
    14    9   10 ar  
    15    9   14 ar  
    16   10   11 ar  
    17   10   15 1   
    18   11   12 ar  
    19   11   20 1   
    20   12   13 ar  
    21   12   21 1   
    22   13   14 ar  
    23   13   22 1   
    24   14   23 1   
    25   15   24 1   
@<TRIPOS>SUBSTRUCTURE
     1 X11         1 TEMP              0 ****  ****    0 ROOT
