@<TRIPOS>MOLECULE
X13
   60    59     1     0     0
SMALL
bcc


@<TRIPOS>ATOM
      1 C4          5.9640    1.5640   -0.7770 c3        1 X13      0.127700
      2 C5          4.8120    0.8170   -0.1610 c3        1 X13     -0.094400
      3 C6          3.4900    1.3580   -0.6680 c3        1 X13     -0.078400
      4 C7          2.3280    0.6080   -0.0540 c3        1 X13     -0.079400
      5 C8          1.0040    1.1380   -0.5630 c3        1 X13     -0.079400
      6 C9         -0.1580    0.3830    0.0460 c3        1 X13     -0.079400
      7 C10        -1.4820    0.9070   -0.4670 c3        1 X13     -0.079400
      8 C11        -2.6420    0.1470    0.1390 c3        1 X13     -0.079400
      9 C12        -3.9660    0.6690   -0.3780 c3        1 X13     -0.079400
     10 C13        -5.1250   -0.0950    0.2260 c3        1 X13     -0.079400
     11 C14        -6.4480    0.4270   -0.2950 c3        1 X13     -0.080400
     12 C15        -7.6040   -0.3460    0.3140 c3        1 X13     -0.103400
     13 C16        -8.9120    0.2090   -0.2350 c3        1 X13      0.113800
     14 N1        -10.1660   -0.4600    0.2740 n4        1 X13     -0.604800
     15 C19       -10.1730   -1.9060   -0.0960 c3        1 X13      0.089100
     16 S18         7.5420    0.9380   -0.2110 ss        1 X13     -0.549000
     17 S19         7.9600   -1.1300   -0.9610 s6        1 X13      1.331700
     18 O1          6.9990   -2.0050   -0.4640 o         1 X13     -0.583800
     19 O2          8.1440   -1.1110   -2.3380 o         1 X13     -0.583800
     20 C20         9.3820   -1.1620   -0.1090 c3        1 X13     -0.385300
     21 C17       -10.2670   -0.3240    1.7560 c3        1 X13      0.089100
     22 C18       -11.3440    0.2100   -0.3590 c3        1 X13      0.089100
     23 H41C        5.9390    1.5120   -1.8910 h1        1 X13      0.076700
     24 H42C        5.9640    2.6370   -0.4660 h1        1 X13      0.076700
     25 H51C        4.8870   -0.2780   -0.4020 hc        1 X13      0.058700
     26 H52C        4.8550    0.9120    0.9570 hc        1 X13      0.058700
     27 H61C        3.4100    2.4490   -0.4180 hc        1 X13      0.042200
     28 H62C        3.4490    1.2690   -1.7850 hc        1 X13      0.042200
     29 H71C        2.4150   -0.4840   -0.2970 hc        1 X13      0.044200
     30 H72C        2.3670    0.7030    1.0630 hc        1 X13      0.044200
     31 H81C        0.9150    2.2290   -0.3160 hc        1 X13      0.041200
     32 H82C        0.9680    1.0470   -1.6810 hc        1 X13      0.041200
     33 H91C       -0.0650   -0.7090   -0.1980 hc        1 X13      0.042200
     34 H92C       -0.1230    0.4760    1.1630 hc        1 X13      0.042200
     35 H101       -1.5750    1.9980   -0.2210 hc        1 X13      0.042700
     36 H102       -1.5140    0.8160   -1.5850 hc        1 X13      0.042700
     37 H111       -2.5460   -0.9440   -0.1060 hc        1 X13      0.043200
     38 H112       -2.6110    0.2400    1.2560 hc        1 X13      0.043200
     39 H121       -4.0630    1.7590   -0.1310 hc        1 X13      0.045700
     40 H122       -3.9960    0.5780   -1.4960 hc        1 X13      0.045700
     41 H131       -5.0260   -1.1850   -0.0200 hc        1 X13      0.047700
     42 H132       -5.0950   -0.0020    1.3440 hc        1 X13      0.047700
     43 H141       -6.5460    1.5170   -0.0450 hc        1 X13      0.054700
     44 H142       -6.4750    0.3350   -1.4130 hc        1 X13      0.054700
     45 H151       -7.4950   -1.4330    0.0600 hc        1 X13      0.064700
     46 H152       -7.5670   -0.2460    1.4300 hc        1 X13      0.064700
     47 H161       -8.9920    1.3030    0.0300 hx        1 X13      0.098700
     48 H162       -8.9170    0.1090   -1.3590 hx        1 X13      0.098700
     49 H171      -10.1980    0.7600    2.0360 hx        1 X13      0.101700
     50 H172      -11.2510   -0.7410    2.1010 hx        1 X13      0.101700
     51 H173       -9.4320   -0.8930    2.2440 hx        1 X13      0.101700
     52 H181      -11.2760    0.1070   -1.4740 hx        1 X13      0.101700
     53 H182      -12.2890   -0.2750    0.0050 hx        1 X13      0.101700
     54 H183      -11.3490    1.2970   -0.0790 hx        1 X13      0.101700
     55 H191       -9.3380   -2.4350    0.4360 hx        1 X13      0.101700
     56 H192      -11.1540   -2.3610    0.2070 hx        1 X13      0.101700
     57 H193      -10.0370   -2.0070   -1.2050 hx        1 X13      0.101700
     58 H201        9.6030   -0.2140    0.4650 h1        1 X13      0.153033
     59 H202        9.4100   -1.9770    0.6630 h1        1 X13      0.153033
     60 H203       10.2800   -1.3120   -0.7670 h1        1 X13      0.153033
@<TRIPOS>BOND
     1    1    2 1   
     2    1   16 1   
     3    1   23 1   
     4    1   24 1   
     5    2    3 1   
     6    2   25 1   
     7    2   26 1   
     8    3    4 1   
     9    3   27 1   
    10    3   28 1   
    11    4    5 1   
    12    4   29 1   
    13    4   30 1   
    14    5    6 1   
    15    5   31 1   
    16    5   32 1   
    17    6    7 1   
    18    6   33 1   
    19    6   34 1   
    20    7    8 1   
    21    7   35 1   
    22    7   36 1   
    23    8    9 1   
    24    8   37 1   
    25    8   38 1   
    26    9   10 1   
    27    9   39 1   
    28    9   40 1   
    29   10   11 1   
    30   10   41 1   
    31   10   42 1   
    32   11   12 1   
    33   11   43 1   
    34   11   44 1   
    35   12   13 1   
    36   12   45 1   
    37   12   46 1   
    38   13   14 1   
    39   13   47 1   
    40   13   48 1   
    41   14   15 1   
    42   14   21 1   
    43   14   22 1   
    44   15   55 1   
    45   15   56 1   
    46   15   57 1   
    47   16   17 1   
    48   17   18 2   
    49   17   19 2   
    50   17   20 1   
    51   20   58 1   
    52   20   59 1   
    53   20   60 1   
    54   21   49 1   
    55   21   50 1   
    56   21   51 1   
    57   22   52 1   
    58   22   53 1   
    59   22   54 1   
@<TRIPOS>SUBSTRUCTURE
     1 X13         1 TEMP              0 ****  ****    0 ROOT
