@<TRIPOS>MOLECULE
X13
   60    58     1     0     0
SMALL
bcc


@<TRIPOS>ATOM
      1 C4         -5.0550    3.5880   -5.0310 c3        1 X13     -0.120000
      2 C5         -3.9880    2.5340   -4.7650 c3        1 X13     -0.151000
      3 C6         -3.9270    2.2230   -3.2640 c3        1 X13     -0.159000
      4 C7         -2.9940    1.0420   -3.0310 c3        1 X13     -0.157000
      5 C8         -2.7330    0.8820   -1.5100 c3        1 X13     -0.158000
      6 C9         -1.6690   -0.1860   -1.2820 c3        1 X13     -0.158000
      7 C10        -1.2190   -0.1530    0.2040 c3        1 X13     -0.158000
      8 C11        -0.1240   -1.1930    0.4330 c3        1 X13     -0.158000
      9 C12         0.4860   -0.9990    1.8520 c3        1 X13     -0.158000
     10 C13         1.6660   -1.9780    2.0410 c3        1 X13     -0.158000
     11 C14         2.3830   -1.6860    3.4090 c3        1 X13     -0.159000
     12 C15         3.5470   -2.6840    3.5950 c3        1 X13     -0.182000
     13 C16         4.3290   -2.3380    4.9090 c3        1 X13     -0.123000
     14 N1          5.4410   -3.2940    5.0930 n4        1 X13      0.028000
     15 C19         4.9280   -4.5900    5.2310 c3        1 X13     -0.187000
     16 S18        -4.5470    4.6050   -6.3730 ss        1 X13     -0.687000
     17 S19        -6.1580    5.6750   -7.0680 s4        1 X13      1.875800
     18 O1         -7.1240    4.8150   -7.6940 o         1 X13     -0.468400
     19 O2         -6.9340    6.2240   -5.9770 o         1 X13     -0.468400
     20 C20        -5.6170    6.9500   -8.1780 c2        1 X13     -0.966000
     21 C17         6.3000   -3.2460    3.9720 c3        1 X13     -0.187000
     22 C18         6.1800   -2.9430    6.2790 c3        1 X13     -0.187000
     23 H41C       -5.8940    3.1500   -5.2560 h1        1 X13      0.100000
     24 H42C       -5.1770    4.1370   -4.2360 h1        1 X13      0.100000
     25 H51C       -4.2120    1.7060   -5.2640 hc        1 X13      0.103000
     26 H52C       -3.1240    2.8670   -5.0620 hc        1 X13      0.103000
     27 H61C       -3.5910    3.0070   -2.7800 hc        1 X13      0.080000
     28 H62C       -4.8190    2.0000   -2.9410 hc        1 X13      0.080000
     29 H71C       -3.4100    0.2230   -3.3810 hc        1 X13      0.083000
     30 H72C       -2.1490    1.2000   -3.4920 hc        1 X13      0.083000
     31 H81C       -3.5650    0.6160   -1.0620 hc        1 X13      0.080000
     32 H82C       -2.4200    1.7380   -1.1400 hc        1 X13      0.080000
     33 H91C       -2.0390   -1.0630   -1.4910 hc        1 X13      0.081000
     34 H92C       -0.8990   -0.0100   -1.8600 hc        1 X13      0.081000
     35 H101       -0.8730    0.7360    0.4190 hc        1 X13      0.082000
     36 H102       -1.9920   -0.3550    0.7870 hc        1 X13      0.082000
     37 H111       -0.5020   -2.0810    0.3630 hc        1 X13      0.082000
     38 H112        0.5810   -1.0820   -0.2460 hc        1 X13      0.082000
     39 H121       -0.2050   -1.1790    2.5340 hc        1 X13      0.085000
     40 H122        0.8080   -0.0750    1.9470 hc        1 X13      0.085000
     41 H131        1.3260   -2.9050    2.0400 hc        1 X13      0.087000
     42 H132        2.3180   -1.8620    1.2930 hc        1 X13      0.087000
     43 H141        2.7390   -0.7600    3.4060 hc        1 X13      0.094000
     44 H142        1.7400   -1.7900    4.1460 hc        1 X13      0.094000
     45 H151        4.1570   -2.6230    2.8240 hc        1 X13      0.104000
     46 H152        3.1870   -3.6030    3.6590 hc        1 X13      0.104000
     47 H161        3.7180   -2.3950    5.6790 hx        1 X13      0.138000
     48 H162        4.6900   -1.4260    4.8440 hx        1 X13      0.138000
     49 H171        7.1700   -3.6480    4.2070 hx        1 X13      0.141000
     50 H172        5.9040   -3.7410    3.2380 hx        1 X13      0.141000
     51 H173        6.4320   -2.3140    3.7040 hx        1 X13      0.141000
     52 H181        5.5670   -2.8880    7.0390 hx        1 X13      0.141000
     53 H182        6.6180   -2.0680    6.1480 hx        1 X13      0.141000
     54 H183        6.8720   -3.6370    6.4590 hx        1 X13      0.141000
     55 H191        4.6600   -4.9290    4.3510 hx        1 X13      0.141000
     56 H192        4.1520   -4.5720    5.8230 hx        1 X13      0.141000
     57 H193        5.6130   -5.1740    5.6100 hx        1 X13      0.141000
     58 H201       -5.0300    6.5620   -8.8630 ha        1 X13      0.193000
     59 H202       -6.3940    7.3580   -8.6080 ha        1 X13      0.193000
     60 H203       -5.1280    7.6290   -7.6790 ha        1 X13      0.193000
@<TRIPOS>BOND
     1    1    2 1   
     2    1   16 1   
     3    1   23 1   
     4    1   24 1   
     5    2    3 1   
     6    2   25 1   
     7    2   26 1   
     8    3    4 1   
     9    3   27 1   
    10    3   28 1   
    11    4    5 1   
    12    4   29 1   
    13    4   30 1   
    14    5    6 1   
    15    5   31 1   
    16    5   32 1   
    17    6    7 1   
    18    6   33 1   
    19    6   34 1   
    20    7    8 1   
    21    7   35 1   
    22    7   36 1   
    23    8    9 1   
    24    8   37 1   
    25    8   38 1   
    26    9   10 1   
    27    9   39 1   
    28    9   40 1   
    29   10   11 1   
    30   10   41 1   
    31   10   42 1   
    32   11   12 1   
    33   11   43 1   
    34   11   44 1   
    35   12   13 1   
    36   12   45 1   
    37   12   46 1   
    38   13   14 1   
    39   13   47 1   
    40   13   48 1   
    41   14   15 1   
    42   14   21 1   
    43   14   22 1   
    44   15   55 1   
    45   15   56 1   
    46   15   57 1   
    47   16   17 1   
    48   17   18 1   
    49   17   19 1   
    50   20   58 1   
    51   20   59 1   
    52   20   60 1   
    53   21   49 1   
    54   21   50 1   
    55   21   51 1   
    56   22   52 1   
    57   22   53 1   
    58   22   54 1   
@<TRIPOS>SUBSTRUCTURE
     1 X13         1 TEMP              0 ****  ****    0 ROOT
