@<TRIPOS>MOLECULE
X13
   60    59     1     0     0
SMALL
bcc


@<TRIPOS>ATOM
      1 C4         -0.1730   -0.2730    0.4470 c3        1 X13      0.127700
      2 C5          1.3290   -0.3360    0.3980 c3        1 X13     -0.094400
      3 C6          1.9190   -0.1680    1.7840 c3        1 X13     -0.078400
      4 C7          3.4310   -0.2340    1.7400 c3        1 X13     -0.079400
      5 C8          4.0250   -0.0750    3.1230 c3        1 X13     -0.079400
      6 C9          5.5370   -0.1480    3.0800 c3        1 X13     -0.079400
      7 C10         6.1330    0.0040    4.4630 c3        1 X13     -0.079400
      8 C11         7.6440   -0.0740    4.4180 c3        1 X13     -0.079400
      9 C12         8.2400    0.0740    5.8020 c3        1 X13     -0.079400
     10 C13         9.7510   -0.0090    5.7560 c3        1 X13     -0.079400
     11 C14        10.3440    0.1380    7.1420 c3        1 X13     -0.080400
     12 C15        11.8580    0.0510    7.0870 c3        1 X13     -0.103400
     13 C16        12.4130    0.2020    8.4960 c3        1 X13      0.113800
     14 N1         13.9170    0.1340    8.6140 n4        1 X13     -0.604800
     15 C19        14.4190   -1.1880    8.1380 c3        1 X13      0.089100
     16 S18        -0.9020   -0.4850   -1.1730 ss        1 X13     -0.549000
     17 S19        -0.6150   -2.5550   -1.9760 s6        1 X13      1.331700
     18 O1          0.7450   -2.8080   -2.1300 o         1 X13     -0.583800
     19 O2         -1.3430   -3.4660   -1.2200 o         1 X13     -0.583800
     20 C20        -1.3680   -2.1230   -3.3880 c3        1 X13     -0.385300
     21 C17        14.5530    1.2250    7.8190 c3        1 X13      0.089100
     22 C18        14.2820    0.3040   10.0540 c3        1 X13      0.089100
     23 H41C       -0.5940   -1.0470    1.1310 h1        1 X13      0.076700
     24 H42C       -0.5260    0.7330    0.7810 h1        1 X13      0.076700
     25 H51C        1.7190    0.4700   -0.2790 hc        1 X13      0.058700
     26 H52C        1.6620   -1.3180   -0.0350 hc        1 X13      0.058700
     27 H61C        1.5960    0.8170    2.2130 hc        1 X13      0.042200
     28 H62C        1.5260   -0.9710    2.4620 hc        1 X13      0.042200
     29 H71C        3.8230    0.5730    1.0670 hc        1 X13      0.044200
     30 H72C        3.7520   -1.2160    1.3020 hc        1 X13      0.044200
     31 H81C        3.6290   -0.8790    3.7980 hc        1 X13      0.041200
     32 H82C        3.7080    0.9090    3.5590 hc        1 X13      0.041200
     33 H91C        5.9330    0.6580    2.4080 hc        1 X13      0.042200
     34 H92C        5.8530   -1.1310    2.6400 hc        1 X13      0.042200
     35 H101        5.7330   -0.8000    5.1350 hc        1 X13      0.042700
     36 H102        5.8190    0.9880    4.9010 hc        1 X13      0.042700
     37 H111        8.0430    0.7320    3.7480 hc        1 X13      0.043200
     38 H112        7.9560   -1.0570    3.9770 hc        1 X13      0.043200
     39 H121        7.9290    1.0580    6.2420 hc        1 X13      0.045700
     40 H122        7.8380   -0.7310    6.4730 hc        1 X13      0.045700
     41 H131       10.1510    0.7980    5.0860 hc        1 X13      0.047700
     42 H132       10.0600   -0.9930    5.3140 hc        1 X13      0.047700
     43 H141        9.9410   -0.6690    7.8100 hc        1 X13      0.054700
     44 H142       10.0340    1.1230    7.5810 hc        1 X13      0.054700
     45 H151       12.1550   -0.9360    6.6450 hc        1 X13      0.064700
     46 H152       12.2490    0.8610    6.4160 hc        1 X13      0.064700
     47 H161       11.9950   -0.6170    9.1510 hx        1 X13      0.098700
     48 H162       12.0940    1.1990    8.9180 hx        1 X13      0.098700
     49 H171       14.3520    1.0610    6.7270 hx        1 X13      0.101700
     50 H172       14.1260    2.2130    8.1360 hx        1 X13      0.101700
     51 H173       15.6610    1.2170    7.9980 hx        1 X13      0.101700
     52 H181       15.3980    0.2560   10.1630 hx        1 X13      0.101700
     53 H182       13.8110   -0.5160   10.6580 hx        1 X13      0.101700
     54 H183       13.9130    1.3000   10.4170 hx        1 X13      0.101700
     55 H191       13.8950   -2.0080    8.6960 hx        1 X13      0.101700
     56 H192       14.2190   -1.2930    7.0380 hx        1 X13      0.101700
     57 H193       15.5250   -1.2520    8.3220 hx        1 X13      0.101700
     58 H201       -0.7020   -2.2220   -4.2860 h1        1 X13      0.153033
     59 H202       -1.7290   -1.0520   -3.4150 h1        1 X13      0.153033
     60 H203       -2.2840   -2.7380   -3.5980 h1        1 X13      0.153033
@<TRIPOS>BOND
     1    1    2 1   
     2    1   16 1   
     3    1   23 1   
     4    1   24 1   
     5    2    3 1   
     6    2   25 1   
     7    2   26 1   
     8    3    4 1   
     9    3   27 1   
    10    3   28 1   
    11    4    5 1   
    12    4   29 1   
    13    4   30 1   
    14    5    6 1   
    15    5   31 1   
    16    5   32 1   
    17    6    7 1   
    18    6   33 1   
    19    6   34 1   
    20    7    8 1   
    21    7   35 1   
    22    7   36 1   
    23    8    9 1   
    24    8   37 1   
    25    8   38 1   
    26    9   10 1   
    27    9   39 1   
    28    9   40 1   
    29   10   11 1   
    30   10   41 1   
    31   10   42 1   
    32   11   12 1   
    33   11   43 1   
    34   11   44 1   
    35   12   13 1   
    36   12   45 1   
    37   12   46 1   
    38   13   14 1   
    39   13   47 1   
    40   13   48 1   
    41   14   15 1   
    42   14   21 1   
    43   14   22 1   
    44   15   55 1   
    45   15   56 1   
    46   15   57 1   
    47   16   17 1   
    48   17   18 2   
    49   17   19 2   
    50   17   20 1   
    51   20   58 1   
    52   20   59 1   
    53   20   60 1   
    54   21   49 1   
    55   21   50 1   
    56   21   51 1   
    57   22   52 1   
    58   22   53 1   
    59   22   54 1   
@<TRIPOS>SUBSTRUCTURE
     1 X13         1 TEMP              0 ****  ****    0 ROOT
