@<TRIPOS>MOLECULE
X13
   60    59     1     0     0
SMALL
bcc


@<TRIPOS>ATOM
      1 C4         -0.1690   -0.2680    0.4390 c3        1 X13      0.127700
      2 C5          1.3330   -0.3330    0.3910 c3        1 X13     -0.094400
      3 C6          1.9220   -0.1640    1.7780 c3        1 X13     -0.078400
      4 C7          3.4340   -0.2320    1.7360 c3        1 X13     -0.079400
      5 C8          4.0270   -0.0730    3.1190 c3        1 X13     -0.079400
      6 C9          5.5380   -0.1470    3.0780 c3        1 X13     -0.079400
      7 C10         6.1330    0.0050    4.4610 c3        1 X13     -0.079400
      8 C11         7.6440   -0.0740    4.4180 c3        1 X13     -0.079400
      9 C12         8.2380    0.0720    5.8030 c3        1 X13     -0.079400
     10 C13         9.7500   -0.0100    5.7580 c3        1 X13     -0.079400
     11 C14        10.3410    0.1330    7.1460 c3        1 X13     -0.080400
     12 C15        11.8560    0.0470    7.0920 c3        1 X13     -0.103400
     13 C16        12.4080    0.1920    8.5020 c3        1 X13      0.113800
     14 N1         13.9120    0.1320    8.6210 n4        1 X13     -0.604800
     15 C19        14.4240   -1.1790    8.1240 c3        1 X13      0.089100
     16 S18        -0.8960   -0.4820   -1.1820 ss        1 X13     -0.549000
     17 S19        -0.6110   -2.5530   -1.9810 s6        1 X13      1.331700
     18 O1          0.7490   -2.8080   -2.1330 o         1 X13     -0.583800
     19 O2         -1.3410   -3.4620   -1.2240 o         1 X13     -0.583800
     20 C20        -1.3630   -2.1230   -3.3940 c3        1 X13     -0.385300
     21 C17        14.5420    1.2390    7.8450 c3        1 X13      0.089100
     22 C18        14.2750    0.2810   10.0640 c3        1 X13      0.089100
     23 H41C       -0.5920   -1.0400    1.1240 h1        1 X13      0.076700
     24 H42C       -0.5210    0.7390    0.7710 h1        1 X13      0.076700
     25 H51C        1.7250    0.4730   -0.2860 hc        1 X13      0.058700
     26 H52C        1.6660   -1.3150   -0.0410 hc        1 X13      0.058700
     27 H61C        1.6000    0.8220    2.2060 hc        1 X13      0.042200
     28 H62C        1.5280   -0.9660    2.4560 hc        1 X13      0.042200
     29 H71C        3.8280    0.5740    1.0620 hc        1 X13      0.044200
     30 H72C        3.7540   -1.2140    1.2990 hc        1 X13      0.044200
     31 H81C        3.6290   -0.8760    3.7940 hc        1 X13      0.041200
     32 H82C        3.7100    0.9120    3.5540 hc        1 X13      0.041200
     33 H91C        5.9360    0.6590    2.4060 hc        1 X13      0.042200
     34 H92C        5.8540   -1.1290    2.6380 hc        1 X13      0.042200
     35 H101        5.7330   -0.8000    5.1330 hc        1 X13      0.042700
     36 H102        5.8190    0.9890    4.9000 hc        1 X13      0.042700
     37 H111        8.0440    0.7330    3.7490 hc        1 X13      0.043200
     38 H112        7.9570   -1.0570    3.9760 hc        1 X13      0.043200
     39 H121        7.9270    1.0560    6.2440 hc        1 X13      0.045700
     40 H122        7.8360   -0.7340    6.4720 hc        1 X13      0.045700
     41 H131       10.1500    0.7980    5.0910 hc        1 X13      0.047700
     42 H132       10.0590   -0.9930    5.3140 hc        1 X13      0.047700
     43 H141        9.9380   -0.6760    7.8100 hc        1 X13      0.054700
     44 H142       10.0300    1.1170    7.5860 hc        1 X13      0.054700
     45 H151       12.1540   -0.9380    6.6460 hc        1 X13      0.064700
     46 H152       12.2470    0.8600    6.4250 hc        1 X13      0.064700
     47 H161       11.9940   -0.6330    9.1510 hx        1 X13      0.098700
     48 H162       12.0840    1.1840    8.9300 hx        1 X13      0.098700
     49 H171       14.3400    1.0940    6.7500 hx        1 X13      0.101700
     50 H172       14.1130    2.2200    8.1800 hx        1 X13      0.101700
     51 H173       15.6510    1.2330    8.0210 hx        1 X13      0.101700
     52 H181       15.3920    0.2420   10.1740 hx        1 X13      0.101700
     53 H182       13.8110   -0.5540   10.6530 hx        1 X13      0.101700
     54 H183       13.8960    1.2670   10.4440 hx        1 X13      0.101700
     55 H191       13.9010   -2.0110    8.6650 hx        1 X13      0.101700
     56 H192       14.2300   -1.2650    7.0220 hx        1 X13      0.101700
     57 H193       15.5290   -1.2410    8.3130 hx        1 X13      0.101700
     58 H201       -0.6960   -2.2240   -4.2920 h1        1 X13      0.153033
     59 H202       -1.7220   -1.0520   -3.4230 h1        1 X13      0.153033
     60 H203       -2.2800   -2.7370   -3.6040 h1        1 X13      0.153033
@<TRIPOS>BOND
     1    1    2 1   
     2    1   16 1   
     3    1   23 1   
     4    1   24 1   
     5    2    3 1   
     6    2   25 1   
     7    2   26 1   
     8    3    4 1   
     9    3   27 1   
    10    3   28 1   
    11    4    5 1   
    12    4   29 1   
    13    4   30 1   
    14    5    6 1   
    15    5   31 1   
    16    5   32 1   
    17    6    7 1   
    18    6   33 1   
    19    6   34 1   
    20    7    8 1   
    21    7   35 1   
    22    7   36 1   
    23    8    9 1   
    24    8   37 1   
    25    8   38 1   
    26    9   10 1   
    27    9   39 1   
    28    9   40 1   
    29   10   11 1   
    30   10   41 1   
    31   10   42 1   
    32   11   12 1   
    33   11   43 1   
    34   11   44 1   
    35   12   13 1   
    36   12   45 1   
    37   12   46 1   
    38   13   14 1   
    39   13   47 1   
    40   13   48 1   
    41   14   15 1   
    42   14   21 1   
    43   14   22 1   
    44   15   55 1   
    45   15   56 1   
    46   15   57 1   
    47   16   17 1   
    48   17   18 2   
    49   17   19 2   
    50   17   20 1   
    51   20   58 1   
    52   20   59 1   
    53   20   60 1   
    54   21   49 1   
    55   21   50 1   
    56   21   51 1   
    57   22   52 1   
    58   22   53 1   
    59   22   54 1   
@<TRIPOS>SUBSTRUCTURE
     1 X13         1 TEMP              0 ****  ****    0 ROOT
