@<TRIPOS>MOLECULE
X13
   60    59     1     0     0
SMALL
bcc


@<TRIPOS>ATOM
      1 C4         -0.1830   -0.2930    0.4660 c3        1 X13      0.127700
      2 C5          1.3200   -0.3510    0.4130 c3        1 X13     -0.094400
      3 C6          1.9130   -0.1870    1.7980 c3        1 X13     -0.078400
      4 C7          3.4250   -0.2470    1.7500 c3        1 X13     -0.079400
      5 C8          4.0220   -0.0930    3.1330 c3        1 X13     -0.079400
      6 C9          5.5340   -0.1590    3.0850 c3        1 X13     -0.079400
      7 C10         6.1320   -0.0100    4.4670 c3        1 X13     -0.079400
      8 C11         7.6440   -0.0800    4.4190 c3        1 X13     -0.079400
      9 C12         8.2420    0.0650    5.8020 c3        1 X13     -0.079400
     10 C13         9.7540   -0.0070    5.7510 c3        1 X13     -0.079400
     11 C14        10.3490    0.1350    7.1360 c3        1 X13     -0.080400
     12 C15        11.8640    0.0620    7.0760 c3        1 X13     -0.103400
     13 C16        12.4210    0.2040    8.4850 c3        1 X13      0.113800
     14 N1         13.9270    0.1600    8.5970 n4        1 X13     -0.604800
     15 C19        14.4510   -1.1400    8.0840 c3        1 X13      0.089100
     16 S18        -0.9150   -0.5010   -1.1530 ss        1 X13     -0.549000
     17 S19        -0.6240   -2.5670   -1.9650 s6        1 X13      1.331700
     18 O1          0.7360   -2.8150   -2.1240 o         1 X13     -0.583800
     19 O2         -1.3480   -3.4830   -1.2110 o         1 X13     -0.583800
     20 C20        -1.3830   -2.1310   -3.3730 c3        1 X13     -0.385300
     21 C17        14.5410    1.2830    7.8300 c3        1 X13      0.089100
     22 C18        14.2940    0.2970   10.0410 c3        1 X13      0.089100
     23 H41C       -0.6000   -1.0710    1.1480 h1        1 X13      0.076700
     24 H42C       -0.5370    0.7110    0.8050 h1        1 X13      0.076700
     25 H51C        1.7060    0.4590   -0.2620 hc        1 X13      0.058700
     26 H52C        1.6550   -1.3300   -0.0250 hc        1 X13      0.058700
     27 H61C        1.5870    0.7950    2.2320 hc        1 X13      0.041700
     28 H62C        1.5240   -0.9940    2.4730 hc        1 X13      0.041700
     29 H71C        3.8120    0.5640    1.0790 hc        1 X13      0.044200
     30 H72C        3.7480   -1.2260    1.3070 hc        1 X13      0.044200
     31 H81C        3.6310   -0.9020    3.8040 hc        1 X13      0.041200
     32 H82C        3.7010    0.8880    3.5740 hc        1 X13      0.041200
     33 H91C        5.9240    0.6530    2.4160 hc        1 X13      0.042200
     34 H92C        5.8530   -1.1370    2.6390 hc        1 X13      0.042200
     35 H101        5.7390   -0.8210    5.1360 hc        1 X13      0.042200
     36 H102        5.8140    0.9700    4.9120 hc        1 X13      0.042200
     37 H111        8.0360    0.7330    3.7510 hc        1 X13      0.043200
     38 H112        7.9610   -1.0580    3.9710 hc        1 X13      0.043200
     39 H121        7.9250    1.0440    6.2480 hc        1 X13      0.045700
     40 H122        7.8480   -0.7470    6.4680 hc        1 X13      0.045700
     41 H131       10.1460    0.8070    5.0850 hc        1 X13      0.047700
     42 H132       10.0690   -0.9860    5.3020 hc        1 X13      0.047700
     43 H141        9.9550   -0.6800    7.7990 hc        1 X13      0.054700
     44 H142       10.0330    1.1150    7.5820 hc        1 X13      0.054700
     45 H151       12.1680   -0.9190    6.6250 hc        1 X13      0.064700
     46 H152       12.2470    0.8810    6.4120 hc        1 X13      0.064700
     47 H161       12.0190   -0.6290    9.1310 hx        1 X13      0.098700
     48 H162       12.0880    1.1900    8.9210 hx        1 X13      0.098700
     49 H171       14.3340    1.1480    6.7350 hx        1 X13      0.101700
     50 H172       14.1030    2.2550    8.1790 hx        1 X13      0.101700
     51 H173       15.6500    1.2850    8.0010 hx        1 X13      0.101700
     52 H181       15.4110    0.2710   10.1450 hx        1 X13      0.101700
     53 H182       13.8430   -0.5500   10.6220 hx        1 X13      0.101700
     54 H183       13.9040    1.2740   10.4330 hx        1 X13      0.101700
     55 H191       13.9380   -1.9840    8.6170 hx        1 X13      0.101700
     56 H192       14.2540   -1.2160    6.9820 hx        1 X13      0.101700
     57 H193       15.5570   -1.1920    8.2690 hx        1 X13      0.101700
     58 H201       -0.7200   -2.2250   -4.2740 h1        1 X13      0.153033
     59 H202       -1.7470   -1.0620   -3.3940 h1        1 X13      0.153033
     60 H203       -2.2980   -2.7480   -3.5830 h1        1 X13      0.153033
@<TRIPOS>BOND
     1    1    2 1   
     2    1   16 1   
     3    1   23 1   
     4    1   24 1   
     5    2    3 1   
     6    2   25 1   
     7    2   26 1   
     8    3    4 1   
     9    3   27 1   
    10    3   28 1   
    11    4    5 1   
    12    4   29 1   
    13    4   30 1   
    14    5    6 1   
    15    5   31 1   
    16    5   32 1   
    17    6    7 1   
    18    6   33 1   
    19    6   34 1   
    20    7    8 1   
    21    7   35 1   
    22    7   36 1   
    23    8    9 1   
    24    8   37 1   
    25    8   38 1   
    26    9   10 1   
    27    9   39 1   
    28    9   40 1   
    29   10   11 1   
    30   10   41 1   
    31   10   42 1   
    32   11   12 1   
    33   11   43 1   
    34   11   44 1   
    35   12   13 1   
    36   12   45 1   
    37   12   46 1   
    38   13   14 1   
    39   13   47 1   
    40   13   48 1   
    41   14   15 1   
    42   14   21 1   
    43   14   22 1   
    44   15   55 1   
    45   15   56 1   
    46   15   57 1   
    47   16   17 1   
    48   17   18 2   
    49   17   19 2   
    50   17   20 1   
    51   20   58 1   
    52   20   59 1   
    53   20   60 1   
    54   21   49 1   
    55   21   50 1   
    56   21   51 1   
    57   22   52 1   
    58   22   53 1   
    59   22   54 1   
@<TRIPOS>SUBSTRUCTURE
     1 X13         1 TEMP              0 ****  ****    0 ROOT
