@<TRIPOS>MOLECULE
X14
   58    60     1     0     0
SMALL
bcc


@<TRIPOS>ATOM
      1 N01         0.2750   -0.2890   -0.1670 na        1 X14     -0.018600
      2 N02         1.5750    0.0300   -0.0840 nc        1 X14     -0.409800
      3 N03        -2.6080   -0.6440    0.3220 ny        1 X14     -0.685800
      4 N04        -9.5960    0.7920   -2.4040 nz        1 X14     -0.798500
      5 C05         1.9240    0.1000    1.2190 cd        1 X14      0.338600
      6 C06         0.7870   -0.2900    2.0660 cd        1 X14      0.002400
      7 C07        -0.2460   -0.5730    1.1490 cc        1 X14     -0.322900
      8 C08         3.2250    0.4860    1.8110 c3        1 X14     -0.126700
      9 C09         3.0490    0.8350    3.2790 c3        1 X14     -0.089400
     10 C10         2.2730   -0.2350    4.0390 c3        1 X14     -0.053700
     11 C11         0.8300   -0.2940    3.5280 c3        1 X14     -0.058100
     12 C12         2.3290   -0.0240    5.5680 c3        1 X14     -0.046000
     13 C13        -1.5990   -0.9040    1.4660 c         1 X14      0.613700
     14 C14        -4.0220   -0.7740    0.7740 c3        1 X14      0.137100
     15 C15        -5.0220   -0.4670   -0.3000 ca        1 X14     -0.045300
     16 C16        -5.8290   -1.4900   -0.8110 ca        1 X14     -0.128000
     17 C17        -6.8040   -1.1980   -1.7620 ca        1 X14      0.018000
     18 C18        -6.9990    0.1170   -2.2260 ca        1 X14     -0.490500
     19 C19        -6.1770    1.1330   -1.6970 ca        1 X14      0.018000
     20 C20        -5.2020    0.8480   -0.7470 ca        1 X14     -0.128000
     21 C21         2.0970    1.4350    5.9270 c3        1 X14     -0.093100
     22 C22         1.2640   -0.8780    6.2470 c3        1 X14     -0.093100
     23 C23         3.7110   -0.4860    6.0580 c3        1 X14     -0.073400
     24 C24         4.0370   -0.0770    7.4710 c3        1 X14     -0.097100
     25 O25        -2.0870   -1.3340    2.5000 o         1 X14     -0.422100
     26 O26        -8.4560   -0.6920   -4.1120 o         1 X14     -0.540800
     27 O27        -7.8490    1.6610   -4.0210 o         1 X14     -0.540800
     28 S28        -8.0500    0.4340   -3.4330 sy        1 X14      1.469200
     29 HN01        0.0530   -0.9050   -0.9290 hn        1 X14      0.297700
     30 HN03       -2.4240   -1.3120   -0.4320 hn        1 X14      0.457300
     31 HN04      -10.3490    0.1450   -2.6550 hn        1 X14      0.468800
     32 HN0A       -9.9390    1.7380   -2.5920 hn        1 X14      0.468800
     33 H08         3.6670    1.3620    1.2610 hc        1 X14      0.092700
     34 H08A        3.9420   -0.3750    1.6990 hc        1 X14      0.092700
     35 H09         2.5170    1.8190    3.3690 hc        1 X14      0.070700
     36 H09A        4.0670    0.9650    3.7330 hc        1 X14      0.070700
     37 H10         2.7480   -1.2350    3.8250 hc        1 X14      0.064700
     38 H11         0.2560    0.5940    3.9180 hc        1 X14      0.093700
     39 H11A        0.3170   -1.2170    3.9170 hc        1 X14      0.093700
     40 H14        -4.1630   -1.8270    1.1650 hx        1 X14      0.136700
     41 H14A       -4.1730   -0.0700    1.6480 hx        1 X14      0.136700
     42 H16        -5.7060   -2.5320   -0.4640 ha        1 X14      0.178000
     43 H17        -7.4180   -2.0240   -2.1750 ha        1 X14      0.188500
     44 H19        -6.2940    2.1760   -2.0570 ha        1 X14      0.188500
     45 H20        -4.5870    1.6700   -0.3410 ha        1 X14      0.178000
     46 H21         1.9420    1.5360    7.0290 hc        1 X14      0.040533
     47 H21A        1.1910    1.8310    5.4090 hc        1 X14      0.040533
     48 H21B        2.9780    2.0580    5.6390 hc        1 X14      0.040533
     49 H22         1.3120   -1.9320    5.8820 hc        1 X14      0.040533
     50 H22A        0.2430   -0.4690    6.0530 hc        1 X14      0.040533
     51 H22B        1.4240   -0.8820    7.3530 hc        1 X14      0.040533
     52 H23         3.7550   -1.6050    5.9770 hc        1 X14      0.042700
     53 H23A        4.5030   -0.0740    5.3790 hc        1 X14      0.042700
     54 H24         3.2560   -0.4230    8.1900 hc        1 X14      0.043700
     55 H24A        5.0140   -0.5290    7.7740 hc        1 X14      0.043700
     56 H24B        4.1270    1.0330    7.5560 hc        1 X14      0.043700
     57 H032       -2.4440    0.3020   -0.0410 hn        1 X14      0.457300
     58 H043       -9.4500    0.7150   -1.4010 hn        1 X14      0.468800
@<TRIPOS>BOND
     1    1    2 1   
     2    1    7 1   
     3    1   29 1   
     4    2    5 2   
     5    3   13 1   
     6    3   14 1   
     7    3   30 1   
     8    3   57 1   
     9    4   28 1   
    10    4   31 1   
    11    4   32 1   
    12    4   58 1   
    13    5    6 1   
    14    5    8 1   
    15    6    7 2   
    16    6   11 1   
    17    7   13 1   
    18    8    9 1   
    19    8   33 1   
    20    8   34 1   
    21    9   10 1   
    22    9   35 1   
    23    9   36 1   
    24   10   11 1   
    25   10   12 1   
    26   10   37 1   
    27   11   38 1   
    28   11   39 1   
    29   12   21 1   
    30   12   22 1   
    31   12   23 1   
    32   13   25 2   
    33   14   15 1   
    34   14   40 1   
    35   14   41 1   
    36   15   16 ar  
    37   15   20 ar  
    38   16   17 ar  
    39   16   42 1   
    40   17   18 ar  
    41   17   43 1   
    42   18   19 ar  
    43   18   28 1   
    44   19   20 ar  
    45   19   44 1   
    46   20   45 1   
    47   21   46 1   
    48   21   47 1   
    49   21   48 1   
    50   22   49 1   
    51   22   50 1   
    52   22   51 1   
    53   23   24 1   
    54   23   52 1   
    55   23   53 1   
    56   24   54 1   
    57   24   55 1   
    58   24   56 1   
    59   26   28 2   
    60   27   28 2   
@<TRIPOS>SUBSTRUCTURE
     1 X14         1 TEMP              0 ****  ****    0 ROOT
