@<TRIPOS>MOLECULE
X14
   58    60     1     0     0
SMALL
bcc


@<TRIPOS>ATOM
      1 N01         0.2780   -0.3300   -0.1620 na        1 X14     -0.018600
      2 N02         1.5800   -0.0190   -0.0800 nc        1 X14     -0.409800
      3 N03        -2.6090   -0.6560    0.3270 n4        1 X14     -0.685800
      4 N04        -9.5810    0.7960   -2.4300 n4        1 X14     -0.798500
      5 C05         1.9270    0.0650    1.2220 cd        1 X14      0.338600
      6 C06         0.7860   -0.3050    2.0720 cd        1 X14      0.002400
      7 C07        -0.2480   -0.5920    1.1570 cc        1 X14     -0.322900
      8 C08         3.2300    0.4510    1.8120 c3        1 X14     -0.126700
      9 C09         3.0530    0.8200    3.2760 c3        1 X14     -0.089400
     10 C10         2.2680   -0.2340    4.0480 c3        1 X14     -0.053700
     11 C11         0.8260   -0.2900    3.5340 c3        1 X14     -0.058100
     12 C12         2.3230   -0.0030    5.5740 c3        1 X14     -0.046000
     13 C13        -1.6030   -0.9090    1.4760 c         1 X14      0.613700
     14 C14        -4.0240   -0.7720    0.7770 c3        1 X14      0.137100
     15 C15        -5.0200   -0.4700   -0.3020 ca        1 X14     -0.045300
     16 C16        -5.8320   -1.4930   -0.8030 ca        1 X14     -0.128000
     17 C17        -6.8030   -1.2050   -1.7590 ca        1 X14      0.018000
     18 C18        -6.9890    0.1060   -2.2390 ca        1 X14     -0.490500
     19 C19        -6.1610    1.1220   -1.7200 ca        1 X14      0.018000
     20 C20        -5.1900    0.8410   -0.7640 ca        1 X14     -0.128000
     21 C21         2.1000    1.4620    5.9130 c3        1 X14     -0.093100
     22 C22         1.2500   -0.8410    6.2620 c3        1 X14     -0.093100
     23 C23         3.7000   -0.4680    6.0720 c3        1 X14     -0.073400
     24 C24         4.0270   -0.0430    7.4810 c3        1 X14     -0.097100
     25 O25        -2.0970   -1.3220    2.5140 o         1 X14     -0.422100
     26 O26        -8.4470   -0.7140   -4.1190 o         1 X14     -0.540800
     27 O27        -7.8250    1.6350   -4.0530 o         1 X14     -0.540800
     28 S28        -8.0350    0.4160   -3.4520 sy        1 X14      1.469200
     29 HN01        0.0530   -0.9540   -0.9150 hn        1 X14      0.297700
     30 HN03       -2.4370    0.2840   -0.0480 hn        1 X14      0.457300
     31 HN04       -9.4380    0.7290   -1.4260 hn        1 X14      0.468800
     32 HN0A       -9.9170    1.7410   -2.6290 hn        1 X14      0.468800
     33 H08         3.9410   -0.4170    1.7130 hc        1 X14      0.092700
     34 H08A        3.6790    1.3150    1.2520 hc        1 X14      0.092700
     35 H09         2.5280    1.8090    3.3510 hc        1 X14      0.070700
     36 H09A        4.0710    0.9490    3.7290 hc        1 X14      0.070700
     37 H10         2.7370   -1.2410    3.8480 hc        1 X14      0.064700
     38 H11         0.2570    0.6080    3.9120 hc        1 X14      0.093700
     39 H11A        0.3050   -1.2040    3.9350 hc        1 X14      0.093700
     40 H14        -4.1720   -0.0560    1.6420 hx        1 X14      0.136700
     41 H14A       -4.1730   -1.8190    1.1810 hx        1 X14      0.136700
     42 H16        -5.7170   -2.5320   -0.4440 ha        1 X14      0.178000
     43 H17        -7.4230   -2.0310   -2.1640 ha        1 X14      0.188500
     44 H19        -6.2710    2.1620   -2.0910 ha        1 X14      0.188500
     45 H20        -4.5700    1.6640   -0.3670 ha        1 X14      0.178000
     46 H21         2.9860    2.0750    5.6180 hc        1 X14      0.040533
     47 H21A        1.1980    1.8580    5.3880 hc        1 X14      0.040533
     48 H21B        1.9430    1.5790    7.0140 hc        1 X14      0.040533
     49 H22         1.4080   -0.8320    7.3680 hc        1 X14      0.040533
     50 H22A        0.2330   -0.4270    6.0600 hc        1 X14      0.040533
     51 H22B        1.2920   -1.9000    5.9110 hc        1 X14      0.040533
     52 H23         3.7370   -1.5890    6.0070 hc        1 X14      0.042700
     53 H23A        4.4970   -0.0710    5.3900 hc        1 X14      0.042700
     54 H24         5.0000   -0.4970    7.7920 hc        1 X14      0.043700
     55 H24A        3.2420   -0.3740    8.2020 hc        1 X14      0.043700
     56 H24B        4.1240    1.0680    7.5510 hc        1 X14      0.043700
     57 H032       -2.4280   -1.3350   -0.4190 hn        1 X14      0.457300
     58 H043      -10.3380    0.1510   -2.6750 hn        1 X14      0.468800
@<TRIPOS>BOND
     1    1    2 1   
     2    1    7 1   
     3    1   29 1   
     4    2    5 2   
     5    3   13 1   
     6    3   14 1   
     7    3   30 1   
     8    3   57 1   
     9    4   28 1   
    10    4   31 1   
    11    4   32 1   
    12    4   58 1   
    13    5    6 1   
    14    5    8 1   
    15    6    7 2   
    16    6   11 1   
    17    7   13 1   
    18    8    9 1   
    19    8   33 1   
    20    8   34 1   
    21    9   10 1   
    22    9   35 1   
    23    9   36 1   
    24   10   11 1   
    25   10   12 1   
    26   10   37 1   
    27   11   38 1   
    28   11   39 1   
    29   12   21 1   
    30   12   22 1   
    31   12   23 1   
    32   13   25 2   
    33   14   15 1   
    34   14   40 1   
    35   14   41 1   
    36   15   16 ar  
    37   15   20 ar  
    38   16   17 ar  
    39   16   42 1   
    40   17   18 ar  
    41   17   43 1   
    42   18   19 ar  
    43   18   28 1   
    44   19   20 ar  
    45   19   44 1   
    46   20   45 1   
    47   21   46 1   
    48   21   47 1   
    49   21   48 1   
    50   22   49 1   
    51   22   50 1   
    52   22   51 1   
    53   23   24 1   
    54   23   52 1   
    55   23   53 1   
    56   24   54 1   
    57   24   55 1   
    58   24   56 1   
    59   26   28 2   
    60   27   28 2   
@<TRIPOS>SUBSTRUCTURE
     1 X14         1 TEMP              0 ****  ****    0 ROOT
