@<TRIPOS>MOLECULE
X14
   58    60     1     0     0
SMALL
bcc


@<TRIPOS>ATOM
      1 N01         0.2770   -0.2810   -0.1680 na        1 X14     -0.018600
      2 N02         1.5750    0.0430   -0.0840 nc        1 X14     -0.409800
      3 N03        -2.6050   -0.6480    0.3200 n4        1 X14     -0.685800
      4 N04        -9.5970    0.7700   -2.4030 n4        1 X14     -0.798500
      5 C05         1.9240    0.1120    1.2190 cd        1 X14      0.338600
      6 C06         0.7880   -0.2830    2.0650 cd        1 X14      0.002400
      7 C07        -0.2430   -0.5690    1.1480 cc        1 X14     -0.322900
      8 C08         3.2240    0.5030    1.8120 c3        1 X14     -0.126700
      9 C09         3.0460    0.8490    3.2800 c3        1 X14     -0.089400
     10 C10         2.2740   -0.2250    4.0390 c3        1 X14     -0.053700
     11 C11         0.8320   -0.2890    3.5270 c3        1 X14     -0.058100
     12 C12         2.3290   -0.0150    5.5680 c3        1 X14     -0.046000
     13 C13        -1.5950   -0.9060    1.4640 c         1 X14      0.613700
     14 C14        -4.0180   -0.7850    0.7710 c3        1 X14      0.137100
     15 C15        -5.0190   -0.4790   -0.3010 ca        1 X14     -0.045300
     16 C16        -5.8230   -1.5040   -0.8140 ca        1 X14     -0.128000
     17 C17        -6.7990   -1.2130   -1.7640 ca        1 X14      0.018000
     18 C18        -6.9980    0.1030   -2.2260 ca        1 X14     -0.490500
     19 C19        -6.1790    1.1200   -1.6960 ca        1 X14      0.018000
     20 C20        -5.2030    0.8360   -0.7470 ca        1 X14     -0.128000
     21 C21         2.0910    1.4420    5.9290 c3        1 X14     -0.093100
     22 C22         1.2670   -0.8740    6.2450 c3        1 X14     -0.093100
     23 C23         3.7120   -0.4720    6.0570 c3        1 X14     -0.073400
     24 C24         4.0370   -0.0630    7.4710 c3        1 X14     -0.097100
     25 O25        -2.0820   -1.3390    2.4970 o         1 X14     -0.422100
     26 O26        -8.4530   -0.7080   -4.1130 o         1 X14     -0.540800
     27 O27        -7.8530    1.6460   -4.0200 o         1 X14     -0.540800
     28 S28        -8.0500    0.4170   -3.4330 sy        1 X14      1.469200
     29 HN01        0.0580   -0.8980   -0.9300 hn        1 X14      0.297700
     30 HN03       -2.4440    0.2980   -0.0420 hn        1 X14      0.457300
     31 HN04      -10.3480    0.1220   -2.6540 hn        1 X14      0.468800
     32 HN0A       -9.4510    0.6920   -1.4000 hn        1 X14      0.468800
     33 H08         3.6620    1.3810    1.2630 hc        1 X14      0.092700
     34 H08A        3.9440   -0.3550    1.6990 hc        1 X14      0.092700
     35 H09         4.0630    0.9830    3.7340 hc        1 X14      0.070700
     36 H09A        2.5100    1.8310    3.3710 hc        1 X14      0.070700
     37 H10         2.7540   -1.2230    3.8230 hc        1 X14      0.064700
     38 H11         0.2530    0.5960    3.9190 hc        1 X14      0.093700
     39 H11A        0.3220   -1.2150    3.9150 hc        1 X14      0.093700
     40 H14        -4.1720   -0.0830    1.6470 hx        1 X14      0.136700
     41 H14A       -4.1550   -1.8400    1.1610 hx        1 X14      0.136700
     42 H16        -5.6970   -2.5460   -0.4680 ha        1 X14      0.178000
     43 H17        -7.4110   -2.0400   -2.1780 ha        1 X14      0.188500
     44 H19        -6.2990    2.1630   -2.0540 ha        1 X14      0.188500
     45 H20        -4.5900    1.6590   -0.3400 ha        1 X14      0.178000
     46 H21         1.1830    1.8360    5.4110 hc        1 X14      0.040533
     47 H21A        2.9690    2.0690    5.6410 hc        1 X14      0.040533
     48 H21B        1.9350    1.5410    7.0310 hc        1 X14      0.040533
     49 H22         1.4270   -0.8800    7.3510 hc        1 X14      0.040533
     50 H22A        1.3200   -1.9280    5.8800 hc        1 X14      0.040533
     51 H22B        0.2450   -0.4700    6.0520 hc        1 X14      0.040533
     52 H23         4.5030   -0.0560    5.3790 hc        1 X14      0.042700
     53 H23A        3.7610   -1.5910    5.9760 hc        1 X14      0.042700
     54 H24         4.1220    1.0470    7.5580 hc        1 X14      0.043700
     55 H24A        5.0150   -0.5110    7.7740 hc        1 X14      0.043700
     56 H24B        3.2570   -0.4140    8.1890 hc        1 X14      0.043700
     57 H032       -2.4180   -1.3150   -0.4340 hn        1 X14      0.457300
     58 H043       -9.9420    1.7150   -2.5900 hn        1 X14      0.468800
@<TRIPOS>BOND
     1    1    2 1   
     2    1    7 1   
     3    1   29 1   
     4    2    5 2   
     5    3   13 1   
     6    3   14 1   
     7    3   30 1   
     8    3   57 1   
     9    4   28 1   
    10    4   31 1   
    11    4   32 1   
    12    4   58 1   
    13    5    6 1   
    14    5    8 1   
    15    6    7 2   
    16    6   11 1   
    17    7   13 1   
    18    8    9 1   
    19    8   33 1   
    20    8   34 1   
    21    9   10 1   
    22    9   35 1   
    23    9   36 1   
    24   10   11 1   
    25   10   12 1   
    26   10   37 1   
    27   11   38 1   
    28   11   39 1   
    29   12   21 1   
    30   12   22 1   
    31   12   23 1   
    32   13   25 2   
    33   14   15 1   
    34   14   40 1   
    35   14   41 1   
    36   15   16 ar  
    37   15   20 ar  
    38   16   17 ar  
    39   16   42 1   
    40   17   18 ar  
    41   17   43 1   
    42   18   19 ar  
    43   18   28 1   
    44   19   20 ar  
    45   19   44 1   
    46   20   45 1   
    47   21   46 1   
    48   21   47 1   
    49   21   48 1   
    50   22   49 1   
    51   22   50 1   
    52   22   51 1   
    53   23   24 1   
    54   23   52 1   
    55   23   53 1   
    56   24   54 1   
    57   24   55 1   
    58   24   56 1   
    59   26   28 2   
    60   27   28 2   
@<TRIPOS>SUBSTRUCTURE
     1 X14         1 TEMP              0 ****  ****    0 ROOT
