@<TRIPOS>MOLECULE
X14
   56    58     1     0     0
SMALL
bcc


@<TRIPOS>ATOM
      1 N01        -1.1730   -2.2600    1.0770 na        1 X14     -0.013600
      2 N02        -2.2360   -3.0420    0.9060 nc        1 X14     -0.482800
      3 N03         0.5470    0.1020    1.8100 n         1 X14     -0.570900
      4 N04         7.0270    1.4870   -1.7460 n3        1 X14     -1.026700
      5 C05        -3.2890   -2.2240    0.6310 cd        1 X14      0.298600
      6 C06        -2.8440   -0.8390    0.5780 cd        1 X14     -0.153600
      7 C07        -1.4680   -0.8980    0.8470 cc        1 X14     -0.183900
      8 C08        -4.6990   -2.5980    0.3860 c3        1 X14     -0.103700
      9 C09        -5.5900   -1.3710    0.5070 c3        1 X14     -0.077400
     10 C10        -5.0550   -0.1890   -0.2970 c3        1 X14     -0.053700
     11 C11        -3.7340    0.2940    0.3060 c3        1 X14     -0.013100
     12 C12        -6.0910    0.9490   -0.4180 c3        1 X14     -0.045000
     13 C13        -0.4980    0.2120    0.9090 c         1 X14      0.704700
     14 C14         1.5790    1.0970    1.9040 c3        1 X14      0.127300
     15 C15         2.7990    0.8110    1.0700 ca        1 X14     -0.059300
     16 C16         2.7030    0.8160   -0.3260 ca        1 X14     -0.146500
     17 C17         3.8350    0.5780   -1.1010 ca        1 X14     -0.020500
     18 C18         5.0780    0.3380   -0.5030 ca        1 X14     -0.380500
     19 C19         5.1600    0.3320    0.8940 ca        1 X14     -0.020500
     20 C20         4.0330    0.5640    1.6780 ca        1 X14     -0.146500
     21 C21        -6.7600    1.2220    0.9190 c3        1 X14     -0.088100
     22 C22        -5.4030    2.2240   -0.8940 c3        1 X14     -0.088100
     23 C23        -7.1330    0.5350   -1.4670 c3        1 X14     -0.074400
     24 C24        -8.3690    1.3970   -1.4930 c3        1 X14     -0.092100
     25 O25        -0.6340    1.2300    0.2010 o         1 X14     -0.594100
     26 O26         6.0230   -0.5610   -2.6610 o         1 X14     -0.657800
     27 O27         7.3720   -0.6920   -0.6610 o         1 X14     -0.657800
     28 S28         6.4460    0.0250   -1.4490 sy        1 X14      1.526200
     29 HN01       -0.2650   -2.6620    1.0850 hn        1 X14      0.318700
     30 HN03        0.6740   -0.7340    2.3260 hn        1 X14      0.313500
     31 HN04        7.6940    1.9390   -1.1720 hn        1 X14      0.448300
     32 HN0A        6.7760    2.0260   -2.5360 hn        1 X14      0.448300
     33 H08        -4.7870   -3.0360   -0.6450 hc        1 X14      0.060200
     34 H08A       -5.0360   -3.3810    1.1150 hc        1 X14      0.060200
     35 H09        -6.6190   -1.6450    0.1580 hc        1 X14      0.048200
     36 H09A       -5.6680   -1.0770    1.5870 hc        1 X14      0.048200
     37 H10        -4.8350   -0.5500   -1.3430 hc        1 X14      0.053700
     38 H11        -3.9330    0.8510    1.2630 hc        1 X14      0.069200
     39 H11A       -3.2200    1.0060   -0.3960 hc        1 X14      0.069200
     40 H14         1.1530    2.0910    1.5720 h1        1 X14      0.074700
     41 H14A        1.8790    1.1830    2.9890 h1        1 X14      0.074700
     42 H16         1.7280    1.0130   -0.8030 ha        1 X14      0.150500
     43 H17         3.7520    0.5600   -2.2020 ha        1 X14      0.154500
     44 H19         6.1300    0.1200    1.3770 ha        1 X14      0.154500
     45 H20         4.1180    0.5530    2.7760 ha        1 X14      0.150500
     46 H21        -5.9950    1.3270    1.7260 hc        1 X14      0.036200
     47 H21A       -7.3490    2.1700    0.8680 hc        1 X14      0.036200
     48 H21B       -7.4540    0.3900    1.1900 hc        1 X14      0.036200
     49 H22        -4.7770    2.0170   -1.7950 hc        1 X14      0.036200
     50 H22A       -6.1620    2.9980   -1.1610 hc        1 X14      0.036200
     51 H22B       -4.7520    2.6440   -0.0900 hc        1 X14      0.036200
     52 H23        -6.6430    0.5600   -2.4770 hc        1 X14      0.038700
     53 H23A       -7.4470   -0.5260   -1.2790 hc        1 X14      0.038700
     54 H24        -8.9490    1.2940   -0.5440 hc        1 X14      0.033367
     55 H24A       -8.1110    2.4750   -1.6310 hc        1 X14      0.033367
     56 H24B       -9.0280    1.0860   -2.3400 hc        1 X14      0.033367
@<TRIPOS>BOND
     1    1    2 1   
     2    1    7 1   
     3    1   29 1   
     4    2    5 2   
     5    3   13 1   
     6    3   14 1   
     7    3   30 1   
     8    4   28 1   
     9    4   31 1   
    10    4   32 1   
    11    5    6 1   
    12    5    8 1   
    13    6    7 2   
    14    6   11 1   
    15    7   13 1   
    16    8    9 1   
    17    8   33 1   
    18    8   34 1   
    19    9   10 1   
    20    9   35 1   
    21    9   36 1   
    22   10   11 1   
    23   10   12 1   
    24   10   37 1   
    25   11   38 1   
    26   11   39 1   
    27   12   21 1   
    28   12   22 1   
    29   12   23 1   
    30   13   25 2   
    31   14   15 1   
    32   14   40 1   
    33   14   41 1   
    34   15   16 ar  
    35   15   20 ar  
    36   16   17 ar  
    37   16   42 1   
    38   17   18 ar  
    39   17   43 1   
    40   18   19 ar  
    41   18   28 1   
    42   19   20 ar  
    43   19   44 1   
    44   20   45 1   
    45   21   46 1   
    46   21   47 1   
    47   21   48 1   
    48   22   49 1   
    49   22   50 1   
    50   22   51 1   
    51   23   24 1   
    52   23   52 1   
    53   23   53 1   
    54   24   54 1   
    55   24   55 1   
    56   24   56 1   
    57   26   28 2   
    58   27   28 2   
@<TRIPOS>SUBSTRUCTURE
     1 X14         1 TEMP              0 ****  ****    0 ROOT
