@<TRIPOS>MOLECULE
X15
   19    18     1     0     0
SMALL
bcc


@<TRIPOS>ATOM
      1 OAG         4.5780    0.0010    1.4520 o         1 X15     -0.938500
      2 PAO         3.9100   -0.0130    0.0950 p5        1 X15      1.334900
      3 OAH         3.9290    1.3350   -0.5730 o         1 X15     -0.938500
      4 OAF         4.3040   -1.2120   -0.7260 o         1 X15     -0.938500
      5 OAK         2.2670   -0.2780    0.6670 os        1 X15     -0.523500
      6 CAM         1.2900   -0.3850   -0.2090 c         1 X15      0.667100
      7 OAB         1.6020   -0.2660   -1.4090 o         1 X15     -0.645000
      8 CAL        -0.1150   -0.6260    0.3530 c3        1 X15      0.064100
      9 OAA        -0.4880   -1.9700    0.0820 oh        1 X15     -0.667800
     10 CAI        -1.1800    0.3560   -0.1950 c3        1 X15      0.196400
     11 OAJ        -2.2830    0.4050    0.6380 os        1 X15     -0.594200
     12 PAN        -3.7630   -0.1920    0.0180 p5        1 X15      1.329900
     13 OAD        -4.7170   -0.0250    1.1790 o         1 X15     -0.948500
     14 OAE        -4.0770    0.6880   -1.1660 o         1 X15     -0.948500
     15 OAC        -3.4110   -1.6230   -0.3210 o         1 X15     -0.948500
     16 HAL        -0.0600   -0.5090    1.4740 h1        1 X15      0.028700
     17 HAA        -1.4610   -1.9640   -0.0570 ho        1 X15      0.463000
     18 HAI1       -0.7080    1.3780   -0.2450 h1        1 X15      0.003700
     19 HAI2       -1.4800    0.0370   -1.2310 h1        1 X15      0.003700
@<TRIPOS>BOND
     1    1    2 1   
     2    2    3 1   
     3    2    4 1   
     4    2    5 1   
     5    5    6 1   
     6    6    7 2   
     7    6    8 1   
     8    8    9 1   
     9    8   10 1   
    10    8   16 1   
    11    9   17 1   
    12   10   11 1   
    13   10   18 1   
    14   10   19 1   
    15   11   12 1   
    16   12   13 1   
    17   12   14 1   
    18   12   15 1   
@<TRIPOS>SUBSTRUCTURE
     1 X15         1 TEMP              0 ****  ****    0 ROOT
