@<TRIPOS>MOLECULE
X15
   19    18     1     0     0
SMALL
bcc


@<TRIPOS>ATOM
      1 OAG         1.0900   -1.2510   -1.4850 o         1 X15     -0.938500
      2 PAO         1.8720   -0.6580   -0.3340 p5        1 X15      1.334900
      3 OAH         0.9920   -0.2630    0.8210 o         1 X15     -0.938500
      4 OAF         3.1240   -1.4360   -0.0310 o         1 X15     -0.938500
      5 OAK         2.3530    0.8290   -1.1430 os        1 X15     -0.523500
      6 CAM         3.1070    1.6960   -0.5000 c         1 X15      0.667100
      7 OAB         3.4140    1.4070    0.6710 o         1 X15     -0.645000
      8 CAL         3.5000    2.9650   -1.2650 c3        1 X15      0.064100
      9 OAA         4.8770    2.8810   -1.6050 oh        1 X15     -0.667800
     10 CAI         3.2080    4.2730   -0.4890 c3        1 X15      0.196400
     11 OAJ         3.1490    5.3550   -1.3470 os        1 X15     -0.594200
     12 PAN         4.3650    6.5500   -1.1920 p5        1 X15      1.329900
     13 OAD         4.0230    7.5370   -2.2830 o         1 X15     -0.948500
     14 OAE         4.2020    7.0980    0.2050 o         1 X15     -0.948500
     15 OAC         5.6280    5.7500   -1.4230 o         1 X15     -0.948500
     16 HAL         2.9140    2.9800   -2.2280 h1        1 X15      0.028700
     17 HAA         5.2230    3.8020   -1.5840 ho        1 X15      0.463000
     18 HAI1        4.0060    4.4280    0.2900 h1        1 X15      0.003700
     19 HAI2        2.2120    4.1510    0.0240 h1        1 X15      0.003700
@<TRIPOS>BOND
     1    1    2 1   
     2    2    3 1   
     3    2    4 1   
     4    2    5 1   
     5    5    6 1   
     6    6    7 2   
     7    6    8 1   
     8    8    9 1   
     9    8   10 1   
    10    8   16 1   
    11    9   17 1   
    12   10   11 1   
    13   10   18 1   
    14   10   19 1   
    15   11   12 1   
    16   12   13 1   
    17   12   14 1   
    18   12   15 1   
@<TRIPOS>SUBSTRUCTURE
     1 X15         1 TEMP              0 ****  ****    0 ROOT
