@<TRIPOS>MOLECULE
X15
   19    18     1     0     0
SMALL
bcc


@<TRIPOS>ATOM
      1 OAG         1.1510   -1.2910   -1.4310 o         1 X15     -0.938500
      2 PAO         1.9030   -0.6630   -0.2780 p5        1 X15      1.334900
      3 OAH         0.9950   -0.2520    0.8490 o         1 X15     -0.938500
      4 OAF         3.1570   -1.4200    0.0690 o         1 X15     -0.938500
      5 OAK         2.3850    0.8100   -1.1110 os        1 X15     -0.523500
      6 CAM         3.1150    1.7010   -0.4730 c         1 X15      0.667100
      7 OAB         3.4010    1.4420    0.7110 o         1 X15     -0.645000
      8 CAL         3.5100    2.9560   -1.2590 c3        1 X15      0.064100
      9 OAA         4.8950    2.8800   -1.5690 oh        1 X15     -0.667800
     10 CAI         3.1890    4.2780   -0.5190 c3        1 X15      0.196400
     11 OAJ         3.1370    5.3400   -1.4030 os        1 X15     -0.594200
     12 PAN         4.3360    6.5510   -1.2510 p5        1 X15      1.329900
     13 OAD         4.0060    7.5100   -2.3710 o         1 X15     -0.948500
     14 OAE         4.1390    7.1280    0.1290 o         1 X15     -0.948500
     15 OAC         5.6110    5.7600   -1.4390 o         1 X15     -0.948500
     16 HAL         2.9440    2.9420   -2.2340 h1        1 X15      0.028700
     17 HAA         5.2310    3.8040   -1.5630 ho        1 X15      0.463000
     18 HAI1        3.9690    4.4600    0.2710 h1        1 X15      0.003700
     19 HAI2        2.1840    4.1570   -0.0240 h1        1 X15      0.003700
@<TRIPOS>BOND
     1    1    2 1   
     2    2    3 1   
     3    2    4 1   
     4    2    5 1   
     5    5    6 1   
     6    6    7 2   
     7    6    8 1   
     8    8    9 1   
     9    8   10 1   
    10    8   16 1   
    11    9   17 1   
    12   10   11 1   
    13   10   18 1   
    14   10   19 1   
    15   11   12 1   
    16   12   13 1   
    17   12   14 1   
    18   12   15 1   
@<TRIPOS>SUBSTRUCTURE
     1 X15         1 TEMP              0 ****  ****    0 ROOT
