@<TRIPOS>MOLECULE
X16
   52    53     1     0     0
SMALL
bcc


@<TRIPOS>ATOM
      1 C1       -145.5610    1.3180 -113.4350 c3        1 X16     -0.161100
      2 C2       -144.8640    2.0990 -112.3380 c3        1 X16      0.121100
      3 C3       -145.7380    2.2230 -111.0730 c3        1 X16      0.035500
      4 C4       -145.0820    2.9570 -109.8680 c         1 X16      0.649100
      5 N5       -143.7630    3.2520 -109.8860 nt        1 X16     -0.608000
      6 O6       -144.5780    3.4300 -112.7410 oh        1 X16     -0.627800
      7 N7       -147.0340    2.9180 -111.3700 nz        1 X16     -0.831600
      8 O8       -145.8370    3.2080 -108.9040 o         1 X16     -0.596100
      9 S9         96.8610    2.4930   72.7330 s4        1 X16      1.661300
     10 O10        97.6390    3.1900   73.5900 o         1 X16     -0.393900
     11 O11        97.3340    1.4640   71.9970 o         1 X16     -0.393900
     12 C12        95.3820    2.8830   72.5960 ca        1 X16     -0.643500
     13 C13        94.8180    3.9470   73.3600 ca        1 X16      0.033000
     14 C14        93.4880    4.2960   73.2270 ca        1 X16     -0.149000
     15 C15        92.6620    3.6080   72.3310 ca        1 X16      0.051000
     16 C16        93.1770    2.5490   71.5560 cp        1 X16     -0.029000
     17 C17        94.5150    2.1990   71.6960 ca        1 X16      0.034000
     18 C18        92.3150    1.8380   70.6120 cp        1 X16     -0.067000
     19 C19        92.3970    0.4250   70.5140 ca        1 X16     -0.162000
     20 C20        91.5920   -0.2550   69.6310 ca        1 X16     -0.055000
     21 C21        90.6780    0.4330   68.8050 ca        1 X16     -0.303600
     22 C22        90.5860    1.8570   68.8880 ca        1 X16      0.461600
     23 C23        91.4310    2.5420   69.8210 ca        1 X16     -0.153300
     24 N24        89.7220    2.5890   68.1090 nb        1 X16     -0.746000
     25 C25        88.9460    1.9000   67.2450 ca        1 X16      0.728300
     26 N26        88.9360    0.5300   67.0760 nb        1 X16     -0.782000
     27 C27        89.7880   -0.2080   67.8320 ca        1 X16      0.731200
     28 N28        89.8270   -1.5670   67.6440 nv        1 X16     -0.954500
     29 C29        87.9860    2.6770   66.3740 c3        1 X16     -0.142400
     30 H1       -145.9890    0.3670 -113.0350 hc        1 X16      0.071367
     31 H1A      -146.3710    1.9200 -113.9140 hc        1 X16      0.071367
     32 H1B      -144.8220    1.0530 -114.2340 hc        1 X16      0.071367
     33 H2       -143.9120    1.5660 -112.0470 h1        1 X16      0.093700
     34 H3       -145.9810    1.1770 -110.7080 hx        1 X16      0.139700
     35 HN5      -143.2280    3.2000 -110.7190 hn        1 X16      0.346500
     36 HO6      -144.0930    3.3900 -113.5780 ho        1 X16      0.454000
     37 HN7      -147.6370    2.3120 -111.9300 hn        1 X16      0.475133
     38 HN7A     -147.4950    3.1570 -110.4760 hn        1 X16      0.475133
     39 H13        95.4650    4.4990   74.0690 ha        1 X16      0.178000
     40 H14        93.0720    5.1230   73.8310 ha        1 X16      0.188000
     41 H15        91.5960    3.8900   72.2290 ha        1 X16      0.189000
     42 H17        94.9220    1.3680   71.0850 ha        1 X16      0.182000
     43 H19        93.0960   -0.1240   71.1610 ha        1 X16      0.131000
     44 H20        91.6790   -1.3520   69.5800 ha        1 X16      0.140000
     45 H23        91.3660    3.6410   69.8780 ha        1 X16      0.155000
     46 HN28       90.3090   -2.1350   68.2920 hn        1 X16      0.447300
     47 HN2A       89.1860   -2.0000   67.0200 hn        1 X16      0.447300
     48 H29        86.9420    2.3290   66.5700 hc        1 X16      0.072367
     49 H29A       88.0500    3.7730   66.5780 hc        1 X16      0.072367
     50 H29B       88.2310    2.4920   65.2980 hc        1 X16      0.072367
     51 H52      -143.3600    3.6910 -109.0870 hn        1 X16      0.346500
     52 H73      -146.8370    3.7810 -111.8930 hn        1 X16      0.475133
@<TRIPOS>BOND
     1    1    2 1   
     2    1   30 1   
     3    1   31 1   
     4    1   32 1   
     5    2    3 1   
     6    2    6 1   
     7    2   33 1   
     8    3    4 1   
     9    3    7 1   
    10    3   34 1   
    11    4    5 1   
    12    4    8 2   
    13    5   35 1   
    14    5   51 1   
    15    6   36 1   
    16    7   37 1   
    17    7   38 1   
    18    7   52 1   
    19    9   10 1   
    20    9   11 1   
    21    9   12 1   
    22   12   13 ar  
    23   12   17 ar  
    24   13   14 ar  
    25   13   39 1   
    26   14   15 ar  
    27   14   40 1   
    28   15   16 ar  
    29   15   41 1   
    30   16   17 ar  
    31   16   18 1   
    32   17   42 1   
    33   18   19 ar  
    34   18   23 ar  
    35   19   20 ar  
    36   19   43 1   
    37   20   21 ar  
    38   20   44 1   
    39   21   22 ar  
    40   21   27 ar  
    41   22   23 ar  
    42   22   24 ar  
    43   23   45 1   
    44   24   25 ar  
    45   25   26 ar  
    46   25   29 1   
    47   26   27 ar  
    48   27   28 1   
    49   28   46 1   
    50   28   47 1   
    51   29   48 1   
    52   29   49 1   
    53   29   50 1   
@<TRIPOS>SUBSTRUCTURE
     1 X16         1 TEMP              0 ****  ****    0 ROOT
