@<TRIPOS>MOLECULE
X16
   50    52     1     0     0
SMALL
bcc


@<TRIPOS>ATOM
      1 C1         -6.1130    2.8220    2.0530 c3        1 X16     -0.131100
      2 C2         -5.2640    2.3230    0.8990 c3        1 X16      0.153100
      3 C3         -3.8530    1.9100    1.4070 c3        1 X16      0.074500
      4 C4         -3.1690    1.0090    0.3520 c         1 X16      0.655100
      5 N5         -3.7030   -0.2540    0.1150 n         1 X16     -0.667300
      6 O6         -5.1850    3.2690   -0.1480 oh        1 X16     -0.586800
      7 N7         -3.0530    3.0490    1.7920 n3        1 X16     -0.887800
      8 O8         -2.1430    1.3750   -0.2460 o         1 X16     -0.584100
      9 S9         -3.2280   -1.4000   -0.9870 sy        1 X16      1.510900
     10 O10        -4.1810   -2.4380   -0.8760 o         1 X16     -0.638800
     11 O11        -3.0500   -0.8440   -2.2580 o         1 X16     -0.638800
     12 C12        -1.7580   -1.9380   -0.3840 ca        1 X16     -0.398500
     13 C13        -1.6760   -3.1650    0.2900 ca        1 X16     -0.013000
     14 C14        -0.4520   -3.6450    0.7420 ca        1 X16     -0.161000
     15 C15         0.7110   -2.9060    0.5280 ca        1 X16     -0.048000
     16 C16         0.6530   -1.6760   -0.1430 cp        1 X16     -0.070000
     17 C17        -0.5860   -1.2030   -0.5910 ca        1 X16      0.010000
     18 C18         1.8710   -0.8970   -0.3710 cp        1 X16     -0.011000
     19 C19         2.0440   -0.2170   -1.6050 ca        1 X16     -0.135000
     20 C20         3.1800    0.5180   -1.8450 ca        1 X16     -0.085000
     21 C21         4.1990    0.6110   -0.8720 ca        1 X16     -0.297600
     22 C22         4.0390   -0.0590    0.3790 ca        1 X16      0.447600
     23 C23         2.8470   -0.8170    0.6020 ca        1 X16     -0.176300
     24 N24         4.9960    0.0050    1.3730 nb        1 X16     -0.734000
     25 C25         6.0980    0.7260    1.1110 ca        1 X16      0.696300
     26 N26         6.3750    1.4070   -0.0640 nb        1 X16     -0.792000
     27 C27         5.4410    1.3680   -1.0410 ca        1 X16      0.705200
     28 N28         5.6480    2.1070   -2.1940 nh        1 X16     -0.947500
     29 C29         7.1630    0.8180    2.1800 c3        1 X16     -0.135400
     30 H1         -7.1130    3.1380    1.6690 hc        1 X16      0.053033
     31 H1A        -6.2540    2.0120    2.8070 hc        1 X16      0.053033
     32 H1B        -5.6310    3.6960    2.5530 hc        1 X16      0.053033
     33 H2         -5.7590    1.4310    0.4170 h1        1 X16      0.073700
     34 H3         -4.0040    1.2810    2.3370 h1        1 X16      0.079700
     35 HN5        -4.5030   -0.4660    0.6730 hn        1 X16      0.333500
     36 HO6        -5.0300    4.1380    0.2450 ho        1 X16      0.409000
     37 HN7        -2.1660    2.7450    2.1470 hn        1 X16      0.367300
     38 HN7A       -2.8930    3.6450    1.0000 hn        1 X16      0.367300
     39 H13        -2.5950   -3.7590    0.4460 ha        1 X16      0.160000
     40 H14        -0.3990   -4.6120    1.2650 ha        1 X16      0.145000
     41 H15         1.6820   -3.2920    0.8810 ha        1 X16      0.146000
     42 H17        -0.6470   -0.2260   -1.1110 ha        1 X16      0.176000
     43 H19         1.2560   -0.2880   -2.3710 ha        1 X16      0.147000
     44 H20         3.2750    1.0410   -2.8080 ha        1 X16      0.131000
     45 H23         2.7190   -1.3280    1.5690 ha        1 X16      0.153000
     46 HN28        6.5440    2.5110   -2.3390 hn        1 X16      0.427300
     47 HN2A        5.1520    1.8270   -3.0050 hn        1 X16      0.427300
     48 H29         8.1290    0.4220    1.7800 hc        1 X16      0.061367
     49 H29A        7.3040    1.8880    2.4710 hc        1 X16      0.061367
     50 H29B        6.8780    0.2300    3.0860 hc        1 X16      0.061367
@<TRIPOS>BOND
     1    1    2 1   
     2    1   30 1   
     3    1   31 1   
     4    1   32 1   
     5    2    3 1   
     6    2    6 1   
     7    2   33 1   
     8    3    4 1   
     9    3    7 1   
    10    3   34 1   
    11    4    5 1   
    12    4    8 2   
    13    5    9 1   
    14    5   35 1   
    15    6   36 1   
    16    7   37 1   
    17    7   38 1   
    18    9   10 2   
    19    9   11 2   
    20    9   12 1   
    21   12   13 ar  
    22   12   17 ar  
    23   13   14 ar  
    24   13   39 1   
    25   14   15 ar  
    26   14   40 1   
    27   15   16 ar  
    28   15   41 1   
    29   16   17 ar  
    30   16   18 1   
    31   17   42 1   
    32   18   19 ar  
    33   18   23 ar  
    34   19   20 ar  
    35   19   43 1   
    36   20   21 ar  
    37   20   44 1   
    38   21   22 ar  
    39   21   27 ar  
    40   22   23 ar  
    41   22   24 ar  
    42   23   45 1   
    43   24   25 ar  
    44   25   26 ar  
    45   25   29 1   
    46   26   27 ar  
    47   27   28 1   
    48   28   46 1   
    49   28   47 1   
    50   29   48 1   
    51   29   49 1   
    52   29   50 1   
@<TRIPOS>SUBSTRUCTURE
     1 X16         1 TEMP              0 ****  ****    0 ROOT
