@<TRIPOS>MOLECULE
X16
   53    54     1     0     0
SMALL
bcc


@<TRIPOS>ATOM
      1 C1       -407.1840 -290.9800 -462.2480 c3        1 X16     -0.161100
      2 C2       -406.0130 -291.3060 -461.3420 c3        1 X16      0.121100
      3 C3       -404.9530 -292.1690 -462.0560 c3        1 X16      0.035500
      4 C4       -403.6810 -292.5030 -461.2230 c         1 X16      0.649100
      5 N5       -403.4540 -291.8790 -460.0460 n         1 X16     -0.608000
      6 O6       -406.4190 -292.0550 -460.2060 oh        1 X16     -0.627800
      7 N7       -405.5330 -293.4690 -462.5270 n4        1 X16     -0.831600
      8 O8       -402.8990 -293.3350 -461.7310 o         1 X16     -0.596100
      9 S9        237.5740  171.2930  262.7070 s4        1 X16      1.659300
     10 O10       238.6760  172.0510  262.5560 o         1 X16     -0.374900
     11 O11       236.3160  171.7770  262.7310 o         1 X16     -0.374900
     12 C12       237.7550  169.7590  262.8650 ca        1 X16     -0.624500
     13 C13       239.0480  169.1650  262.8630 ca        1 X16      0.056000
     14 C14       239.2070  167.7960  263.0030 ca        1 X16     -0.142000
     15 C15       238.0920  166.9670  263.1490 ca        1 X16      0.048000
     16 C16       236.7940  167.5170  263.1580 cp        1 X16     -0.070000
     17 C17       236.6380  168.8910  263.0190 ca        1 X16      0.044000
     18 C18       235.6260  166.6440  263.3210 cp        1 X16     -0.030000
     19 C19       235.5550  165.4310  262.5770 ca        1 X16     -0.078000
     20 C20       234.4820  164.5850  262.7140 ca        1 X16     -0.117000
     21 C21       233.4260  164.9040  263.6000 ca        1 X16     -0.255600
     22 C22       233.4760  166.1240  264.3560 ca        1 X16      0.448600
     23 C23       234.6120  166.9850  264.1890 ca        1 X16     -0.130300
     24 N24       232.4760  166.4860  265.2290 nb        1 X16     -0.634000
     25 C25       231.4270  165.6600  265.3720 ca        1 X16      0.714300
     26 N26       231.2800  164.4470  264.6870 nb        1 X16     -0.658000
     27 C27       232.2500  164.1060  263.8440 ca        1 X16      0.529200
     28 N28       232.0890  162.8200  263.1220 n4        1 X16     -0.834300
     29 C29       230.3110  166.0200  266.3210 c3        1 X16     -0.151400
     30 H1       -406.8280 -290.6070 -463.2380 hc        1 X16      0.071367
     31 H1A      -407.8070 -290.1760 -461.7800 hc        1 X16      0.071367
     32 H1B      -407.8430 -291.8700 -462.3990 hc        1 X16      0.071367
     33 H2       -405.5130 -290.3460 -461.0170 h1        1 X16      0.093700
     34 H3       -404.5890 -291.5990 -462.9670 hx        1 X16      0.139700
     35 HN5      -404.1620 -291.3590 -459.5860 hn        1 X16      0.346500
     36 HO6      -407.1410 -291.5760 -459.7750 ho        1 X16      0.454000
     37 HN7      -404.7620 -294.0930 -462.8170 hn        1 X16      0.475133
     38 HN7A     -406.1700 -293.3050 -463.3110 hn        1 X16      0.475133
     39 H13       239.9420  169.8110  262.7470 ha        1 X16      0.192000
     40 H14       240.2230  167.3570  263.0020 ha        1 X16      0.200000
     41 H15       238.2290  165.8750  263.2660 ha        1 X16      0.182000
     42 H17       235.6190  169.3290  263.0250 ha        1 X16      0.180000
     43 H19       236.3720  165.1800  261.8800 ha        1 X16      0.165000
     44 H20       234.4570  163.6570  262.1220 ha        1 X16      0.140000
     45 H23       234.6540  167.9160  264.7820 ha        1 X16      0.179000
     46 HN28      232.8790  162.2070  263.3560 hn        1 X16      0.481800
     47 HN2A      232.0800  163.0050  262.1120 hn        1 X16      0.481800
     48 H29       230.2200  165.2290  267.1090 hc        1 X16      0.097033
     49 H29A      230.5090  167.0040  266.8160 hc        1 X16      0.097033
     50 H29B      229.3450  166.0830  265.7590 hc        1 X16      0.097033
     51 H52      -402.6150 -292.0860 -459.5490 hn        1 X16      0.346500
     52 H73      -406.0510 -293.9030 -461.7530 hn        1 X16      0.475133
     53 H283      231.2070  162.3530  263.3890 hn        1 X16      0.481800
@<TRIPOS>BOND
     1    1    2 1   
     2    1   30 1   
     3    1   31 1   
     4    1   32 1   
     5    2    3 1   
     6    2    6 1   
     7    2   33 1   
     8    3    4 1   
     9    3    7 1   
    10    3   34 1   
    11    4    5 1   
    12    4    8 2   
    13    5   35 1   
    14    5   51 1   
    15    6   36 1   
    16    7   37 1   
    17    7   38 1   
    18    7   52 1   
    19    9   10 1   
    20    9   11 1   
    21    9   12 1   
    22   12   13 ar  
    23   12   17 ar  
    24   13   14 ar  
    25   13   39 1   
    26   14   15 ar  
    27   14   40 1   
    28   15   16 ar  
    29   15   41 1   
    30   16   17 ar  
    31   16   18 1   
    32   17   42 1   
    33   18   19 ar  
    34   18   23 ar  
    35   19   20 ar  
    36   19   43 1   
    37   20   21 ar  
    38   20   44 1   
    39   21   22 ar  
    40   21   27 ar  
    41   22   23 ar  
    42   22   24 ar  
    43   23   45 1   
    44   24   25 ar  
    45   25   26 ar  
    46   25   29 1   
    47   26   27 ar  
    48   27   28 1   
    49   28   46 1   
    50   28   47 1   
    51   28   53 1   
    52   29   48 1   
    53   29   49 1   
    54   29   50 1   
@<TRIPOS>SUBSTRUCTURE
     1 X16         1 TEMP              0 ****  ****    0 ROOT
