@<TRIPOS>MOLECULE
X17
   57    60     1     0     0
SMALL
bcc


@<TRIPOS>ATOM
      1 C1          0.3040   -0.2240   -0.0280 c3        1 X17     -0.193000
      2 N1          3.3170   -2.1190    3.4490 n2        1 X17     -0.228000
      3 O1          1.8570   -0.0450   -2.3560 os        1 X17     -0.204000
      4 C2          1.7790   -0.1670   -0.0060 c2        1 X17     -0.025000
      5 N2          5.8910   -0.4830    2.7480 n2        1 X17     -0.394000
      6 O2          3.6130   -0.2940    4.9830 oh        1 X17     -0.354000
      7 C3          2.4550   -0.1610    1.2680 c2        1 X17     -0.106000
      8 N3          7.4930   -2.1550    2.3280 n8        1 X17     -0.372000
      9 C4          3.8080   -0.1290    1.3760 c2        1 X17     -0.152000
     10 C5          4.6400   -0.1650    0.1440 c3        1 X17     -0.180000
     11 C6          3.9610   -0.0950   -1.1370 c1        1 X17     -0.109000
     12 C7          2.5380   -0.0980   -1.1580 c2        1 X17     -0.013000
     13 C8          2.6900   -0.0510   -3.5200 c3        1 X17     -0.059000
     14 C9          4.5020   -0.0550    2.7270 c3        1 X17      0.173000
     15 C10         3.7080   -0.9300    3.7470 c2        1 X17      0.064000
     16 C11         6.2120   -1.6860    2.3240 c2        1 X17      0.134000
     17 C13         4.4970    1.4490    3.2030 c3        1 X17     -0.095000
     18 C14         3.0710    2.0350    3.3490 c3        1 X17     -0.143000
     19 C15         3.1340    3.4640    3.8700 c3        1 X17     -0.126500
     20 C16         3.8930    4.3380    2.8770 c3        1 X17     -0.161000
     21 C17         5.3080    3.7940    2.7170 c3        1 X17     -0.126500
     22 C18         5.2560    2.3640    2.1950 c3        1 X17     -0.143000
     23 C19         6.0260    3.8390    4.0590 c3        1 X17     -0.143000
     24 C20         5.2640    2.9540    5.0700 c3        1 X17     -0.198000
     25 C21         3.8320    3.5000    5.2220 c3        1 X17     -0.143000
     26 C22         5.1910    1.6060    4.4920 c2        1 X17      0.366000
     27 H1         -0.0990   -0.7500    0.8710 hc        1 X17      0.104000
     28 H1A        -0.0500   -0.7550   -0.9500 hc        1 X17      0.104000
     29 H1B        -0.1140    0.8150   -0.0520 hc        1 X17      0.104000
     30 H3          1.8060   -0.1790    2.1600 ha        1 X17      0.135000
     31 HN3         5.4690   -2.4300    1.9310 h5        1 X17      0.158000
     32 HN3A        7.6710   -3.0660    1.9850 hn        1 X17      0.242500
     33 H5          5.2050   -1.1500    0.0930 hc        1 X17      0.165000
     34 H6          5.4340    0.6380    0.1640 hc        1 X17      0.165000
     35 H8          3.3540    0.8460   -3.5240 h1        1 X17      0.092000
     36 H8A         3.3040   -0.9830   -3.5520 h1        1 X17      0.092000
     37 H8B         1.9510   -0.0180   -4.3600 h1        1 X17      0.092000
     38 H12         2.5670   -3.9840    3.8680 h1        1 X17      0.099000
     39 H12A        1.6120   -2.6170    4.6020 h1        1 X17      0.099000
     40 H12B        3.2070   -3.1120    5.3360 h1        1 X17      0.099000
     41 H14         3.1410   -0.8510    5.6200 ho        1 X17      0.245000
     42 H14A        2.4650    1.3910    4.0380 hc        1 X17      0.128500
     43 H15         2.5840    2.0230    2.3380 hc        1 X17      0.128500
     44 H16         2.0850    3.8530    3.9880 hc        1 X17      0.140500
     45 H16A        3.3690    4.3360    1.8870 hc        1 X17      0.111000
     46 H17         3.9280    5.3960    3.2450 hc        1 X17      0.111000
     47 H18         5.8730    4.4270    1.9780 hc        1 X17      0.140500
     48 H18A        4.6950    2.3300    1.2250 hc        1 X17      0.128500
     49 H19         6.2910    1.9760    2.0190 hc        1 X17      0.128500
     50 H19A        7.0820    3.4820    3.9600 hc        1 X17      0.121000
     51 H20         6.0480    4.8860    4.4600 hc        1 X17      0.121000
     52 H21         5.7900    2.9670    6.0640 hc        1 X17      0.151000
     53 H21A        3.8940    4.5520    5.6050 hc        1 X17      0.121000
     54 H22         3.2720    2.8880    5.9740 hc        1 X17      0.121000
     55 H22A        5.6690    0.7460    5.0020 ha        1 X17      0.200000
     56 H33         8.2580   -1.6050    2.6310 hn        1 X17      0.242500
     57 C12         2.6500   -2.9810    4.3680 c3        1 X17     -0.159000
@<TRIPOS>BOND
     1    1    4 1   
     2    1   27 1   
     3    1   28 1   
     4    1   29 1   
     5    2   15 1   
     6    2   57 1   
     7    3   12 1   
     8    3   13 1   
     9    4    7 1   
    10    4   12 1   
    11    5   14 1   
    12    5   16 1   
    13    6   15 1   
    14    6   41 1   
    15    7    9 1   
    16    7   30 1   
    17    8   16 1   
    18    8   32 1   
    19    8   56 1   
    20    9   10 1   
    21    9   14 1   
    22   10   11 1   
    23   10   33 1   
    24   10   34 1   
    25   11   12 1   
    26   13   35 1   
    27   13   36 1   
    28   13   37 1   
    29   14   15 1   
    30   14   17 1   
    31   16   31 1   
    32   17   18 1   
    33   17   22 1   
    34   17   26 1   
    35   18   19 1   
    36   18   42 1   
    37   18   43 1   
    38   19   20 1   
    39   19   25 1   
    40   19   44 1   
    41   20   21 1   
    42   20   45 1   
    43   20   46 1   
    44   21   22 1   
    45   21   23 1   
    46   21   47 1   
    47   22   48 1   
    48   22   49 1   
    49   23   24 1   
    50   23   50 1   
    51   23   51 1   
    52   24   25 1   
    53   24   26 1   
    54   24   52 1   
    55   25   53 1   
    56   25   54 1   
    57   26   55 1   
    58   38   57 1   
    59   39   57 1   
    60   40   57 1   
@<TRIPOS>SUBSTRUCTURE
     1 X17         1 TEMP              0 ****  ****    0 ROOT
