@<TRIPOS>MOLECULE
X17
   56    57     1     0     0
SMALL
bcc


@<TRIPOS>ATOM
      1 C1         -4.0420   -0.2550   -2.0550 c3        1 X17     -0.167000
      2 N1          0.5130   -2.5290    2.1890 n         1 X17     -0.333000
      3 O1         -2.4820    0.2500   -4.4320 os        1 X17     -0.209000
      4 C2         -2.5670   -0.2850   -2.0660 c2        1 X17     -0.096000
      5 N2          1.6470   -1.3240    0.4650 n1        1 X17     -0.255000
      6 O2         -1.5560   -1.3040    2.0120 o         1 X17     -0.320000
      7 C3         -1.8080   -0.2590   -0.8970 c1        1 X17     -0.098000
      8 N3          2.4860   -3.5730    1.0550 n3        1 X17     -0.305000
      9 C4         -0.4120   -0.3260   -0.9680 c1        1 X17     -0.099000
     10 C5          0.2100   -0.4180   -2.1970 c1        1 X17     -0.071000
     11 C6         -0.5610   -0.4430   -3.3800 c1        1 X17     -0.212000
     12 C7         -1.9360   -0.3770   -3.3070 c2        1 X17      0.080000
     13 C8         -2.6300   -0.5940   -5.5340 c3        1 X17     -0.076000
     14 C9          0.5470   -0.5330    0.5390 c2        1 X17      0.062000
     15 C10        -0.3560   -1.3820    1.8140 c2        1 X17      0.293000
     16 C11         1.6610   -2.4060    1.3430 c2        1 X17      0.166000
     17 C12         0.0980   -3.7000    2.8580 c3        1 X17     -0.067000
     18 C13         0.6780    0.3340    0.7610 c3        1 X17     -0.015000
     19 C14        -0.0890    0.7170    0.9110 c3        1 X17     -0.151333
     20 C15        -0.0810    2.3680    1.2630 c3        1 X17     -0.099000
     21 C16         0.6440    2.9060    0.4260 c3        1 X17     -0.149667
     22 C17         1.7820    2.3060    0.1610 c3        1 X17     -0.099000
     23 C18         1.4540    0.8570   -0.0430 c3        1 X17     -0.151333
     24 C19         2.6540    2.4170    1.4010 c3        1 X17     -0.149667
     25 C20         1.8170    1.8380    2.5770 c3        1 X17     -0.099000
     26 C21         0.5620    2.5490    2.6200 c3        1 X17     -0.149667
     27 C22         1.5150    0.3770    2.2700 c3        1 X17     -0.151333
     28 H1         -4.3840   -0.7680   -2.8130 hc        1 X17      0.085667
     29 H1A        -4.3590   -0.6360   -1.2490 hc        1 X17      0.085667
     30 H1B        -4.3440    0.6530   -2.1200 hc        1 X17      0.085667
     31 H3         -2.2640   -0.1940   -0.0040 ha        1 X17      0.160000
     32 HN3         3.3870   -3.4910    1.0240 hn        1 X17      0.204000
     33 HN3A        2.1010   -4.4030    1.0020 hn        1 X17      0.204000
     34 H5          1.1690   -0.4640   -2.2480 ha        1 X17      0.150000
     35 H6         -0.1010   -0.5120   -4.2880 ha        1 X17      0.136000
     36 H8         -3.5470   -0.4590   -5.9410 h1        1 X17      0.083000
     37 H8A        -1.9500   -0.3860   -6.1950 h1        1 X17      0.083000
     38 H8B        -2.5340   -1.5230   -5.2490 h1        1 X17      0.083000
     39 H12        -0.5640   -3.4640    3.5580 h1        1 X17      0.089667
     40 H12A        0.8720   -4.1270    3.2730 h1        1 X17      0.089667
     41 H12B       -0.3270   -4.3440    2.1880 h1        1 X17      0.089667
     42 H14        -0.6610    0.5810    0.1020 hc        1 X17      0.092000
     43 H14A       -0.5170    0.2490    1.6700 hc        1 X17      0.092000
     44 H15        -1.0100    2.7520    1.2430 hc        1 X17      0.087000
     45 H16         0.8510    3.8420    0.7490 hc        1 X17      0.079833
     46 H16A        0.1360    2.9800   -0.4110 hc        1 X17      0.079833
     47 H17         2.2340    2.7060   -0.6550 hc        1 X17      0.087000
     48 H18         2.3170    0.3390   -0.0180 hc        1 X17      0.092000
     49 H18A        1.0620    0.7590   -0.9560 hc        1 X17      0.092000
     50 H19         2.8670    3.3360    1.5710 hc        1 X17      0.079833
     51 H19A        3.4480    1.9150    1.2890 hc        1 X17      0.079833
     52 H20         2.3140    1.9270    3.4550 hc        1 X17      0.087000
     53 H21         0.0020    2.1850    3.2970 hc        1 X17      0.079833
     54 H21A        0.7160    3.4660    2.7870 hc        1 X17      0.079833
     55 H22         0.9690    0.0090    2.9550 hc        1 X17      0.092000
     56 H22A        2.3680   -0.1390    2.2010 hc        1 X17      0.092000
@<TRIPOS>BOND
     1    1    4 1   
     2    1   28 1   
     3    1   29 1   
     4    1   30 1   
     5    2   15 1   
     6    2   16 1   
     7    2   17 1   
     8    3   12 1   
     9    3   13 1   
    10    4    7 1   
    11    4   12 1   
    12    5   16 1   
    13    6   15 1   
    14    7   31 1   
    15    8   16 1   
    16    8   32 1   
    17    8   33 1   
    18    9   10 1   
    19    9   14 1   
    20   10   34 1   
    21   11   12 1   
    22   11   35 1   
    23   13   36 1   
    24   13   37 1   
    25   13   38 1   
    26   14   15 1   
    27   14   18 1   
    28   17   39 1   
    29   17   40 1   
    30   17   41 1   
    31   18   19 1   
    32   18   23 1   
    33   18   27 1   
    34   19   20 1   
    35   19   42 1   
    36   19   43 1   
    37   20   21 1   
    38   20   26 1   
    39   20   44 1   
    40   21   22 1   
    41   21   45 1   
    42   21   46 1   
    43   22   23 1   
    44   22   24 1   
    45   22   47 1   
    46   23   48 1   
    47   23   49 1   
    48   24   25 1   
    49   24   50 1   
    50   24   51 1   
    51   25   26 1   
    52   25   27 1   
    53   25   52 1   
    54   26   53 1   
    55   26   54 1   
    56   27   55 1   
    57   27   56 1   
@<TRIPOS>SUBSTRUCTURE
     1 X17         1 TEMP              0 ****  ****    0 ROOT
