@<TRIPOS>MOLECULE
X17
   57    59     1     0     0
SMALL
bcc


@<TRIPOS>ATOM
      1 C1          0.0550   -1.1180   -0.3620 c3        1 X17     -0.051800
      2 N1          4.6890   -1.9440    3.8090 n         1 X17     -0.434300
      3 O1          1.5290   -0.4850   -2.5840 os        1 X17     -0.311900
      4 C2          1.4600   -0.6700   -0.2360 ca        1 X17     -0.088300
      5 N2          5.5160   -0.2560    2.4220 n2        1 X17     -0.519900
      6 O2          2.4070   -1.4650    3.8370 o         1 X17     -0.509500
      7 C3          2.0750   -0.5570    1.0070 ca        1 X17     -0.093000
      8 N3          7.1530   -1.8610    3.2990 n4        1 X17     -0.778600
      9 C4          3.4080   -0.1330    1.1280 ca        1 X17     -0.157300
     10 C5          4.1230    0.1950   -0.0290 ca        1 X17     -0.074000
     11 C6          3.5300    0.0910   -1.2850 ca        1 X17     -0.209000
     12 C7          2.2040   -0.3410   -1.3950 ca        1 X17      0.155100
     13 C8          2.2310   -0.1080   -3.7670 c3        1 X17      0.107700
     14 C9          4.0390   -0.0160    2.4940 c3        1 X17      0.156500
     15 C10         3.5250   -1.1830    3.4270 c         1 X17      0.695500
     16 C11         5.7800   -1.3330    3.1360 c2        1 X17      0.466800
     17 C13         3.7320    1.3590    3.2040 c3        1 X17      0.030200
     18 C14         2.2190    1.5800    3.2010 c3        1 X17     -0.106100
     19 C15         4.1830    4.7360    4.5930 c2        1 X17     -0.181200
     20 C16         5.1770    4.6700    3.4960 c3        1 X17     -0.049200
     21 C17         5.5640    3.2520    3.0780 c3        1 X17     -0.049700
     22 C18         4.3910    2.5150    2.4390 c3        1 X17     -0.072400
     23 C19         6.2540    2.5150    4.2150 c3        1 X17     -0.043200
     24 C20         5.3160    1.7750    5.0870 c2        1 X17     -0.135200
     25 C21         4.1150    5.7390    5.4660 c2        1 X17     -0.209000
     26 C22         4.1810    1.2450    4.6270 c2        1 X17     -0.216200
     27 H1         -0.3930   -1.3510    0.6340 hc        1 X17      0.058033
     28 H1A         0.0020   -2.0320   -1.0060 hc        1 X17      0.058033
     29 H1B        -0.5560   -0.3190   -0.8550 hc        1 X17      0.058033
     30 H3          1.4820   -0.7980    1.9070 ha        1 X17      0.159000
     31 HN3         7.1610   -2.8610    3.0590 hn        1 X17      0.481800
     32 HN3A        7.7980   -1.3500    2.6790 hn        1 X17      0.481800
     33 H5          5.1640    0.5510    0.0210 ha        1 X17      0.139000
     34 H6          4.1120    0.3590   -2.1790 ha        1 X17      0.150000
     35 H8          2.5210    0.9700   -3.7270 h1        1 X17      0.054033
     36 H8A         1.4770   -0.2870   -4.5770 h1        1 X17      0.054033
     37 H8B         3.1290   -0.7560   -3.9130 h1        1 X17      0.054033
     38 H12         4.9650   -4.0320    3.5880 h1        1 X17      0.068700
     39 H12A        5.4040   -3.3190    5.2210 h1        1 X17      0.068700
     40 H12B        3.6490   -3.4800    4.7320 h1        1 X17      0.068700
     41 H14         1.6850    0.7230    3.6770 hc        1 X17      0.060700
     42 H14A        1.8430    1.7060    2.1570 hc        1 X17      0.060700
     43 H15         1.9830    2.5070    3.7810 hc        1 X17      0.060700
     44 H16         3.4740    3.8910    4.6360 ha        1 X17      0.120000
     45 H16A        6.1120    5.2230    3.7880 hc        1 X17      0.054700
     46 H17         4.7530    5.2020    2.5980 hc        1 X17      0.054700
     47 H18         6.3400    3.3810    2.2650 hc        1 X17      0.047700
     48 H18A        4.7250    2.1390    1.4350 hc        1 X17      0.061200
     49 H19         3.5910    3.2790    2.2210 hc        1 X17      0.061200
     50 H19A        6.9950    1.7860    3.7850 hc        1 X17      0.045200
     51 H20         6.8420    3.2510    4.8280 hc        1 X17      0.045200
     52 H21         5.5930    1.6960    6.1510 ha        1 X17      0.134000
     53 H21A        3.3520    5.7760    6.2550 ha        1 X17      0.117500
     54 H22         4.8080    6.5900    5.4510 ha        1 X17      0.117500
     55 H22A        3.4810    0.7140    5.2950 ha        1 X17      0.139000
     56 H33         7.4430   -1.7360    4.2770 hn        1 X17      0.481800
     57 C12         4.6890   -3.2590    4.3560 c3        1 X17      0.060300
@<TRIPOS>BOND
     1    1    4 1   
     2    1   27 1   
     3    1   28 1   
     4    1   29 1   
     5    2   15 1   
     6    2   16 1   
     7    2   57 1   
     8    3   12 1   
     9    3   13 1   
    10    4    7 ar  
    11    4   12 ar  
    12    5   14 1   
    13    5   16 2   
    14    6   15 2   
    15    7    9 ar  
    16    7   30 1   
    17    8   16 1   
    18    8   31 1   
    19    8   32 1   
    20    8   56 1   
    21    9   10 ar  
    22    9   14 1   
    23   10   11 ar  
    24   10   33 1   
    25   11   12 ar  
    26   11   34 1   
    27   13   35 1   
    28   13   36 1   
    29   13   37 1   
    30   14   15 1   
    31   14   17 1   
    32   17   18 1   
    33   17   22 1   
    34   17   26 1   
    35   18   41 1   
    36   18   42 1   
    37   18   43 1   
    38   19   20 1   
    39   19   25 2   
    40   19   44 1   
    41   20   21 1   
    42   20   45 1   
    43   20   46 1   
    44   21   22 1   
    45   21   23 1   
    46   21   47 1   
    47   22   48 1   
    48   22   49 1   
    49   23   24 1   
    50   23   50 1   
    51   23   51 1   
    52   24   26 2   
    53   24   52 1   
    54   25   53 1   
    55   25   54 1   
    56   26   55 1   
    57   38   57 1   
    58   39   57 1   
    59   40   57 1   
@<TRIPOS>SUBSTRUCTURE
     1 X17         1 TEMP              0 ****  ****    0 ROOT
