@<TRIPOS>MOLECULE
X17
   56    60     1     0     0
SMALL
bcc


@<TRIPOS>ATOM
      1 C1          3.8190    0.3900   -2.3710 c3        1 X17     -0.041800
      2 N1         -0.9940   -2.9510   -0.5260 n         1 X17     -0.444300
      3 O1          5.1060    0.8060    0.0170 os        1 X17     -0.325900
      4 C2          3.1050    0.2160   -1.0870 ca        1 X17     -0.103300
      5 N2         -0.6390   -1.6360    1.3620 n2        1 X17     -0.667900
      6 O2         -0.6810   -1.4190   -2.2560 o         1 X17     -0.595500
      7 C3          1.7640   -0.1640   -1.0500 ca        1 X17     -0.098000
      8 N3         -1.4340   -3.9140    1.7120 nh        1 X17     -0.866800
      9 C4          1.0850   -0.3340    0.1640 ca        1 X17     -0.106300
     10 C5          1.7690   -0.0960    1.3610 ca        1 X17     -0.071000
     11 C6          3.1100    0.2860    1.3530 ca        1 X17     -0.212000
     12 C7          3.7790    0.4380    0.1350 ca        1 X17      0.125100
     13 C8          5.8020    1.0430    1.2340 c3        1 X17      0.113700
     14 C9         -0.3700   -0.7530    0.1930 c3        1 X17      0.144500
     15 C10        -0.6860   -1.6730   -1.0480 c         1 X17      0.685500
     16 C11        -1.0020   -2.8380    0.9120 c2        1 X17      0.612800
     17 C13        -1.3190    0.4850    0.1690 c3        1 X17     -0.015000
     18 C14        -0.9610    1.4030   -1.0070 c3        1 X17     -0.072733
     19 C15        -1.8880    2.6120   -1.0350 c3        1 X17     -0.059700
     20 C16        -1.7400    3.3960    0.2650 c3        1 X17     -0.071067
     21 C17        -2.1100    2.4980    1.4390 c3        1 X17     -0.059700
     22 C18        -1.1870    1.2830    1.4720 c3        1 X17     -0.072733
     23 C19        -3.5550    2.0340    1.2880 c3        1 X17     -0.071067
     24 C20        -3.7010    1.2530   -0.0130 c3        1 X17     -0.059700
     25 C21        -3.3320    2.1490   -1.1900 c3        1 X17     -0.071067
     26 C22        -2.7790    0.0390    0.0150 c3        1 X17     -0.072733
     27 H1          4.2000    1.4380   -2.4580 hc        1 X17      0.046367
     28 H1A         4.7010   -0.2980   -2.4130 hc        1 X17      0.046367
     29 H1B         3.1520    0.1750   -3.2410 hc        1 X17      0.046367
     30 H3          1.2350   -0.3210   -2.0070 ha        1 X17      0.160000
     31 HN3        -1.2160   -3.7960    2.6790 hn        1 X17      0.408800
     32 HN3A       -1.1720   -4.8080    1.3550 hn        1 X17      0.408800
     33 H5          1.2560   -0.2020    2.3300 ha        1 X17      0.150000
     34 H6          3.6240    0.4630    2.3070 ha        1 X17      0.136000
     35 H8          5.8310    0.1170    1.8590 h1        1 X17      0.043700
     36 H8A         6.8320    1.3220    0.8950 h1        1 X17      0.043700
     37 H8B         5.3330    1.8830    1.8010 h1        1 X17      0.043700
     38 H12        -0.9410   -4.9700   -1.0680 h1        1 X17      0.050367
     39 H12A       -2.6100   -4.2370   -0.9580 h1        1 X17      0.050367
     40 H12B       -1.5070   -3.7960   -2.3530 h1        1 X17      0.050367
     41 H14         0.0990    1.7520   -0.9040 hc        1 X17      0.052700
     42 H14A       -1.0480    0.8350   -1.9700 hc        1 X17      0.052700
     43 H15        -1.6090    3.2680   -1.9020 hc        1 X17      0.047700
     44 H16        -0.6840    3.7520    0.3760 hc        1 X17      0.040533
     45 H16A       -2.4080    4.2950    0.2470 hc        1 X17      0.040533
     46 H17        -1.9980    3.0700    2.3990 hc        1 X17      0.047700
     47 H18        -1.4560    0.6420    2.3500 hc        1 X17      0.052700
     48 H18A       -0.1250    1.6180    1.5970 hc        1 X17      0.052700
     49 H19        -3.8390    1.3850    2.1550 hc        1 X17      0.040533
     50 H19A       -4.2400    2.9200    1.2790 hc        1 X17      0.040533
     51 H20        -4.7630    0.9060   -0.1250 hc        1 X17      0.047700
     52 H21        -4.0150    3.0350   -1.2230 hc        1 X17      0.040533
     53 H21A       -3.4490    1.5850   -2.1500 hc        1 X17      0.040533
     54 H22        -2.8970   -0.5380   -0.9390 hc        1 X17      0.052700
     55 H22A       -3.0730   -0.6250    0.8670 hc        1 X17      0.052700
     56 C12        -1.5440   -4.0410   -1.2570 c3        1 X17      0.088300
@<TRIPOS>BOND
     1    1    4 1   
     2    1   27 1   
     3    1   28 1   
     4    1   29 1   
     5    2   15 1   
     6    2   16 1   
     7    2   56 1   
     8    3   12 1   
     9    3   13 1   
    10    4    7 ar  
    11    4   12 ar  
    12    5   14 1   
    13    5   16 2   
    14    6   15 2   
    15    7    9 ar  
    16    7   30 1   
    17    8   16 1   
    18    8   31 1   
    19    8   32 1   
    20    9   10 ar  
    21    9   14 1   
    22   10   11 ar  
    23   10   33 1   
    24   11   12 ar  
    25   11   34 1   
    26   13   35 1   
    27   13   36 1   
    28   13   37 1   
    29   14   15 1   
    30   14   17 1   
    31   17   18 1   
    32   17   22 1   
    33   17   26 1   
    34   18   19 1   
    35   18   41 1   
    36   18   42 1   
    37   19   20 1   
    38   19   25 1   
    39   19   43 1   
    40   20   21 1   
    41   20   44 1   
    42   20   45 1   
    43   21   22 1   
    44   21   23 1   
    45   21   46 1   
    46   22   47 1   
    47   22   48 1   
    48   23   24 1   
    49   23   49 1   
    50   23   50 1   
    51   24   25 1   
    52   24   26 1   
    53   24   51 1   
    54   25   52 1   
    55   25   53 1   
    56   26   54 1   
    57   26   55 1   
    58   38   56 1   
    59   39   56 1   
    60   40   56 1   
@<TRIPOS>SUBSTRUCTURE
     1 X17         1 TEMP              0 ****  ****    0 ROOT
