@<TRIPOS>MOLECULE
X19
   42    43     1     0     0
SMALL
bcc


@<TRIPOS>ATOM
      1 N01        -0.0190    0.0290   -0.0630 na        1 X19     -0.015600
      2 N02         1.3110   -0.1020   -0.0730 nc        1 X19     -0.416800
      3 N03        -2.8980   -0.0120    0.6390 n4        1 X19     -0.674800
      4 C04         1.7500   -0.1030    1.2080 cd        1 X19      0.327600
      5 C05         0.6280    0.1310    2.1220 cd        1 X19     -0.025600
      6 C06        -0.4910    0.2530    1.2750 cc        1 X19     -0.302900
      7 C07         3.1280   -0.2950    1.7130 c3        1 X19     -0.121700
      8 C08         3.0980   -0.6440    3.1920 c3        1 X19     -0.087400
      9 C09         2.2270    0.3160    3.9960 c3        1 X19     -0.053700
     10 C10         0.7610    0.1620    3.5790 c3        1 X19     -0.049100
     11 C11         2.4120    0.1380    5.5180 c3        1 X19     -0.045000
     12 C12        -1.8590    0.4110    1.6800 c         1 X19      0.599700
     13 C13        -4.2740   -0.0500    1.1790 c3        1 X19      0.082100
     14 C14         1.2810    0.8400    6.2620 c3        1 X19     -0.092100
     15 C15         2.4160   -1.3330    5.9000 c3        1 X19     -0.092100
     16 C16         3.7410    0.8010    5.9130 c3        1 X19     -0.073400
     17 C17         4.2140    0.4640    7.3030 c3        1 X19     -0.096100
     18 O18        -2.3020    0.8120    2.7460 o         1 X19     -0.418100
     19 HN01       -0.4080    0.5220   -0.8430 hn        1 X19      0.305700
     20 HN03       -2.8590    0.6460   -0.1460 hn        1 X19      0.459300
     21 H07         3.7080    0.6560    1.5520 hc        1 X19      0.085200
     22 H07A        3.6520   -1.1080    1.1410 hc        1 X19      0.085200
     23 H08         2.7150   -1.6920    3.3200 hc        1 X19      0.066200
     24 H08A        4.1500   -0.6240    3.5800 hc        1 X19      0.066200
     25 H09         2.5400    1.3700    3.7440 hc        1 X19      0.061700
     26 H10         0.1470    1.0090    3.9940 hc        1 X19      0.088700
     27 H10A        0.3430   -0.7930    4.0100 hc        1 X19      0.088700
     28 H13        -4.9830   -0.3580    0.3640 hx        1 X19      0.113700
     29 H13A       -4.5530    0.9670    1.5690 hx        1 X19      0.113700
     30 H13B       -4.3220   -0.7860    2.0280 hx        1 X19      0.113700
     31 H14         1.1530    1.8840    5.8890 hc        1 X19      0.040033
     32 H14A        1.5080    0.8830    7.3550 hc        1 X19      0.040033
     33 H14B        0.3190    0.2860    6.1360 hc        1 X19      0.040033
     34 H15         3.3560   -1.8280    5.5570 hc        1 X19      0.040033
     35 H15A        2.3480   -1.4400    7.0110 hc        1 X19      0.040033
     36 H15B        1.5450   -1.8630    5.4450 hc        1 X19      0.040033
     37 H16         4.5390    0.4970    5.1850 hc        1 X19      0.041700
     38 H16A        3.6180    1.9130    5.8240 hc        1 X19      0.041700
     39 H17         3.4390    0.7040    8.0700 hc        1 X19      0.041367
     40 H17A        5.1330    1.0560    7.5400 hc        1 X19      0.041367
     41 H17B        4.4680   -0.6210    7.3880 hc        1 X19      0.041367
     42 H032       -2.6390   -0.9440    0.2900 hn        1 X19      0.459300
@<TRIPOS>BOND
     1    1    2 1   
     2    1    6 1   
     3    1   19 1   
     4    2    4 2   
     5    3   12 1   
     6    3   13 1   
     7    3   20 1   
     8    3   42 1   
     9    4    5 1   
    10    4    7 1   
    11    5    6 2   
    12    5   10 1   
    13    6   12 1   
    14    7    8 1   
    15    7   21 1   
    16    7   22 1   
    17    8    9 1   
    18    8   23 1   
    19    8   24 1   
    20    9   10 1   
    21    9   11 1   
    22    9   25 1   
    23   10   26 1   
    24   10   27 1   
    25   11   14 1   
    26   11   15 1   
    27   11   16 1   
    28   12   18 2   
    29   13   28 1   
    30   13   29 1   
    31   13   30 1   
    32   14   31 1   
    33   14   32 1   
    34   14   33 1   
    35   15   34 1   
    36   15   35 1   
    37   15   36 1   
    38   16   17 1   
    39   16   37 1   
    40   16   38 1   
    41   17   39 1   
    42   17   40 1   
    43   17   41 1   
@<TRIPOS>SUBSTRUCTURE
     1 X19         1 TEMP              0 ****  ****    0 ROOT
