@<TRIPOS>MOLECULE
X19
   42    43     1     0     0
SMALL
bcc


@<TRIPOS>ATOM
      1 N01        -0.0170    0.0520   -0.0640 na        1 X19     -0.015600
      2 N02         1.3140   -0.0700   -0.0740 nc        1 X19     -0.416800
      3 N03        -2.8960   -0.0150    0.6370 n4        1 X19     -0.674800
      4 C04         1.7520   -0.0790    1.2070 cd        1 X19      0.327600
      5 C05         0.6280    0.1400    2.1220 cd        1 X19     -0.025600
      6 C06        -0.4910    0.2620    1.2760 cc        1 X19     -0.302900
      7 C07         3.1320   -0.2650    1.7110 c3        1 X19     -0.121700
      8 C08         3.1030   -0.6270    3.1870 c3        1 X19     -0.087400
      9 C09         2.2250    0.3200    3.9980 c3        1 X19     -0.053700
     10 C10         0.7600    0.1600    3.5800 c3        1 X19     -0.049100
     11 C11         2.4110    0.1310    5.5190 c3        1 X19     -0.045000
     12 C12        -1.8600    0.4080    1.6810 c         1 X19      0.599700
     13 C13        -4.2720   -0.0660    1.1760 c3        1 X19      0.082100
     14 C14         1.2740    0.8190    6.2680 c3        1 X19     -0.092100
     15 C15         2.4240   -1.3430    5.8890 c3        1 X19     -0.092100
     16 C16         3.7350    0.7990    5.9200 c3        1 X19     -0.073400
     17 C17         4.2100    0.4540    7.3080 c3        1 X19     -0.096100
     18 O18        -2.3060    0.7970    2.7510 o         1 X19     -0.418100
     19 HN01       -0.4100    0.5490   -0.8400 hn        1 X19      0.305700
     20 HN03       -2.8610    0.6500   -0.1430 hn        1 X19      0.459300
     21 H07         3.6600   -1.0700    1.1320 hc        1 X19      0.085200
     22 H07A        3.7040    0.6910    1.5580 hc        1 X19      0.085200
     23 H08         2.7270   -1.6780    3.3060 hc        1 X19      0.066200
     24 H08A        4.1540   -0.6030    3.5750 hc        1 X19      0.066200
     25 H09         2.5310    1.3780    3.7550 hc        1 X19      0.061700
     26 H10         0.1410    1.0000    4.0020 hc        1 X19      0.088700
     27 H10A        0.3490   -0.8010    4.0020 hc        1 X19      0.088700
     28 H13        -4.3150   -0.8090    2.0180 hx        1 X19      0.113700
     29 H13A       -4.9780   -0.3720    0.3580 hx        1 X19      0.113700
     30 H13B       -4.5590    0.9460    1.5740 hx        1 X19      0.113700
     31 H14         1.5010    0.8550    7.3610 hc        1 X19      0.040033
     32 H14A        1.1400    1.8660    5.9040 hc        1 X19      0.040033
     33 H14B        0.3170    0.2610    6.1370 hc        1 X19      0.040033
     34 H15         3.3680   -1.8290    5.5420 hc        1 X19      0.040033
     35 H15A        1.5570   -1.8750    5.4280 hc        1 X19      0.040033
     36 H15B        2.3560   -1.4590    6.9980 hc        1 X19      0.040033
     37 H16         4.5350    0.5070    5.1900 hc        1 X19      0.041700
     38 H16A        3.6050    1.9120    5.8400 hc        1 X19      0.041700
     39 H17         3.4330    0.6830    8.0760 hc        1 X19      0.041367
     40 H17A        4.4710   -0.6300    7.3840 hc        1 X19      0.041367
     41 H17B        5.1240    1.0500    7.5500 hc        1 X19      0.041367
     42 H032       -2.6310   -0.9410    0.2810 hn        1 X19      0.459300
@<TRIPOS>BOND
     1    1    2 1   
     2    1    6 1   
     3    1   19 1   
     4    2    4 2   
     5    3   12 1   
     6    3   13 1   
     7    3   20 1   
     8    3   42 1   
     9    4    5 1   
    10    4    7 1   
    11    5    6 2   
    12    5   10 1   
    13    6   12 1   
    14    7    8 1   
    15    7   21 1   
    16    7   22 1   
    17    8    9 1   
    18    8   23 1   
    19    8   24 1   
    20    9   10 1   
    21    9   11 1   
    22    9   25 1   
    23   10   26 1   
    24   10   27 1   
    25   11   14 1   
    26   11   15 1   
    27   11   16 1   
    28   12   18 2   
    29   13   28 1   
    30   13   29 1   
    31   13   30 1   
    32   14   31 1   
    33   14   32 1   
    34   14   33 1   
    35   15   34 1   
    36   15   35 1   
    37   15   36 1   
    38   16   17 1   
    39   16   37 1   
    40   16   38 1   
    41   17   39 1   
    42   17   40 1   
    43   17   41 1   
@<TRIPOS>SUBSTRUCTURE
     1 X19         1 TEMP              0 ****  ****    0 ROOT
