@<TRIPOS>MOLECULE
X19
   41    42     1     0     0
SMALL
bcc


@<TRIPOS>ATOM
      1 N01         2.7110   -1.6890    0.2550 na        1 X19     -0.012600
      2 N02         1.7740   -2.6280    0.1500 nc        1 X19     -0.487800
      3 N03         4.2580    0.8480   -0.0130 n         1 X19     -0.566900
      4 C04         0.5800   -1.9820    0.0290 cd        1 X19      0.297600
      5 C05         0.7820   -0.5430    0.1100 cd        1 X19     -0.159600
      6 C06         2.1670   -0.3870    0.2780 cc        1 X19     -0.180900
      7 C07        -0.7660   -2.5700   -0.1400 c3        1 X19     -0.102700
      8 C08        -1.7420   -1.5050   -0.6160 c3        1 X19     -0.076400
      9 C09        -1.6610   -0.2330    0.2220 c3        1 X19     -0.053700
     10 C10        -0.3020    0.4400    0.0140 c3        1 X19     -0.012100
     11 C11        -2.8360    0.7270   -0.0610 c3        1 X19     -0.045000
     12 C12         2.9440    0.8580    0.4360 c         1 X19      0.693700
     13 C13         5.0540    2.0370    0.0060 c3        1 X19      0.070300
     14 C14        -2.5210    2.1080    0.5050 c3        1 X19     -0.087600
     15 C15        -3.0880    0.8550   -1.5550 c3        1 X19     -0.087600
     16 C16        -4.0810    0.1790    0.6500 c3        1 X19     -0.074400
     17 C17        -5.3740    0.8330    0.2370 c3        1 X19     -0.092100
     18 O18         2.4490    1.8610    0.9840 o         1 X19     -0.584100
     19 HN01        3.6290   -1.9370    0.5420 hn        1 X19      0.321700
     20 HN03        4.5260    0.1490   -0.6650 hn        1 X19      0.304500
     21 H07        -0.7420   -3.4160   -0.8760 hc        1 X19      0.059200
     22 H07A       -1.1070   -2.9900    0.8460 hc        1 X19      0.059200
     23 H08        -1.5220   -1.2560   -1.6870 hc        1 X19      0.047200
     24 H08A       -2.7780   -1.9310   -0.5760 hc        1 X19      0.047200
     25 H09        -1.7270   -0.5260    1.3090 hc        1 X19      0.053700
     26 H10        -0.1400    1.2440    0.7840 hc        1 X19      0.068200
     27 H10A       -0.2720    0.9330   -0.9960 hc        1 X19      0.068200
     28 H13         4.9920    2.5890   -0.9720 h1        1 X19      0.046367
     29 H13A        4.7020    2.7200    0.8250 h1        1 X19      0.046367
     30 H13B        6.1240    1.7540    0.1930 h1        1 X19      0.046367
     31 H14        -1.7200    2.6060   -0.0930 hc        1 X19      0.036200
     32 H14A       -3.4290    2.7570    0.4700 hc        1 X19      0.036200
     33 H14B       -2.1840    2.0270    1.5660 hc        1 X19      0.036200
     34 H15        -3.5350   -0.0850   -1.9610 hc        1 X19      0.036200
     35 H15A       -3.7930    1.6980   -1.7550 hc        1 X19      0.036200
     36 H15B       -2.1340    1.0600   -2.0970 hc        1 X19      0.036200
     37 H16        -4.1640   -0.9230    0.4560 hc        1 X19      0.038700
     38 H16A       -3.9380    0.3090    1.7560 hc        1 X19      0.038700
     39 H17        -5.3310    1.9410    0.3650 hc        1 X19      0.033367
     40 H17A       -5.6090    0.6130   -0.8330 hc        1 X19      0.033367
     41 H17B       -6.2120    0.4420    0.8650 hc        1 X19      0.033367
@<TRIPOS>BOND
     1    1    2 1   
     2    1    6 1   
     3    1   19 1   
     4    2    4 2   
     5    3   12 1   
     6    3   13 1   
     7    3   20 1   
     8    4    5 1   
     9    4    7 1   
    10    5    6 2   
    11    5   10 1   
    12    6   12 1   
    13    7    8 1   
    14    7   21 1   
    15    7   22 1   
    16    8    9 1   
    17    8   23 1   
    18    8   24 1   
    19    9   10 1   
    20    9   11 1   
    21    9   25 1   
    22   10   26 1   
    23   10   27 1   
    24   11   14 1   
    25   11   15 1   
    26   11   16 1   
    27   12   18 2   
    28   13   28 1   
    29   13   29 1   
    30   13   30 1   
    31   14   31 1   
    32   14   32 1   
    33   14   33 1   
    34   15   34 1   
    35   15   35 1   
    36   15   36 1   
    37   16   17 1   
    38   16   37 1   
    39   16   38 1   
    40   17   39 1   
    41   17   40 1   
    42   17   41 1   
@<TRIPOS>SUBSTRUCTURE
     1 X19         1 TEMP              0 ****  ****    0 ROOT
