@<TRIPOS>MOLECULE
X1E
   26    27     1     0     0
SMALL
bcc


@<TRIPOS>ATOM
      1 O13         0.9890   -0.7220   -1.2860 o         1 X1E     -0.769300
      2 C11         2.1060   -0.5850   -0.7460 c         1 X1E      0.959600
      3 O12         3.2510   -0.8030   -1.1930 o         1 X1E     -0.769300
      4 C3          1.9980   -0.0760    0.7880 c3        1 X1E     -0.136300
      5 C2          2.1240   -1.2860    1.7500 c3        1 X1E      0.116100
      6 C10         1.8650   -2.5950    1.0560 c3        1 X1E     -0.102100
      7 C9          1.2650   -1.1210    2.9760 c3        1 X1E     -0.102100
      8 N4          3.0180    0.9090    1.0730 n         1 X1E     -0.278800
      9 C7          2.9560    1.8680    2.1110 c         1 X1E      0.670500
     10 O8          2.2290    2.7610    2.5090 o         1 X1E     -0.522500
     11 C6          4.3980    1.4450    2.6310 cy        1 X1E     -0.092500
     12 N14         4.4160    0.9780    4.0270 nz        1 X1E     -0.850600
     13 C5          4.2760    0.2970    1.5620 cy        1 X1E      0.145800
     14 S1          3.9040   -1.2930    2.3120 ss        1 X1E     -0.410200
     15 H3          0.9810    0.3940    0.8940 h1        1 X1E      0.107700
     16 H101        2.6590   -2.7960    0.2900 hc        1 X1E      0.059367
     17 H102        1.8350   -3.4340    1.7910 hc        1 X1E      0.059367
     18 H103        0.8840   -2.5370    0.5140 hc        1 X1E      0.059367
     19 H91C        0.1850   -1.1690    2.6810 hc        1 X1E      0.059367
     20 H92C        1.4590   -1.9340    3.7170 hc        1 X1E      0.059367
     21 H93C        1.4490   -0.1330    3.4660 hc        1 X1E      0.059367
     22 H5          5.0640    0.2350    0.7790 h2        1 X1E      0.171700
     23 H6          5.2070    2.1880    2.4350 hx        1 X1E      0.133700
     24 H141        5.3570    1.0240    4.4160 hn        1 X1E      0.457800
     25 H142        3.7850    1.5510    4.5900 hn        1 X1E      0.457800
     26 H143        4.0800   -0.0420    4.0070 hn        1 X1E      0.457800
@<TRIPOS>BOND
     1    1    2 1   
     2    2    3 1   
     3    2    4 1   
     4    4    5 1   
     5    4    8 1   
     6    4   15 1   
     7    5    6 1   
     8    5    7 1   
     9    5   14 1   
    10    6   16 1   
    11    6   17 1   
    12    6   18 1   
    13    7   19 1   
    14    7   20 1   
    15    7   21 1   
    16    8    9 1   
    17    8   13 1   
    18    9   10 2   
    19    9   11 1   
    20   11   12 1   
    21   11   13 1   
    22   11   23 1   
    23   12   24 1   
    24   12   25 1   
    25   12   26 1   
    26   13   14 1   
    27   13   22 1   
@<TRIPOS>SUBSTRUCTURE
     1 X1E         1 TEMP              0 ****  ****    0 ROOT
