@<TRIPOS>MOLECULE
X1E
   26    27     1     0     0
SMALL
bcc


@<TRIPOS>ATOM
      1 O13         1.0570   -0.7610   -1.3150 o         1 X1E     -0.769300
      2 C11         2.1590   -0.5930   -0.7540 c         1 X1E      0.959600
      3 O12         3.3190   -0.7730   -1.1810 o         1 X1E     -0.769300
      4 C3          2.0080   -0.0960    0.7800 c3        1 X1E     -0.136300
      5 C2          2.1540   -1.3070    1.7380 c3        1 X1E      0.116100
      6 C10         1.9470   -2.6190    1.0330 c3        1 X1E     -0.102100
      7 C9          1.2680   -1.1750    2.9490 c3        1 X1E     -0.102100
      8 N4          2.9930    0.9180    1.0880 n         1 X1E     -0.278800
      9 C7          2.8830    1.8690    2.1300 c         1 X1E      0.670500
     10 O8          2.1220    2.7370    2.5190 o         1 X1E     -0.522500
     11 C6          4.3280    1.4870    2.6740 cy        1 X1E     -0.092500
     12 N14         4.3350    1.0130    4.0670 n4        1 X1E     -0.850600
     13 C5          4.2600    0.3420    1.5980 cy        1 X1E      0.145800
     14 S1          3.9230   -1.2640    2.3320 ss        1 X1E     -0.410200
     15 H3          0.9750    0.3420    0.8700 h1        1 X1E      0.107700
     16 H101        2.7600   -2.7920    0.2810 hc        1 X1E      0.059367
     17 H102        0.9750   -2.5880    0.4730 hc        1 X1E      0.059367
     18 H103        1.9290   -3.4630    1.7630 hc        1 X1E      0.059367
     19 H91C        1.4730   -1.9850    3.6890 hc        1 X1E      0.059367
     20 H92C        1.4130   -0.1840    3.4470 hc        1 X1E      0.059367
     21 H93C        0.1960   -1.2540    2.6340 hc        1 X1E      0.059367
     22 H5          5.0630    0.3080    0.8280 h2        1 X1E      0.171700
     23 H6          5.1170    2.2550    2.4970 hx        1 X1E      0.133700
     24 H141        5.2660    1.0850    4.4740 hn        1 X1E      0.457800
     25 H142        3.6760    1.5630    4.6220 hn        1 X1E      0.457800
     26 H143        4.0300   -0.0170    4.0360 hn        1 X1E      0.457800
@<TRIPOS>BOND
     1    1    2 1   
     2    2    3 1   
     3    2    4 1   
     4    4    5 1   
     5    4    8 1   
     6    4   15 1   
     7    5    6 1   
     8    5    7 1   
     9    5   14 1   
    10    6   16 1   
    11    6   17 1   
    12    6   18 1   
    13    7   19 1   
    14    7   20 1   
    15    7   21 1   
    16    8    9 1   
    17    8   13 1   
    18    9   10 2   
    19    9   11 1   
    20   11   12 1   
    21   11   13 1   
    22   11   23 1   
    23   12   24 1   
    24   12   25 1   
    25   12   26 1   
    26   13   14 1   
    27   13   22 1   
@<TRIPOS>SUBSTRUCTURE
     1 X1E         1 TEMP              0 ****  ****    0 ROOT
