@<TRIPOS>MOLECULE
X1E
   26    27     1     0     0
SMALL
bcc


@<TRIPOS>ATOM
      1 O13         1.0580   -0.7760   -1.3150 o         1 X1E     -0.769300
      2 C11         2.1630   -0.6290   -0.7530 c         1 X1E      0.959600
      3 O12         3.3170   -0.8540   -1.1720 o         1 X1E     -0.769300
      4 C3          2.0210   -0.0950    0.7690 c3        1 X1E     -0.136300
      5 C2          2.1270   -1.2890    1.7530 c3        1 X1E      0.116100
      6 C10         1.8830   -2.6090    1.0760 c3        1 X1E     -0.102100
      7 C9          1.2420   -1.1030    2.9580 c3        1 X1E     -0.102100
      8 N4          3.0350    0.8950    1.0590 n         1 X1E     -0.278800
      9 C7          2.9510    1.8720    2.0790 c         1 X1E      0.670500
     10 O8          2.2160    2.7710    2.4470 o         1 X1E     -0.522500
     11 C6          4.3820    1.4580    2.6370 cy        1 X1E     -0.092500
     12 N14         4.3710    1.0150    4.0400 n4        1 X1E     -0.850600
     13 C5          4.2830    0.2920    1.5850 cy        1 X1E      0.145800
     14 S1          3.8950   -1.2860    2.3530 ss        1 X1E     -0.410200
     15 H3          1.0020    0.3760    0.8460 h1        1 X1E      0.107700
     16 H101        2.6940   -2.8230    0.3310 hc        1 X1E      0.059367
     17 H102        1.8380   -3.4360    1.8240 hc        1 X1E      0.059367
     18 H103        0.9140   -2.5610    0.5120 hc        1 X1E      0.059367
     19 H91C        1.4160   -0.1070    3.4350 hc        1 X1E      0.059367
     20 H92C        0.1690   -1.1570    2.6410 hc        1 X1E      0.059367
     21 H93C        1.4200   -1.9040    3.7160 hc        1 X1E      0.059367
     22 H5          5.0870    0.2170    0.8200 h2        1 X1E      0.171700
     23 H6          5.1950    2.1980    2.4460 hx        1 X1E      0.133700
     24 H141        3.7280    1.5970    4.5800 hn        1 X1E      0.457800
     25 H142        4.0350   -0.0060    4.0300 hn        1 X1E      0.457800
     26 H143        5.3030    1.0670    4.4490 hn        1 X1E      0.457800
@<TRIPOS>BOND
     1    1    2 1   
     2    2    3 1   
     3    2    4 1   
     4    4    5 1   
     5    4    8 1   
     6    4   15 1   
     7    5    6 1   
     8    5    7 1   
     9    5   14 1   
    10    6   16 1   
    11    6   17 1   
    12    6   18 1   
    13    7   19 1   
    14    7   20 1   
    15    7   21 1   
    16    8    9 1   
    17    8   13 1   
    18    9   10 2   
    19    9   11 1   
    20   11   12 1   
    21   11   13 1   
    22   11   23 1   
    23   12   24 1   
    24   12   25 1   
    25   12   26 1   
    26   13   14 1   
    27   13   22 1   
@<TRIPOS>SUBSTRUCTURE
     1 X1E         1 TEMP              0 ****  ****    0 ROOT
