@<TRIPOS>MOLECULE
X1E
   25    26     1     0     0
SMALL
bcc


@<TRIPOS>ATOM
      1 O13         3.0050    1.5090    0.4410 o         1 X1E     -0.813300
      2 C11         1.9380    1.1160    0.9840 c         1 X1E      0.941600
      3 O12         1.6740    1.1470    2.2100 o         1 X1E     -0.813300
      4 C3          0.8840    0.5070   -0.0300 c3        1 X1E     -0.078300
      5 C2          0.9690   -1.0470   -0.0380 c3        1 X1E      0.086100
      6 C10         2.1290   -1.5590    0.7760 c3        1 X1E     -0.087600
      7 C9          1.0300   -1.5760   -1.4520 c3        1 X1E     -0.087600
      8 N4         -0.4710    0.9380    0.2420 n         1 X1E     -0.341800
      9 C7         -1.4560    1.1920   -0.7540 c         1 X1E      0.625500
     10 O8         -1.4920    1.8690   -1.7770 o         1 X1E     -0.591500
     11 C6         -2.5160    0.3130   -0.0030 cy        1 X1E      0.059500
     12 N14        -3.1820   -0.7320   -0.7140 n3        1 X1E     -0.901800
     13 C5         -1.3100   -0.0650    0.9360 cy        1 X1E      0.145800
     14 S1         -0.5770   -1.6850    0.7250 ss        1 X1E     -0.423200
     15 H3          1.1790    0.8960   -1.0490 h1        1 X1E      0.079700
     16 H101        2.0110   -1.2590    1.8490 hc        1 X1E      0.045200
     17 H102        2.1960   -2.6710    0.7070 hc        1 X1E      0.045200
     18 H103        3.0810   -1.1070    0.3970 hc        1 X1E      0.045200
     19 H91C        1.9880   -1.2550   -1.9330 hc        1 X1E      0.045200
     20 H92C        0.9890   -2.6920   -1.4570 hc        1 X1E      0.045200
     21 H93C        0.1800   -1.1840   -2.0600 hc        1 X1E      0.045200
     22 H5         -1.4620    0.1600    2.0130 h2        1 X1E      0.117700
     23 H6         -3.2840    0.9400    0.5210 h1        1 X1E      0.084700
     24 H141       -3.4580   -0.4070   -1.6210 hn        1 X1E      0.363300
     25 H142       -2.5820   -1.5340   -0.8120 hn        1 X1E      0.363300
@<TRIPOS>BOND
     1    1    2 1   
     2    2    3 1   
     3    2    4 1   
     4    4    5 1   
     5    4    8 1   
     6    4   15 1   
     7    5    6 1   
     8    5    7 1   
     9    5   14 1   
    10    6   16 1   
    11    6   17 1   
    12    6   18 1   
    13    7   19 1   
    14    7   20 1   
    15    7   21 1   
    16    8    9 1   
    17    8   13 1   
    18    9   10 2   
    19    9   11 1   
    20   11   12 1   
    21   11   13 1   
    22   11   23 1   
    23   12   24 1   
    24   12   25 1   
    25   13   14 1   
    26   13   22 1   
@<TRIPOS>SUBSTRUCTURE
     1 X1E         1 TEMP              0 ****  ****    0 ROOT
