@<TRIPOS>MOLECULE
X1H
   43    46     1     0     0
SMALL
bcc


@<TRIPOS>ATOM
      1 C22        -3.0670   -5.0070   -2.0220 c3        1 X1H      0.111700
      2 O3         -3.1590   -4.6730   -0.6400 os        1 X1H     -0.322900
      3 C21        -2.3970   -3.6060   -0.2160 ca        1 X1H      0.156100
      4 C20        -2.5230   -3.2950    1.1530 ca        1 X1H     -0.200500
      5 C18        -1.7950   -2.2370    1.6760 ca        1 X1H     -0.040500
      6 C19        -1.5480   -2.8590   -1.0430 ca        1 X1H     -0.200500
      7 C17        -0.8240   -1.8010   -0.4980 ca        1 X1H     -0.040500
      8 C16        -0.9370   -1.4810    0.8590 ca        1 X1H     -0.212600
      9 C15        -0.1880   -0.3590    1.4560 c         1 X1H      0.619900
     10 O1         -0.3290   -0.0420    2.6450 o         1 X1H     -0.533100
     11 C8          0.7500    0.3670    0.5760 cc        1 X1H     -0.145400
     12 C11         2.0860   -0.1220    0.3240 ca        1 X1H     -0.093800
     13 C13         2.7040   -1.2760    0.8270 ca        1 X1H     -0.051000
     14 C14         4.0050   -1.5670    0.4610 ca        1 X1H     -0.205000
     15 C12         4.7020   -0.7010   -0.4140 ca        1 X1H      0.132100
     16 O4          5.9960   -0.9540   -0.8100 oh        1 X1H     -0.496100
     17 C10         4.1130    0.4570   -0.9240 ca        1 X1H     -0.132000
     18 C9          2.7990    0.7470   -0.5480 ca        1 X1H     -0.049100
     19 S1          1.8500    2.0670   -0.9870 ss        1 X1H      0.038500
     20 C7          0.5060    1.5550   -0.0740 cd        1 X1H      0.011400
     21 C4         -0.6930    2.3630   -0.0490 ca        1 X1H     -0.084800
     22 C2         -1.3590    2.6180    1.1610 ca        1 X1H     -0.073000
     23 C1         -2.4990    3.4110    1.1900 ca        1 X1H     -0.187000
     24 C3         -2.9840    3.9590   -0.0090 ca        1 X1H      0.135100
     25 O2         -4.1160    4.7350    0.0820 oh        1 X1H     -0.494100
     26 C5         -2.3310    3.7140   -1.2260 ca        1 X1H     -0.187000
     27 C6         -1.1900    2.9190   -1.2380 ca        1 X1H     -0.073000
     28 H221       -3.4060   -4.1530   -2.6570 h1        1 X1H      0.047367
     29 H222       -2.0220   -5.3020   -2.2860 h1        1 X1H      0.047367
     30 H223       -3.7620   -5.8780   -2.1240 h1        1 X1H      0.047367
     31 H20        -3.1970   -3.8930    1.7830 ha        1 X1H      0.148000
     32 H19        -1.4460   -3.0940   -2.1110 ha        1 X1H      0.148000
     33 H18        -1.8840   -1.9760    2.7440 ha        1 X1H      0.152000
     34 H17        -0.1550   -1.2120   -1.1470 ha        1 X1H      0.152000
     35 H13         2.1510   -1.9380    1.5110 ha        1 X1H      0.146000
     36 H14         4.5060   -2.4670    0.8470 ha        1 X1H      0.137000
     37 H4          6.2900   -1.7640   -0.3680 ho        1 X1H      0.421000
     38 H10         4.6780    1.1150   -1.5970 ha        1 X1H      0.157000
     39 H2         -0.9710    2.1790    2.0970 ha        1 X1H      0.150500
     40 H6         -0.6730    2.7230   -2.1910 ha        1 X1H      0.150500
     41 H1         -3.0260    3.6150    2.1330 ha        1 X1H      0.146000
     42 HA         -4.3390    5.0450   -0.8070 ho        1 X1H      0.420000
     43 H5         -2.7170    4.1450   -2.1600 ha        1 X1H      0.146000
@<TRIPOS>BOND
     1    1    2 1   
     2    1   28 1   
     3    1   29 1   
     4    1   30 1   
     5    2    3 1   
     6    3    4 ar  
     7    3    6 ar  
     8    4    5 ar  
     9    4   31 1   
    10    5    8 ar  
    11    5   33 1   
    12    6    7 ar  
    13    6   32 1   
    14    7    8 ar  
    15    7   34 1   
    16    8    9 1   
    17    9   10 2   
    18    9   11 1   
    19   11   12 1   
    20   11   20 2   
    21   12   13 ar  
    22   12   18 ar  
    23   13   14 ar  
    24   13   35 1   
    25   14   15 ar  
    26   14   36 1   
    27   15   16 1   
    28   15   17 ar  
    29   16   37 1   
    30   17   18 ar  
    31   17   38 1   
    32   18   19 1   
    33   19   20 1   
    34   20   21 1   
    35   21   22 ar  
    36   21   27 ar  
    37   22   23 ar  
    38   22   39 1   
    39   23   24 ar  
    40   23   41 1   
    41   24   25 1   
    42   24   26 ar  
    43   25   42 1   
    44   26   27 ar  
    45   26   43 1   
    46   27   40 1   
@<TRIPOS>SUBSTRUCTURE
     1 X1H         1 TEMP              0 ****  ****    0 ROOT
