@<TRIPOS>MOLECULE
X1H
   43    46     1     0     0
SMALL
bcc


@<TRIPOS>ATOM
      1 C22        -0.1090    0.5970   -0.0530 c3        1 X1H      0.111700
      2 O3          1.3070    0.7290    0.0110 os        1 X1H     -0.322900
      3 C21         1.8890    0.4930    1.2370 ca        1 X1H      0.157100
      4 C20         3.2930    0.6160    1.2590 ca        1 X1H     -0.201000
      5 C18         3.9720    0.3980    2.4480 ca        1 X1H     -0.040500
      6 C19         1.1830    0.1540    2.3980 ca        1 X1H     -0.201000
      7 C17         1.8830   -0.0590    3.5840 ca        1 X1H     -0.040500
      8 C16         3.2760    0.0610    3.6220 ca        1 X1H     -0.212600
      9 C15         4.0400   -0.1710    4.8630 c         1 X1H      0.619900
     10 O1          5.2790   -0.1540    4.8780 o         1 X1H     -0.535100
     11 C8          3.2630   -0.4170    6.0950 cc        1 X1H     -0.146400
     12 C11         2.7040    0.6690    6.8670 ca        1 X1H     -0.093800
     13 C13         2.7890    2.0480    6.6260 ca        1 X1H     -0.051000
     14 C14         2.1790    2.9310    7.4980 ca        1 X1H     -0.205000
     15 C12         1.4780    2.4400    8.6240 ca        1 X1H      0.132100
     16 O4          0.8520    3.2820    9.5150 oh        1 X1H     -0.496100
     17 C10         1.3830    1.0730    8.8900 ca        1 X1H     -0.132000
     18 C9          2.0030    0.1860    8.0070 ca        1 X1H     -0.049100
     19 S1          2.0690   -1.4950    8.0830 ss        1 X1H      0.041500
     20 C7          2.9930   -1.6420    6.6590 cd        1 X1H      0.011400
     21 C4          3.3990   -2.9520    6.2020 ca        1 X1H     -0.086800
     22 C2          4.7120   -3.1820    5.7640 ca        1 X1H     -0.073000
     23 C1          5.1050   -4.4470    5.3420 ca        1 X1H     -0.187500
     24 C3          4.1760   -5.4980    5.3570 ca        1 X1H      0.135100
     25 O2          4.4910   -6.7740    4.9550 oh        1 X1H     -0.495100
     26 C5          2.8570   -5.2850    5.7940 ca        1 X1H     -0.187500
     27 C6          2.4810   -4.0160    6.2130 ca        1 X1H     -0.073000
     28 H221       -0.4190   -0.4440    0.2070 h1        1 X1H      0.047367
     29 H222       -0.3420    0.8230   -1.1250 h1        1 X1H      0.047367
     30 H223       -0.6040    1.3350    0.6230 h1        1 X1H      0.047367
     31 H20         3.8280    0.8810    0.3360 ha        1 X1H      0.148000
     32 H19         0.0890    0.0540    2.3880 ha        1 X1H      0.148000
     33 H18         5.0710    0.4850    2.4850 ha        1 X1H      0.152000
     34 H17         1.3300   -0.3250    4.4990 ha        1 X1H      0.152000
     35 H13         3.3420    2.4160    5.7480 ha        1 X1H      0.146000
     36 H14         2.2370    4.0150    7.3250 ha        1 X1H      0.137000
     37 H4          1.0140    4.1920    9.2300 ho        1 X1H      0.421000
     38 H10         0.8370    0.7180    9.7740 ha        1 X1H      0.158000
     39 H2          5.4360   -2.3480    5.7520 ha        1 X1H      0.151000
     40 H6          1.4490   -3.8420    6.5550 ha        1 X1H      0.151000
     41 H1          6.1350   -4.6210    5.0000 ha        1 X1H      0.146000
     42 HA          5.4190   -6.7800    4.6780 ho        1 X1H      0.422000
     43 H5          2.1450   -6.1220    5.7970 ha        1 X1H      0.146000
@<TRIPOS>BOND
     1    1    2 1   
     2    1   28 1   
     3    1   29 1   
     4    1   30 1   
     5    2    3 1   
     6    3    4 ar  
     7    3    6 ar  
     8    4    5 ar  
     9    4   31 1   
    10    5    8 ar  
    11    5   33 1   
    12    6    7 ar  
    13    6   32 1   
    14    7    8 ar  
    15    7   34 1   
    16    8    9 1   
    17    9   10 2   
    18    9   11 1   
    19   11   12 1   
    20   11   20 2   
    21   12   13 ar  
    22   12   18 ar  
    23   13   14 ar  
    24   13   35 1   
    25   14   15 ar  
    26   14   36 1   
    27   15   16 1   
    28   15   17 ar  
    29   16   37 1   
    30   17   18 ar  
    31   17   38 1   
    32   18   19 1   
    33   19   20 1   
    34   20   21 1   
    35   21   22 ar  
    36   21   27 ar  
    37   22   23 ar  
    38   22   39 1   
    39   23   24 ar  
    40   23   41 1   
    41   24   25 1   
    42   24   26 ar  
    43   25   42 1   
    44   26   27 ar  
    45   26   43 1   
    46   27   40 1   
@<TRIPOS>SUBSTRUCTURE
     1 X1H         1 TEMP              0 ****  ****    0 ROOT
