@<TRIPOS>MOLECULE
X1H
   43    46     1     0     0
SMALL
bcc


@<TRIPOS>ATOM
      1 C22        -0.0840    0.6150   -0.0630 c3        1 X1H      0.111700
      2 O3          1.3330    0.7400    0.0060 os        1 X1H     -0.322900
      3 C21         1.9090    0.4990    1.2340 ca        1 X1H      0.157100
      4 C20         3.3130    0.6150    1.2620 ca        1 X1H     -0.201000
      5 C18         3.9870    0.3920    2.4530 ca        1 X1H     -0.040500
      6 C19         1.1970    0.1630    2.3930 ca        1 X1H     -0.201000
      7 C17         1.8910   -0.0550    3.5810 ca        1 X1H     -0.040500
      8 C16         3.2850    0.0580    3.6250 ca        1 X1H     -0.212600
      9 C15         4.0430   -0.1800    4.8680 c         1 X1H      0.619900
     10 O1          5.2820   -0.1700    4.8870 o         1 X1H     -0.535100
     11 C8          3.2600   -0.4220    6.0970 cc        1 X1H     -0.146400
     12 C11         2.7030    0.6670    6.8670 ca        1 X1H     -0.093800
     13 C13         2.7960    2.0460    6.6260 ca        1 X1H     -0.051000
     14 C14         2.1870    2.9320    7.4950 ca        1 X1H     -0.205000
     15 C12         1.4790    2.4440    8.6190 ca        1 X1H      0.132100
     16 O4          0.8530    3.2890    9.5070 oh        1 X1H     -0.496100
     17 C10         1.3770    1.0780    8.8840 ca        1 X1H     -0.132000
     18 C9          1.9960    0.1880    8.0040 ca        1 X1H     -0.049100
     19 S1          2.0530   -1.4940    8.0810 ss        1 X1H      0.041500
     20 C7          2.9820   -1.6450    6.6610 cd        1 X1H      0.011400
     21 C4          3.3830   -2.9570    6.2050 ca        1 X1H     -0.086800
     22 C2          4.6970   -3.1930    5.7730 ca        1 X1H     -0.073000
     23 C1          5.0850   -4.4610    5.3530 ca        1 X1H     -0.187500
     24 C3          4.1520   -5.5070    5.3640 ca        1 X1H      0.135100
     25 O2          4.4620   -6.7850    4.9630 oh        1 X1H     -0.495100
     26 C5          2.8320   -5.2880    5.7950 ca        1 X1H     -0.187500
     27 C6          2.4600   -4.0170    6.2120 ca        1 X1H     -0.073000
     28 H221       -0.4010   -0.4250    0.1950 h1        1 X1H      0.047367
     29 H222       -0.3120    0.8440   -1.1350 h1        1 X1H      0.047367
     30 H223       -0.5780    1.3550    0.6120 h1        1 X1H      0.047367
     31 H20         3.8530    0.8780    0.3410 ha        1 X1H      0.148000
     32 H19         0.1030    0.0690    2.3790 ha        1 X1H      0.148000
     33 H18         5.0860    0.4730    2.4940 ha        1 X1H      0.152000
     34 H17         1.3330   -0.3190    4.4940 ha        1 X1H      0.152000
     35 H13         3.3540    2.4110    5.7500 ha        1 X1H      0.146000
     36 H14         2.2510    4.0160    7.3230 ha        1 X1H      0.137000
     37 H4          1.0210    4.1990    9.2220 ho        1 X1H      0.421000
     38 H10         0.8250    0.7250    9.7670 ha        1 X1H      0.158000
     39 H2          5.4250   -2.3640    5.7640 ha        1 X1H      0.151000
     40 H6          1.4270   -3.8370    6.5500 ha        1 X1H      0.151000
     41 H1          6.1160   -4.6400    5.0150 ha        1 X1H      0.146000
     42 HA          5.3910   -6.7960    4.6910 ho        1 X1H      0.422000
     43 H5          2.1150   -6.1210    5.7950 ha        1 X1H      0.146000
@<TRIPOS>BOND
     1    1    2 1   
     2    1   28 1   
     3    1   29 1   
     4    1   30 1   
     5    2    3 1   
     6    3    4 ar  
     7    3    6 ar  
     8    4    5 ar  
     9    4   31 1   
    10    5    8 ar  
    11    5   33 1   
    12    6    7 ar  
    13    6   32 1   
    14    7    8 ar  
    15    7   34 1   
    16    8    9 1   
    17    9   10 2   
    18    9   11 1   
    19   11   12 1   
    20   11   20 2   
    21   12   13 ar  
    22   12   18 ar  
    23   13   14 ar  
    24   13   35 1   
    25   14   15 ar  
    26   14   36 1   
    27   15   16 1   
    28   15   17 ar  
    29   16   37 1   
    30   17   18 ar  
    31   17   38 1   
    32   18   19 1   
    33   19   20 1   
    34   20   21 1   
    35   21   22 ar  
    36   21   27 ar  
    37   22   23 ar  
    38   22   39 1   
    39   23   24 ar  
    40   23   41 1   
    41   24   25 1   
    42   24   26 ar  
    43   25   42 1   
    44   26   27 ar  
    45   26   43 1   
    46   27   40 1   
@<TRIPOS>SUBSTRUCTURE
     1 X1H         1 TEMP              0 ****  ****    0 ROOT
