@<TRIPOS>MOLECULE
X1N
   37    40     1     0     0
SMALL
bcc


@<TRIPOS>ATOM
      1 O9B         0.5450   -0.4510    0.4570 o         1 X1N     -0.199000
      2 N7B         1.7310   -0.3440    0.2970 no        1 X1N      0.287100
      3 O8B         2.5070   -0.3720    1.2130 o         1 X1N     -0.199000
      4 C3B         2.2580   -0.1680   -1.0900 ce        1 X1N     -0.096100
      5 C2B         1.4100   -0.1430   -2.1450 cf        1 X1N     -0.182600
      6 C4B         3.6950   -0.0270   -1.2500 ce        1 X1N     -0.142000
      7 C5B         4.2050    0.1300   -2.4820 c2        1 X1N     -0.126200
      8 C6B         3.3970    0.1680   -3.7180 c3        1 X1N     -0.114500
      9 C1B         1.9010    0.0320   -3.5240 cf        1 X1N      0.511600
     10 N7          1.1550    0.0830   -4.5820 ne        1 X1N     -0.601700
     11 C2         -0.2720   -0.0580   -4.5110 ca        1 X1N      0.818000
     12 N3         -1.0190    1.0960   -4.6100 nb        1 X1N     -0.696000
     13 C4         -2.3630    0.9360   -4.7060 ca        1 X1N      0.557800
     14 C5A        -3.2240    2.0930   -4.8000 cc        1 X1N     -0.314900
     15 S4A        -2.8080    3.6860   -5.0720 ss        1 X1N      0.021700
     16 C3A        -4.4510    4.1560   -4.9960 cc        1 X1N      0.381700
     17 C20        -4.8430    5.5700   -5.1750 c3        1 X1N     -0.134400
     18 N2A        -5.3180    3.1550   -4.7680 nd        1 X1N     -0.632000
     19 C1A        -4.6200    1.9680   -4.6550 cd        1 X1N      0.380600
     20 C6A        -5.2620    0.6610   -4.3560 c3        1 X1N     -0.110700
     21 C60        -4.4420   -0.5060   -4.8800 c3        1 X1N     -0.022100
     22 C5         -2.9810   -0.3450   -4.7000 ca        1 X1N     -0.307900
     23 C6         -2.1210   -1.4510   -4.5570 ca        1 X1N      0.443200
     24 N1         -0.7880   -1.3420   -4.4520 nb        1 X1N     -0.701000
     25 H2B         0.3170   -0.2530   -2.0050 ha        1 X1N      0.180000
     26 H4B         4.3270   -0.0530   -0.3460 ha        1 X1N      0.175000
     27 H5B         5.2920    0.2390   -2.6320 ha        1 X1N      0.147000
     28 H6B1        3.7480   -0.6600   -4.4000 hc        1 X1N      0.097700
     29 H6B2        3.6070    1.1400   -4.2530 hc        1 X1N      0.097700
     30 H201       -5.5370    5.6780   -6.0460 hc        1 X1N      0.061367
     31 H202       -5.3690    5.9490   -4.2620 hc        1 X1N      0.061367
     32 H203       -3.9380    6.2020   -5.3560 hc        1 X1N      0.061367
     33 H6A1       -5.3760    0.5790   -3.2390 hc        1 X1N      0.071700
     34 H6A2       -6.2930    0.6140   -4.8000 hc        1 X1N      0.071700
     35 H601       -4.7890   -1.4450   -4.3700 hc        1 X1N      0.059700
     36 H602       -4.6440   -0.6320   -5.9810 hc        1 X1N      0.059700
     37 H6         -2.5210   -2.4820   -4.5190 h4        1 X1N      0.034100
@<TRIPOS>BOND
     1    1    2 1   
     2    2    3 1   
     3    2    4 1   
     4    4    5 2   
     5    4    6 1   
     6    5    9 1   
     7    5   25 1   
     8    6    7 2   
     9    6   26 1   
    10    7    8 1   
    11    7   27 1   
    12    8    9 1   
    13    8   28 1   
    14    8   29 1   
    15    9   10 2   
    16   10   11 1   
    17   11   12 ar  
    18   11   24 ar  
    19   12   13 ar  
    20   13   14 1   
    21   13   22 ar  
    22   14   15 1   
    23   14   19 2   
    24   15   16 1   
    25   16   17 1   
    26   16   18 2   
    27   17   30 1   
    28   17   31 1   
    29   17   32 1   
    30   18   19 1   
    31   19   20 1   
    32   20   21 1   
    33   20   33 1   
    34   20   34 1   
    35   21   22 1   
    36   21   35 1   
    37   21   36 1   
    38   22   23 ar  
    39   23   24 ar  
    40   23   37 1   
@<TRIPOS>SUBSTRUCTURE
     1 X1N         1 TEMP              0 ****  ****    0 ROOT
