@<TRIPOS>MOLECULE
X1N
   37    40     1     0     0
SMALL
bcc


@<TRIPOS>ATOM
      1 O9B         3.4870    1.5250    2.4330 o         1 X1N     -0.199000
      2 N7B         4.3590    1.5390    1.6060 no        1 X1N      0.287100
      3 O8B         5.3930    2.1250    1.7740 o         1 X1N     -0.199000
      4 C3B         4.1470    0.8010    0.3240 ce        1 X1N     -0.096100
      5 C2B         2.9950    0.1210    0.1100 cf        1 X1N     -0.182600
      6 C4B         5.2120    0.8470   -0.6620 ce        1 X1N     -0.142000
      7 C5B         5.0590    0.1930   -1.8240 c2        1 X1N     -0.126200
      8 C6B         3.8600   -0.5910   -2.1860 c3        1 X1N     -0.114500
      9 C1B         2.7570   -0.6140   -1.1470 cf        1 X1N      0.511600
     10 N7          1.6800   -1.2730   -1.4340 ne        1 X1N     -0.601700
     11 C2          0.5850   -1.3750   -0.5110 ca        1 X1N      0.818000
     12 N3         -0.5100   -0.5730   -0.7490 nb        1 X1N     -0.696000
     13 C4         -1.5990   -0.7950    0.0290 ca        1 X1N      0.557800
     14 C5A        -2.7880    0.0090   -0.1430 cc        1 X1N     -0.314900
     15 S4A        -3.1620    1.0700   -1.3750 ss        1 X1N      0.021700
     16 C3A        -4.6640    1.4340   -0.6430 cc        1 X1N      0.381700
     17 C20        -5.5970    2.3950   -1.2670 c3        1 X1N     -0.134400
     18 N2A        -4.9050    0.7870    0.5100 nd        1 X1N     -0.632000
     19 C1A        -3.8310   -0.0330    0.8020 cd        1 X1N      0.380600
     20 C6A        -3.7420   -0.8630    2.0320 c3        1 X1N     -0.110700
     21 C60        -2.8420   -2.0720    1.8340 c3        1 X1N     -0.022100
     22 C5         -1.6220   -1.7920    1.0430 ca        1 X1N     -0.307900
     23 C6         -0.4330   -2.5260    1.2210 ca        1 X1N      0.443200
     24 N1          0.6700   -2.3380    0.4810 nb        1 X1N     -0.701000
     25 H2B         2.1930    0.0950    0.8730 ha        1 X1N      0.180000
     26 H4B         6.1220    1.4220   -0.4220 ha        1 X1N      0.175000
     27 H5B         5.8520    0.2100   -2.5910 ha        1 X1N      0.147000
     28 H6B1        3.4410   -0.1820   -3.1510 hc        1 X1N      0.097700
     29 H6B2        4.1770   -1.6540   -2.3960 hc        1 X1N      0.097700
     30 H201       -5.1660    2.7900   -2.2200 hc        1 X1N      0.061367
     31 H202       -6.5760    1.9010   -1.4940 hc        1 X1N      0.061367
     32 H203       -5.7930    3.2550   -0.5780 hc        1 X1N      0.061367
     33 H6A1       -3.3370   -0.2150    2.8580 hc        1 X1N      0.071700
     34 H6A2       -4.7600   -1.2120    2.3510 hc        1 X1N      0.071700
     35 H601       -2.5590   -2.4770    2.8430 hc        1 X1N      0.059700
     36 H602       -3.4210   -2.8790    1.3040 hc        1 X1N      0.059700
     37 H6         -0.3570   -3.3040    2.0040 h4        1 X1N      0.034100
@<TRIPOS>BOND
     1    1    2 1   
     2    2    3 1   
     3    2    4 1   
     4    4    5 2   
     5    4    6 1   
     6    5    9 1   
     7    5   25 1   
     8    6    7 2   
     9    6   26 1   
    10    7    8 1   
    11    7   27 1   
    12    8    9 1   
    13    8   28 1   
    14    8   29 1   
    15    9   10 2   
    16   10   11 1   
    17   11   12 ar  
    18   11   24 ar  
    19   12   13 ar  
    20   13   14 1   
    21   13   22 ar  
    22   14   15 1   
    23   14   19 2   
    24   15   16 1   
    25   16   17 1   
    26   16   18 2   
    27   17   30 1   
    28   17   31 1   
    29   17   32 1   
    30   18   19 1   
    31   19   20 1   
    32   20   21 1   
    33   20   33 1   
    34   20   34 1   
    35   21   22 1   
    36   21   35 1   
    37   21   36 1   
    38   22   23 ar  
    39   23   24 ar  
    40   23   37 1   
@<TRIPOS>SUBSTRUCTURE
     1 X1N         1 TEMP              0 ****  ****    0 ROOT
