@<TRIPOS>MOLECULE
X1N
   37    32     1     0     0
SMALL
bcc


@<TRIPOS>ATOM
      1 O9B         4.6020   -3.0670    4.4270 o         1 X1N     -0.480700
      2 N7B         3.8820   -1.9340    4.0890 no        1 X1N      0.823400
      3 O8B         3.2650   -1.2980    4.9750 o         1 X1N     -0.480700
      4 C3B         3.9380   -1.4290    2.7590 c2        1 X1N     -0.068000
      5 C2B         2.8100   -1.7010    1.7980 c1        1 X1N     -0.097000
      6 C4B         5.1150   -0.6210    2.3150 c2        1 X1N     -0.143000
      7 C5B         5.1780   -0.0930    0.9000 c1        1 X1N     -0.122000
      8 C6B         3.8910    0.0290    0.0650 c2        1 X1N     -0.122000
      9 C1B         2.8170   -1.0460    0.4120 c1        1 X1N      0.061000
     10 N7          1.9980   -1.4830   -0.5290 n1        1 X1N     -0.093000
     11 C2          0.6010   -1.2180   -0.4390 c1        1 X1N      0.072000
     12 N3         -0.1690   -0.1080   -0.3740 n2        1 X1N     -0.171000
     13 C4         -1.4310   -0.1340   -0.8460 c1        1 X1N      0.122000
     14 C5A        -2.2500    1.0910   -0.8200 c1        1 X1N     -0.411000
     15 S4A        -1.8890    2.5520   -0.5010 ss        1 X1N      0.605000
     16 C3A        -3.1150    3.4350   -0.9010 c1        1 X1N     -0.290000
     17 C20        -3.4530    4.9270   -0.6920 c2        1 X1N     -0.158000
     18 N2A        -4.1300    2.5700   -1.4200 n2        1 X1N     -0.106000
     19 C1A        -3.5920    1.0780   -1.3740 c1        1 X1N     -0.042000
     20 C6A        -4.2440   -0.2180   -1.7160 c2        1 X1N     -0.094000
     21 C60        -3.4370   -1.4320   -1.7090 c3        1 X1N     -0.108000
     22 C5         -1.9480   -1.3200   -1.4080 c1        1 X1N     -0.170000
     23 C6         -1.1680   -2.4400   -1.4730 c1        1 X1N     -0.022000
     24 N1          0.0850   -2.4090   -1.0020 n1        1 X1N     -0.174000
     25 H2B         2.1190   -2.3930    2.0200 ha        1 X1N      0.180000
     26 H4B         5.8600   -0.4470    2.9410 ha        1 X1N      0.175000
     27 H5B         6.0590    0.1780    0.5050 ha        1 X1N      0.147000
     28 H6B1        3.4540    0.9320   -0.0090 ha        1 X1N      0.137000
     29 H6B2        4.1890   -0.0890   -0.8670 ha        1 X1N      0.137000
     30 H201       -3.8140    5.2930   -1.5080 ha        1 X1N      0.100667
     31 H202       -4.0990    5.0130    0.0090 ha        1 X1N      0.100667
     32 H203       -2.6170    5.4270   -0.4420 ha        1 X1N      0.100667
     33 H6A1       -4.6250   -0.1260   -2.6060 ha        1 X1N      0.110500
     34 H6A2       -4.9970   -0.3530   -1.0760 ha        1 X1N      0.110500
     35 H601       -3.8290   -2.0460   -1.0410 hc        1 X1N      0.099500
     36 H602       -3.5300   -1.8580   -2.6010 hc        1 X1N      0.099500
     37 H6         -1.5240   -3.2620   -1.8620 ha        1 X1N      0.171000
@<TRIPOS>BOND
     1    1    2 2   
     2    2    3 2   
     3    2    4 1   
     4    4    5 1   
     5    4    6 1   
     6    5   25 1   
     7    6    7 1   
     8    6   26 1   
     9    7   27 1   
    10    8    9 1   
    11    8   28 1   
    12    8   29 1   
    13    9   10 1   
    14   11   12 1   
    15   11   24 1   
    16   12   13 1   
    17   14   15 1   
    18   14   19 1   
    19   15   16 1   
    20   16   18 1   
    21   17   30 1   
    22   17   31 1   
    23   17   32 1   
    24   18   19 1   
    25   20   21 1   
    26   20   33 1   
    27   20   34 1   
    28   21   22 1   
    29   21   35 1   
    30   21   36 1   
    31   22   23 1   
    32   23   37 1   
@<TRIPOS>SUBSTRUCTURE
     1 X1N         1 TEMP              0 ****  ****    0 ROOT
