@<TRIPOS>MOLECULE
X1P
   23    23     1     0     0
SMALL
bcc


@<TRIPOS>ATOM
      1 C1         -0.0680   -0.0180   -1.0030 c3        1 X1P      0.366900
      2 O1         -0.6810    0.3550    0.1420 os        1 X1P     -0.566200
      3 P          -2.3280   -0.2210    0.3430 p5        1 X1P      1.319900
      4 O1P        -1.9810   -1.6240    0.7790 o         1 X1P     -0.914500
      5 O2P        -2.8800    0.7040    1.3810 o         1 X1P     -0.914500
      6 O3P        -2.8560   -0.1090   -1.0580 o         1 X1P     -0.914500
      7 C2          1.0600   -1.0720   -0.7550 c3        1 X1P      0.127100
      8 O2          0.5490   -2.2920   -0.2950 oh        1 X1P     -0.662800
      9 C3          2.0560   -0.4800    0.2610 c3        1 X1P      0.085100
     10 O3          3.1780   -1.3520    0.3680 oh        1 X1P     -0.605800
     11 C4          2.5530    0.9090   -0.1770 c3        1 X1P      0.070100
     12 O4          3.2940    1.5100    0.8830 oh        1 X1P     -0.645800
     13 C5          1.3950    1.8150   -0.6100 c3        1 X1P      0.133400
     14 O5          0.5720    1.1600   -1.5470 os        1 X1P     -0.469600
     15 H1         -0.7880   -0.3550   -1.8050 h2        1 X1P      0.107700
     16 H2          1.6030   -1.2930   -1.7140 h1        1 X1P      0.022700
     17 HO2        -0.3020   -2.1030    0.1890 ho        1 X1P      0.495000
     18 H3          1.5350   -0.4030    1.2560 h1        1 X1P      0.068700
     19 HO3         3.7610   -0.9410    1.0170 ho        1 X1P      0.370000
     20 H4          3.3050    0.7970   -1.0060 h1        1 X1P      0.054700
     21 HO4         2.6650    1.6690    1.5970 ho        1 X1P      0.399000
     22 H51         0.7960    2.1210    0.2890 h1        1 X1P      0.036700
     23 H52         1.7900    2.7220   -1.1380 h1        1 X1P      0.036700
@<TRIPOS>BOND
     1    1    2 1   
     2    1    7 1   
     3    1   14 1   
     4    1   15 1   
     5    2    3 1   
     6    3    4 1   
     7    3    5 1   
     8    3    6 1   
     9    7    8 1   
    10    7    9 1   
    11    7   16 1   
    12    8   17 1   
    13    9   10 1   
    14    9   11 1   
    15    9   18 1   
    16   10   19 1   
    17   11   12 1   
    18   11   13 1   
    19   11   20 1   
    20   12   21 1   
    21   13   14 1   
    22   13   22 1   
    23   13   23 1   
@<TRIPOS>SUBSTRUCTURE
     1 X1P         1 TEMP              0 ****  ****    0 ROOT
