@<TRIPOS>MOLECULE
X1P
   23    23     1     0     0
SMALL
bcc


@<TRIPOS>ATOM
      1 C1         -0.1430    0.2800    0.0820 c3        1 X1P      0.373900
      2 O1         -0.7430   -0.6980    0.7960 os        1 X1P     -0.564200
      3 P          -1.6140   -1.8870   -0.1560 p5        1 X1P      1.323900
      4 O1P        -0.4070   -2.6660   -0.6280 o         1 X1P     -0.912833
      5 O2P        -2.5020   -2.5490    0.8490 o         1 X1P     -0.912833
      6 O3P        -2.2470   -1.0240   -1.2070 o         1 X1P     -0.912833
      7 C2          1.4070    0.1180    0.0270 c3        1 X1P      0.085100
      8 O2          1.8340   -1.0150   -0.6800 oh        1 X1P     -0.692800
      9 C3          1.9450    0.0480    1.4690 c3        1 X1P      0.081100
     10 O3          3.3650   -0.0620    1.4850 oh        1 X1P     -0.642800
     11 C4          1.5430    1.3110    2.2400 c3        1 X1P      0.109100
     12 O4          1.9050    1.2380    3.6140 oh        1 X1P     -0.627800
     13 C5          0.0220    1.5150    2.1170 c3        1 X1P      0.128400
     14 O5         -0.3900    1.5280    0.7700 os        1 X1P     -0.470600
     15 H1         -0.5920    0.4200   -0.9450 h2        1 X1P      0.105700
     16 H2          1.8610    1.0070   -0.4930 h1        1 X1P      0.018700
     17 HO2         1.0940   -1.6890   -0.6500 ho        1 X1P      0.507000
     18 H3          1.5060   -0.8620    1.9700 h1        1 X1P      0.071700
     19 HO3         3.5820   -0.6430    0.7430 ho        1 X1P      0.411000
     20 H4          2.1070    2.2010    1.8510 h1        1 X1P      0.054700
     21 HO4         1.6100    0.3760    3.9280 ho        1 X1P      0.395000
     22 H51        -0.5100    0.7010    2.6790 h1        1 X1P      0.036200
     23 H52        -0.2630    2.5180    2.5280 h1        1 X1P      0.036200
@<TRIPOS>BOND
     1    1    2 1   
     2    1    7 1   
     3    1   14 1   
     4    1   15 1   
     5    2    3 1   
     6    3    4 1   
     7    3    5 1   
     8    3    6 1   
     9    7    8 1   
    10    7    9 1   
    11    7   16 1   
    12    8   17 1   
    13    9   10 1   
    14    9   11 1   
    15    9   18 1   
    16   10   19 1   
    17   11   12 1   
    18   11   13 1   
    19   11   20 1   
    20   12   21 1   
    21   13   14 1   
    22   13   22 1   
    23   13   23 1   
@<TRIPOS>SUBSTRUCTURE
     1 X1P         1 TEMP              0 ****  ****    0 ROOT
