@<TRIPOS>MOLECULE
X1P
   23    23     1     0     0
SMALL
bcc


@<TRIPOS>ATOM
      1 C1         -0.1340    0.2880    0.0770 c3        1 X1P      0.373900
      2 O1         -0.7460   -0.6880    0.7830 os        1 X1P     -0.564200
      3 P          -1.6190   -1.8680   -0.1800 p5        1 X1P      1.323900
      4 O1P        -0.4130   -2.6530   -0.6450 o         1 X1P     -0.912833
      5 O2P        -2.5200   -2.5260    0.8150 o         1 X1P     -0.912833
      6 O3P        -2.2370   -0.9960   -1.2330 o         1 X1P     -0.912833
      7 C2          1.4150    0.1150    0.0340 c3        1 X1P      0.085100
      8 O2          1.8400   -1.0190   -0.6730 oh        1 X1P     -0.692800
      9 C3          1.9410    0.0370    1.4800 c3        1 X1P      0.081100
     10 O3          3.3600   -0.0840    1.5070 oh        1 X1P     -0.642800
     11 C4          1.5430    1.3000    2.2520 c3        1 X1P      0.109100
     12 O4          1.8930    1.2200    3.6290 oh        1 X1P     -0.627800
     13 C5          0.0240    1.5150    2.1180 c3        1 X1P      0.128400
     14 O5         -0.3770    1.5360    0.7670 os        1 X1P     -0.470600
     15 H1         -0.5730    0.4350   -0.9520 h2        1 X1P      0.105700
     16 H2          1.8800    1.0020   -0.4790 h1        1 X1P      0.018700
     17 HO2         1.0950   -1.6880   -0.6520 ho        1 X1P      0.507000
     18 H3          1.4920   -0.8720    1.9740 h1        1 X1P      0.071700
     19 HO3         3.5790   -0.6640    0.7640 ho        1 X1P      0.411000
     20 H4          2.1160    2.1870    1.8700 h1        1 X1P      0.054700
     21 HO4         1.5890    0.3580    3.9380 ho        1 X1P      0.395000
     22 H51        -0.2570    2.5190    2.5300 h1        1 X1P      0.036200
     23 H52        -0.5180    0.7030    2.6720 h1        1 X1P      0.036200
@<TRIPOS>BOND
     1    1    2 1   
     2    1    7 1   
     3    1   14 1   
     4    1   15 1   
     5    2    3 1   
     6    3    4 1   
     7    3    5 1   
     8    3    6 1   
     9    7    8 1   
    10    7    9 1   
    11    7   16 1   
    12    8   17 1   
    13    9   10 1   
    14    9   11 1   
    15    9   18 1   
    16   10   19 1   
    17   11   12 1   
    18   11   13 1   
    19   11   20 1   
    20   12   21 1   
    21   13   14 1   
    22   13   22 1   
    23   13   23 1   
@<TRIPOS>SUBSTRUCTURE
     1 X1P         1 TEMP              0 ****  ****    0 ROOT
