@<TRIPOS>MOLECULE
X1R
   22    21     1     0     0
SMALL
bcc


@<TRIPOS>ATOM
      1 C3          0.5860   -1.0820    1.0110 c3        1 X1R     -0.087100
      2 C4          1.8670   -0.4490    0.5290 c3        1 X1R     -0.032400
      3 C5          2.4380    0.4960    1.5570 c3        1 X1R     -0.356600
      4 C7          4.7830    1.1770    2.5960 c3        1 X1R     -0.302600
      5 C8          5.2940   -0.1650    3.0690 c3        1 X1R     -0.178400
      6 C9          4.4210   -0.7980    4.1700 c         1 X1R      0.906600
      7 O1          4.5950    0.3510    0.1630 o         1 X1R     -0.688800
      8 O2          3.7440    2.5000    0.7120 o         1 X1R     -0.688800
      9 O3          3.2870   -0.2850    4.4210 o         1 X1R     -0.840800
     10 O4          4.8830   -1.8080    4.7660 o         1 X1R     -0.840800
     11 S5          3.9420    1.1550    1.1260 s6        1 X1R      1.302000
     12 H31C        0.7640   -1.6510    1.9560 hc        1 X1R      0.031033
     13 H32C       -0.1860   -0.3020    1.2130 hc        1 X1R      0.031033
     14 H33C        0.1880   -1.7840    0.2390 hc        1 X1R      0.031033
     15 H41C        1.6750    0.1060   -0.4280 hc        1 X1R      0.043700
     16 H42C        2.6220   -1.2510    0.3040 hc        1 X1R      0.043700
     17 H51C        2.5010   -0.0560    2.5540 h1        1 X1R      0.152200
     18 H52C        1.6950    1.3150    1.7500 h1        1 X1R      0.152200
     19 H71C        5.6450    1.8900    2.5150 h1        1 X1R      0.116700
     20 H72C        4.1320    1.5770    3.4290 h1        1 X1R      0.116700
     21 H81C        5.3570   -0.8840    2.2110 hc        1 X1R      0.046200
     22 H82C        6.3270   -0.0530    3.4860 hc        1 X1R      0.046200
@<TRIPOS>BOND
     1    1    2 1   
     2    1   12 1   
     3    1   13 1   
     4    1   14 1   
     5    2    3 1   
     6    2   15 1   
     7    2   16 1   
     8    3   11 1   
     9    3   17 1   
    10    3   18 1   
    11    4    5 1   
    12    4   11 1   
    13    4   19 1   
    14    4   20 1   
    15    5    6 1   
    16    5   21 1   
    17    5   22 1   
    18    6    9 1   
    19    6   10 1   
    20    7   11 2   
    21    8   11 2   
@<TRIPOS>SUBSTRUCTURE
     1 X1R         1 TEMP              0 ****  ****    0 ROOT
