@<TRIPOS>MOLECULE
X1R
   22    21     1     0     0
SMALL
bcc


@<TRIPOS>ATOM
      1 C3          0.0640   -0.0000    0.1340 c3        1 X1R     -0.087100
      2 C4          1.5690   -0.0000    0.0740 c3        1 X1R     -0.032400
      3 C5          2.1880   -0.0000    1.4500 c3        1 X1R     -0.356600
      4 C7          4.2190    0.0000    3.0220 c3        1 X1R     -0.302600
      5 C8          5.6910    0.0000    3.3740 c3        1 X1R     -0.178400
      6 C9          5.8930   -0.0000    4.9080 c         1 X1R      0.906600
      7 O1          4.3220   -1.1930    0.7460 o         1 X1R     -0.688800
      8 O2          4.3220    1.1930    0.7460 o         1 X1R     -0.688800
      9 O3          4.8690   -0.0000    5.6490 o         1 X1R     -0.840800
     10 O4          7.0820    0.0000    5.3260 o         1 X1R     -0.840800
     11 S5          3.9170    0.0000    1.3790 s6        1 X1R      1.302000
     12 H31C       -0.3090   -0.9050    0.6730 hc        1 X1R      0.031033
     13 H32C       -0.3090    0.9050    0.6730 hc        1 X1R      0.031033
     14 H33C       -0.3650   -0.0000   -0.8970 hc        1 X1R      0.031033
     15 H41C        1.9230    0.9060   -0.4890 hc        1 X1R      0.043700
     16 H42C        1.9230   -0.9060   -0.4890 hc        1 X1R      0.043700
     17 H51C        1.8160   -0.8930    2.0140 h1        1 X1R      0.152200
     18 H52C        1.8160    0.8930    2.0150 h1        1 X1R      0.152200
     19 H71C        3.7730    0.8830    3.5630 h1        1 X1R      0.116700
     20 H72C        3.7730   -0.8820    3.5630 h1        1 X1R      0.116700
     21 H81C        6.1910   -0.9090    2.9570 hc        1 X1R      0.046200
     22 H82C        6.1910    0.9090    2.9570 hc        1 X1R      0.046200
@<TRIPOS>BOND
     1    1    2 1   
     2    1   12 1   
     3    1   13 1   
     4    1   14 1   
     5    2    3 1   
     6    2   15 1   
     7    2   16 1   
     8    3   11 1   
     9    3   17 1   
    10    3   18 1   
    11    4    5 1   
    12    4   11 1   
    13    4   19 1   
    14    4   20 1   
    15    5    6 1   
    16    5   21 1   
    17    5   22 1   
    18    6    9 1   
    19    6   10 1   
    20    7   11 2   
    21    8   11 2   
@<TRIPOS>SUBSTRUCTURE
     1 X1R         1 TEMP              0 ****  ****    0 ROOT
