@<TRIPOS>MOLECULE
X1R
   22    21     1     0     0
SMALL
bcc


@<TRIPOS>ATOM
      1 C3          3.4540   -1.5590   -0.8990 c3        1 X1R     -0.087100
      2 C4          2.8770   -0.2890   -0.3270 c3        1 X1R     -0.032400
      3 C5          1.6850   -0.5700    0.5540 c3        1 X1R     -0.356600
      4 C7         -0.7260    0.4150    1.0630 c3        1 X1R     -0.302600
      5 C8         -1.3350    0.4270   -0.3210 c3        1 X1R     -0.178400
      6 C9         -1.4850   -0.9780   -0.9340 c         1 X1R      0.906600
      7 O1          1.2660    0.9980    2.5030 o         1 X1R     -0.688800
      8 O2          1.2100    1.9480    0.3280 o         1 X1R     -0.688800
      9 O3         -0.9170   -1.9580   -0.3620 o         1 X1R     -0.840800
     10 O4         -2.1690   -1.0800   -1.9880 o         1 X1R     -0.840800
     11 S5          0.9160    0.8260    1.1370 s6        1 X1R      1.302000
     12 H31C        4.3270   -1.3260   -1.5540 hc        1 X1R      0.031033
     13 H32C        3.7950   -2.2390   -0.0810 hc        1 X1R      0.031033
     14 H33C        2.6860   -2.0980   -1.5040 hc        1 X1R      0.031033
     15 H41C        3.6650    0.2490    0.2650 hc        1 X1R      0.043700
     16 H42C        2.5660    0.3940   -1.1640 hc        1 X1R      0.043700
     17 H51C        0.9580   -1.2280   -0.0300 h1        1 X1R      0.152200
     18 H52C        2.0110   -1.2210    1.4080 h1        1 X1R      0.152200
     19 H71C       -1.3080    1.1090    1.7260 h1        1 X1R      0.116700
     20 H72C       -0.9020   -0.6220    1.4760 h1        1 X1R      0.116700
     21 H81C       -2.3540    0.8860   -0.2830 hc        1 X1R      0.046200
     22 H82C       -0.7140    1.0510   -1.0150 hc        1 X1R      0.046200
@<TRIPOS>BOND
     1    1    2 1   
     2    1   12 1   
     3    1   13 1   
     4    1   14 1   
     5    2    3 1   
     6    2   15 1   
     7    2   16 1   
     8    3   11 1   
     9    3   17 1   
    10    3   18 1   
    11    4    5 1   
    12    4   11 1   
    13    4   19 1   
    14    4   20 1   
    15    5    6 1   
    16    5   21 1   
    17    5   22 1   
    18    6    9 1   
    19    6   10 1   
    20    7   11 2   
    21    8   11 2   
@<TRIPOS>SUBSTRUCTURE
     1 X1R         1 TEMP              0 ****  ****    0 ROOT
