@<TRIPOS>MOLECULE
X1S
   13    12     1     0     0
SMALL
bcc


@<TRIPOS>ATOM
      1 CB         -0.0110    0.0000   -0.0800 c3        1 X1S     -0.288600
      2 CG          1.4900    0.0000    0.0140 c3        1 X1S     -0.133400
      3 CD          2.0470   -0.0000    1.4400 c         1 X1S      0.900600
      4 OE1         1.2760   -0.0000    2.4460 o         1 X1S     -0.884800
      5 OE2         3.3140   -0.0000    1.5750 o         1 X1S     -0.884800
      6 O1         -2.0990   -0.0000   -1.5040 o         1 X1S     -0.772200
      7 O2         -0.2370    1.1880   -2.3510 o         1 X1S     -0.772200
      8 O3         -0.2370   -1.1880   -2.3510 o         1 X1S     -0.772200
      9 S          -0.6770   -0.0000   -1.6900 s6        1 X1S      1.403800
     10 HB1C       -0.3910   -0.8880    0.4870 h1        1 X1S      0.074700
     11 HB2C       -0.3910    0.8880    0.4870 h1        1 X1S      0.074700
     12 HG1C        1.8970   -0.9040   -0.5100 hc        1 X1S      0.027700
     13 HG2C        1.8970    0.9040   -0.5100 hc        1 X1S      0.027700
@<TRIPOS>BOND
     1    1    2 1   
     2    1    9 1   
     3    1   10 1   
     4    1   11 1   
     5    2    3 1   
     6    2   12 1   
     7    2   13 1   
     8    3    4 1   
     9    3    5 1   
    10    6    9 1   
    11    7    9 1   
    12    8    9 1   
@<TRIPOS>SUBSTRUCTURE
     1 X1S         1 TEMP              0 ****  ****    0 ROOT
