@<TRIPOS>MOLECULE
X1S
   13    12     1     0     0
SMALL
bcc


@<TRIPOS>ATOM
      1 CB          0.0390   -0.2310   -0.1010 c3        1 X1S     -0.289600
      2 CG          1.4880    0.1650    0.0110 c3        1 X1S     -0.133400
      3 CD          2.0300    0.1150    1.4430 c         1 X1S      0.902600
      4 OE1         1.3990    0.6850    2.3850 o         1 X1S     -0.884800
      5 OE2         3.1390   -0.4740    1.6480 o         1 X1S     -0.884800
      6 O1         -2.1040   -0.0280   -1.4290 o         1 X1S     -0.771533
      7 O2         -0.2480    1.1960   -2.2430 o         1 X1S     -0.771533
      8 O3         -0.3080   -1.1660   -2.4610 o         1 X1S     -0.771533
      9 S          -0.6910   -0.0350   -1.6750 s6        1 X1S      1.403800
     10 HB1C       -0.0590   -1.3000    0.2130 h1        1 X1S      0.074200
     11 HB2C       -0.5300    0.3630    0.6600 h1        1 X1S      0.074200
     12 HG1C        2.1140   -0.5060   -0.6330 hc        1 X1S      0.026200
     13 HG2C        1.6120    1.2150   -0.3640 hc        1 X1S      0.026200
@<TRIPOS>BOND
     1    1    2 1   
     2    1    9 1   
     3    1   10 1   
     4    1   11 1   
     5    2    3 1   
     6    2   12 1   
     7    2   13 1   
     8    3    4 1   
     9    3    5 1   
    10    6    9 1   
    11    7    9 1   
    12    8    9 1   
@<TRIPOS>SUBSTRUCTURE
     1 X1S         1 TEMP              0 ****  ****    0 ROOT
