@<TRIPOS>MOLECULE
X1S
   13    12     1     0     0
SMALL
bcc


@<TRIPOS>ATOM
      1 CB         -0.0400    0.5510   -0.0000 c3        1 X1S     -0.288600
      2 CG         -1.1140   -0.5030   -0.0000 c3        1 X1S     -0.133400
      3 CD         -2.5460    0.0360   -0.0000 c         1 X1S      0.900600
      4 OE1        -2.7800    1.2820    0.0000 o         1 X1S     -0.884800
      5 OE2        -3.4940   -0.8160   -0.0000 o         1 X1S     -0.884800
      6 O1          2.4140    1.1530    0.0000 o         1 X1S     -0.772200
      7 O2          1.8000   -0.7990    1.1880 o         1 X1S     -0.772200
      8 O3          1.8000   -0.7980   -1.1880 o         1 X1S     -0.772200
      9 S           1.6020   -0.0300    0.0000 s6        1 X1S      1.403800
     10 HB1C       -0.2090    1.2120   -0.8880 h1        1 X1S      0.074700
     11 HB2C       -0.2090    1.2130    0.8880 h1        1 X1S      0.074700
     12 HG1C       -0.9960   -1.1560   -0.9040 hc        1 X1S      0.027700
     13 HG2C       -0.9960   -1.1560    0.9040 hc        1 X1S      0.027700
@<TRIPOS>BOND
     1    1    2 1   
     2    1    9 1   
     3    1   10 1   
     4    1   11 1   
     5    2    3 1   
     6    2   12 1   
     7    2   13 1   
     8    3    4 1   
     9    3    5 1   
    10    6    9 1   
    11    7    9 1   
    12    8    9 1   
@<TRIPOS>SUBSTRUCTURE
     1 X1S         1 TEMP              0 ****  ****    0 ROOT
