@<TRIPOS>MOLECULE
X1X
   22    22     1     0     0
SMALL
bcc


@<TRIPOS>ATOM
      1 O6          2.5290    0.7160    0.9450 o         1 X1X     -0.817300
      2 C6          2.3040   -0.0570   -0.0270 c         1 X1X      0.936600
      3 OAB         3.1760   -0.6410   -0.7170 o         1 X1X     -0.817300
      4 C5          0.8180   -0.2790   -0.4570 c3        1 X1X     -0.031900
      5 O5          0.2830   -1.2870    0.4050 os        1 X1X     -0.415600
      6 C1         -1.0490   -1.6510    0.1310 c3        1 X1X      0.298900
      7 O1         -1.0440   -2.3750   -1.0840 oh        1 X1X     -0.652800
      8 C2         -2.0410   -0.4800    0.0070 c3        1 X1X      0.101100
      9 O2         -2.4090   -0.0360    1.2990 oh        1 X1X     -0.616800
     10 C3         -1.4610    0.6710   -0.8310 c3        1 X1X      0.109100
     11 O3         -2.2960    1.8090   -0.7470 oh        1 X1X     -0.604800
     12 C4         -0.0220    0.9970   -0.3860 c3        1 X1X      0.109100
     13 O4         -0.1180    1.5470    0.9180 oh        1 X1X     -0.663800
     14 H2          0.8010   -0.6620   -1.5150 h1        1 X1X      0.041700
     15 H3         -1.3470   -2.3240    0.9870 h2        1 X1X      0.064700
     16 H4         -0.1680   -2.7740   -1.1750 ho        1 X1X      0.427000
     17 H5         -2.9990   -0.8460   -0.4540 h1        1 X1X      0.079700
     18 H6         -1.6040    0.3030    1.7230 ho        1 X1X      0.432000
     19 H7         -1.4620    0.3810   -1.9170 h1        1 X1X      0.078700
     20 H8         -2.2800    2.0920    0.1780 ho        1 X1X      0.418000
     21 H9          0.4220    1.7730   -1.0680 h1        1 X1X      0.052700
     22 H10         0.7560    1.4460    1.3380 ho        1 X1X      0.471000
@<TRIPOS>BOND
     1    1    2 1   
     2    2    3 1   
     3    2    4 1   
     4    4    5 1   
     5    4   12 1   
     6    4   14 1   
     7    5    6 1   
     8    6    7 1   
     9    6    8 1   
    10    6   15 1   
    11    7   16 1   
    12    8    9 1   
    13    8   10 1   
    14    8   17 1   
    15    9   18 1   
    16   10   11 1   
    17   10   12 1   
    18   10   19 1   
    19   11   20 1   
    20   12   13 1   
    21   12   21 1   
    22   13   22 1   
@<TRIPOS>SUBSTRUCTURE
     1 X1X         1 TEMP              0 ****  ****    0 ROOT
