@<TRIPOS>MOLECULE
X20
   58    61     1     0     0
SMALL
bcc


@<TRIPOS>ATOM
      1 C          -4.2420    0.4900   -0.0490 c         1 X20      0.773100
      2 N          -3.4840   -0.6520   -0.3520 n         1 X20     -0.229200
      3 O          -5.4370    0.6530   -0.3160 o         1 X20     -0.534000
      4 CL          2.8980    2.7320   -0.4660 cl        1 X20     -0.096400
      5 C1         -2.0810   -0.7800   -0.3000 ca        1 X20      0.087600
      6 N1          1.2550    0.4520    0.6420 nh        1 X20     -0.720300
      7 O1          7.4670   -0.1800   -0.8540 o         1 X20     -0.598100
      8 C2         -1.0880    0.0710    0.1890 ca        1 X20     -0.291300
      9 N2          7.6170   -0.8950    1.3130 n         1 X20     -0.479800
     10 O2         -6.3180   -1.7260   -0.2000 os        1 X20     -0.350800
     11 C3          0.2590   -0.3870    0.0930 ca        1 X20      0.652200
     12 N3          0.6050   -1.6000   -0.4630 nb        1 X20     -0.717000
     13 O3         -3.5130    1.4540    0.5930 os        1 X20     -0.437900
     14 C4          2.6320    0.2030    0.4920 ca        1 X20      0.169600
     15 N4         -7.4510   -2.7590   -1.8780 nc        1 X20     -0.674000
     16 C5          3.2020   -1.0280    0.8880 ca        1 X20     -0.120000
     17 C6          4.5750   -1.2290    0.8210 ca        1 X20     -0.087000
     18 C7          5.4230   -0.2150    0.3680 ca        1 X20     -0.145600
     19 C8          6.8930   -0.4250    0.2280 c         1 X20      0.676700
     20 C9          9.0210   -1.1750    1.1830 c3        1 X20      0.080300
     21 C10         7.0490   -1.0740    2.6160 c3        1 X20      0.080300
     22 C11         4.8850    1.0090   -0.0360 ca        1 X20     -0.059000
     23 C12         3.5080    1.2190    0.0280 ca        1 X20     -0.040600
     24 C13        -0.3630   -2.3940   -0.9230 ca        1 X20      0.483200
     25 C14        -1.7220   -2.0550   -0.8770 ca        1 X20     -0.253100
     26 C15        -2.9480   -2.6980   -1.2820 cc        1 X20     -0.105200
     27 C16        -3.9970   -1.8410   -0.9620 cd        1 X20     -0.056200
     28 C17        -5.3860   -2.1080   -1.1780 cd        1 X20      0.212200
     29 C18        -6.0900   -2.7430   -2.2020 cc        1 X20      0.261900
     30 C19        -7.5530   -2.1520   -0.6980 cd        1 X20      0.496300
     31 C20        -4.1730    2.6860    1.0090 c3        1 X20      0.184800
     32 C21        -5.2780    2.3910    2.0070 c3        1 X20     -0.116433
     33 C22        -3.0320    3.4490    1.6800 c3        1 X20     -0.116433
     34 C23        -4.6890    3.4500   -0.1980 c3        1 X20     -0.116433
     35 HN1         1.0040    1.4210    0.6140 hn        1 X20      0.432800
     36 H2         -1.3380    1.0440    0.6350 ha        1 X20      0.171000
     37 H5          2.5580   -1.8430    1.2560 ha        1 X20      0.162000
     38 H6          4.9950   -2.2010    1.1270 ha        1 X20      0.145000
     39 H9          9.6210   -0.4320    1.7760 h1        1 X20      0.043367
     40 H9A         9.2360   -2.2050    1.5740 h1        1 X20      0.043367
     41 H9B         9.3320   -1.1170    0.1060 h1        1 X20      0.043367
     42 H10         6.8060   -2.1580    2.7910 h1        1 X20      0.043367
     43 H10A        7.7860   -0.7460    3.3980 h1        1 X20      0.043367
     44 H10B        6.1110   -0.4700    2.7350 h1        1 X20      0.043367
     45 H11         5.5520    1.7970   -0.4230 ha        1 X20      0.166000
     46 H13        -0.0290   -3.3550   -1.3570 h4        1 X20      0.032100
     47 H15        -3.0340   -3.6800   -1.7400 ha        1 X20      0.170000
     48 H18        -5.7210   -3.1740   -3.1320 h4        1 X20      0.056100
     49 H19        -8.4200   -1.9310   -0.0750 h5        1 X20      0.090100
     50 H21        -4.8920    1.7370    2.8250 hc        1 X20      0.055367
     51 H21A       -5.6420    3.3490    2.4490 hc        1 X20      0.055367
     52 H21B       -6.1330    1.8750    1.5060 hc        1 X20      0.055367
     53 H22        -2.2050    3.6240    0.9520 hc        1 X20      0.055367
     54 H22A       -3.4180    4.4290    2.0460 hc        1 X20      0.055367
     55 H22B       -2.6320    2.8630    2.5420 hc        1 X20      0.055367
     56 H23        -5.5580    2.9210   -0.6570 hc        1 X20      0.055367
     57 H23A       -5.0140    4.4690    0.1230 hc        1 X20      0.055367
     58 H23B       -3.8820    3.5510   -0.9630 hc        1 X20      0.055367
@<TRIPOS>BOND
     1    1    2 1   
     2    1    3 2   
     3    1   13 1   
     4    2    5 1   
     5    2   27 1   
     6    4   23 1   
     7    5    8 ar  
     8    5   25 ar  
     9    6   11 1   
    10    6   14 1   
    11    6   35 1   
    12    7   19 2   
    13    8   11 ar  
    14    8   36 1   
    15    9   19 1   
    16    9   20 1   
    17    9   21 1   
    18   10   28 1   
    19   10   30 1   
    20   11   12 ar  
    21   12   24 ar  
    22   13   31 1   
    23   14   16 ar  
    24   14   23 ar  
    25   15   29 1   
    26   15   30 2   
    27   16   17 ar  
    28   16   37 1   
    29   17   18 ar  
    30   17   38 1   
    31   18   19 1   
    32   18   22 ar  
    33   20   39 1   
    34   20   40 1   
    35   20   41 1   
    36   21   42 1   
    37   21   43 1   
    38   21   44 1   
    39   22   23 ar  
    40   22   45 1   
    41   24   25 ar  
    42   24   46 1   
    43   25   26 1   
    44   26   27 2   
    45   26   47 1   
    46   27   28 1   
    47   28   29 2   
    48   29   48 1   
    49   30   49 1   
    50   31   32 1   
    51   31   33 1   
    52   31   34 1   
    53   32   50 1   
    54   32   51 1   
    55   32   52 1   
    56   33   53 1   
    57   33   54 1   
    58   33   55 1   
    59   34   56 1   
    60   34   57 1   
    61   34   58 1   
@<TRIPOS>SUBSTRUCTURE
     1 X20         1 TEMP              0 ****  ****    0 ROOT
