@<TRIPOS>MOLECULE
X20
   59    62     1     0     0
SMALL
bcc


@<TRIPOS>ATOM
      1 C          -0.0950   -0.4470    0.3210 c         1 X20      0.779100
      2 N           1.2160   -0.0370   -0.0030 n         1 X20     -0.222200
      3 O          -0.5380   -0.4580    1.4780 o         1 X20     -0.557000
      4 Cl          3.2230    1.2590    7.2630 cl        1 X20     -0.055400
      5 C1          2.2340    0.1120    0.9580 ca        1 X20      0.053600
      6 N1          3.4040    0.2600    4.4470 nu        1 X20     -0.709300
      7 O1          8.5600   -2.0840    7.5480 o         1 X20     -0.453100
      8 C2          2.2030    0.0470    2.3570 ca        1 X20     -0.224300
      9 N2          7.2620   -1.5730    9.4160 nx        1 X20     -0.594200
     10 O2         -0.1380    0.7460   -2.6340 os        1 X20     -0.359800
     11 C3          3.4330    0.2640    3.0220 ca        1 X20      0.592200
     12 N3          4.6240    0.5230    2.3780 nb        1 X20     -0.704000
     13 O3         -0.8230   -0.8530   -0.7500 os        1 X20     -0.410900
     14 C4          4.4150   -0.1600    5.2640 ca        1 X20      0.300600
     15 N4          0.3830   -0.1050   -4.6760 nc        1 X20     -0.662000
     16 C5          5.4580   -1.0330    4.8330 ca        1 X20     -0.183000
     17 C6          6.4270   -1.4730    5.7040 ca        1 X20      0.004000
     18 C7          6.4150   -1.0940    7.0670 ca        1 X20     -0.282600
     19 C8          7.4870   -1.6030    7.8940 c         1 X20      0.586700
     20 C9          7.9710   -0.4070    9.9980 c3        1 X20      0.085100
     21 C10         7.7160   -2.8410   10.0360 c3        1 X20      0.085100
     22 C11         5.3990   -0.2350    7.5190 ca        1 X20     -0.034000
     23 C12         4.4210    0.2190    6.6520 ca        1 X20     -0.087600
     24 C13         4.6290    0.5740    1.0450 ca        1 X20      0.469200
     25 C14         3.4740    0.3820    0.2690 ca        1 X20     -0.207100
     26 C15         3.1770    0.3980   -1.1410 cc        1 X20     -0.125200
     27 C16         1.8120    0.1430   -1.2840 cd        1 X20     -0.021200
     28 C17         1.1100    0.1070   -2.5310 cd        1 X20      0.194200
     29 C18         1.4200   -0.4120   -3.7880 cc        1 X20      0.281900
     30 C19        -0.5160    0.5750   -3.9700 cd        1 X20      0.499300
     31 C20        -2.2270   -1.2300   -0.5530 c3        1 X20      0.185800
     32 C21        -3.0190   -0.0440   -0.0350 c3        1 X20     -0.117100
     33 C22        -2.6560   -1.5930   -1.9730 c3        1 X20     -0.117100
     34 C23        -2.3310   -2.4330    0.3650 c3        1 X20     -0.117100
     35 HN1         2.6710    0.8150    4.8430 hn        1 X20      0.467800
     36 H2          1.2630   -0.1570    2.8940 ha        1 X20      0.190000
     37 H5          5.4970   -1.3680    3.7830 ha        1 X20      0.184000
     38 H6          7.2310   -2.1390    5.3400 ha        1 X20      0.168000
     39 H9          7.5670    0.5360    9.5410 hx        1 X20      0.105033
     40 H9A         9.0680   -0.4940    9.7730 hx        1 X20      0.105033
     41 H9B         7.8170   -0.3860   11.1100 hx        1 X20      0.105033
     42 H10         8.8050   -3.0010    9.8070 hx        1 X20      0.105033
     43 H10A        7.1210   -3.6920    9.6090 hx        1 X20      0.105033
     44 H10B        7.5660   -2.7900   11.1470 hx        1 X20      0.105033
     45 H11         5.3720    0.1260    8.5600 ha        1 X20      0.132000
     46 H13         5.6070    0.7880    0.5740 h4        1 X20      0.043100
     47 H15         3.8840    0.5920   -1.9440 ha        1 X20      0.180000
     48 H18         2.2960   -0.9760   -4.1110 h4        1 X20      0.062100
     49 H19        -1.4730    1.0160   -4.2560 h5        1 X20      0.096100
     50 H21        -4.1060   -0.2990   -0.0330 hc        1 X20      0.058144
     51 H21A       -2.7090    0.2120    1.0070 hc        1 X20      0.058144
     52 H21B       -2.8550    0.8440   -0.6900 hc        1 X20      0.058144
     53 H22        -2.3770   -0.7720   -2.6780 hc        1 X20      0.058144
     54 H22A       -3.7620   -1.7390   -1.9910 hc        1 X20      0.058144
     55 H22B       -2.1530   -2.5320   -2.3020 hc        1 X20      0.058144
     56 H23        -2.1110   -2.1440    1.4220 hc        1 X20      0.058144
     57 H23A       -3.3670   -2.8450    0.3110 hc        1 X20      0.058144
     58 H23B       -1.6090   -3.2230    0.0480 hc        1 X20      0.058144
     59 H211        6.2550   -1.4720    9.5890 hn        1 X20      0.449800
@<TRIPOS>BOND
     1    1    2 1   
     2    1    3 2   
     3    1   13 1   
     4    2    5 1   
     5    2   27 1   
     6    4   23 1   
     7    5    8 ar  
     8    5   25 ar  
     9    6   11 1   
    10    6   14 1   
    11    6   35 1   
    12    7   19 2   
    13    8   11 ar  
    14    8   36 1   
    15    9   19 1   
    16    9   20 1   
    17    9   21 1   
    18    9   59 1   
    19   10   28 1   
    20   10   30 1   
    21   11   12 ar  
    22   12   24 ar  
    23   13   31 1   
    24   14   16 ar  
    25   14   23 ar  
    26   15   29 1   
    27   15   30 2   
    28   16   17 ar  
    29   16   37 1   
    30   17   18 ar  
    31   17   38 1   
    32   18   19 1   
    33   18   22 ar  
    34   20   39 1   
    35   20   40 1   
    36   20   41 1   
    37   21   42 1   
    38   21   43 1   
    39   21   44 1   
    40   22   23 ar  
    41   22   45 1   
    42   24   25 ar  
    43   24   46 1   
    44   25   26 1   
    45   26   27 2   
    46   26   47 1   
    47   27   28 1   
    48   28   29 2   
    49   29   48 1   
    50   30   49 1   
    51   31   32 1   
    52   31   33 1   
    53   31   34 1   
    54   32   50 1   
    55   32   51 1   
    56   32   52 1   
    57   33   53 1   
    58   33   54 1   
    59   33   55 1   
    60   34   56 1   
    61   34   57 1   
    62   34   58 1   
@<TRIPOS>SUBSTRUCTURE
     1 X20         1 TEMP              0 ****  ****    0 ROOT
