@<TRIPOS>MOLECULE
X20
   60    63     1     0     0
SMALL
bcc


@<TRIPOS>ATOM
      1 C          -0.0720   -0.3860    0.4820 c         1 X20      0.785100
      2 N           1.2480    0.0640    0.2010 n         1 X20     -0.211200
      3 O          -0.5590   -0.2950    1.6180 o         1 X20     -0.564000
      4 CL          5.3670    2.9450    5.4040 cl        1 X20      0.037600
      5 C1          2.1560    0.4050    1.2180 ca        1 X20      0.015600
      6 N1          3.0080    1.1330    4.7820 n4        1 X20     -0.613100
      7 O1          8.5800   -0.9060    7.4100 o         1 X20     -0.372100
      8 C2          1.9900    0.5250    2.6060 ca        1 X20     -0.161300
      9 N2          7.1470   -2.1290    8.7970 n4        1 X20     -0.586200
     10 O2          0.0430    0.2960   -2.5750 os        1 X20     -0.356800
     11 C3          3.1390    0.9210    3.3130 ca        1 X20      0.394200
     12 N3          4.3760    1.1740    2.7730 nb        1 X20     -0.673000
     13 O3         -0.7020   -0.9410   -0.5710 os        1 X20     -0.396900
     14 C4          4.1140    0.5520    5.5500 ca        1 X20      0.034600
     15 N4          0.9380   -0.4700   -4.5200 nc        1 X20     -0.653000
     16 C5          4.0470   -0.7950    5.9520 ca        1 X20     -0.082000
     17 C6          5.0990   -1.3610    6.6670 ca        1 X20     -0.087000
     18 C7          6.2290   -0.5940    6.9750 ca        1 X20     -0.144600
     19 C8          7.4110   -1.1580    7.6570 c         1 X20      0.553700
     20 C9          7.7810   -1.6300   10.0490 c3        1 X20      0.080600
     21 C10         7.6680   -3.4790    8.4440 c3        1 X20      0.080600
     22 C11         6.3090    0.7430    6.5690 ca        1 X20     -0.040000
     23 C12         5.2500    1.3300    5.8620 ca        1 X20      0.049400
     24 C13         4.5120    1.0550    1.4530 ca        1 X20      0.473200
     25 C14         3.4440    0.6790    0.6090 ca        1 X20     -0.143100
     26 C15         3.2830    0.5090   -0.8010 cc        1 X20     -0.159200
     27 C16         1.9430    0.1460   -1.0320 cd        1 X20      0.049800
     28 C17         1.3810   -0.0640   -2.3270 cd        1 X20      0.141200
     29 C18         1.9190   -0.5330   -3.5290 cc        1 X20      0.328900
     30 C19        -0.1500    0.0250   -3.9320 cd        1 X20      0.531300
     31 C20        -2.1040   -1.3840   -0.4150 c3        1 X20      0.189800
     32 C21        -2.9840   -0.1940   -0.0870 c3        1 X20     -0.119767
     33 C22        -2.4070   -1.9300   -1.8060 c3        1 X20     -0.119767
     34 C23        -2.1950   -2.4770    0.6310 c3        1 X20     -0.119767
     35 HN1         2.1200    0.7120    5.0870 hn        1 X20      0.474300
     36 H2          1.0090    0.3310    3.0730 ha        1 X20      0.198000
     37 H5          3.1730   -1.4230    5.6980 ha        1 X20      0.184000
     38 H6          5.0310   -2.4270    6.9440 ha        1 X20      0.162000
     39 H9          7.6040   -2.3720   10.8750 hx        1 X20      0.116867
     40 H9A         8.8880   -1.5100    9.8840 hx        1 X20      0.116867
     41 H9B         7.3300   -0.6400   10.3250 hx        1 X20      0.116867
     42 H10         7.1340   -3.8560    7.5320 hx        1 X20      0.116867
     43 H10A        8.7710   -3.4100    8.2370 hx        1 X20      0.116867
     44 H10B        7.4930   -4.1820    9.3040 hx        1 X20      0.116867
     45 H11         7.2160    1.3410    6.7880 ha        1 X20      0.204000
     46 H13         5.5190    1.2760    1.0450 h4        1 X20      0.066100
     47 H15         4.0440    0.6550   -1.5670 ha        1 X20      0.196000
     48 H18         2.9220   -0.9080   -3.7460 h4        1 X20      0.069100
     49 H19        -1.1420    0.2550   -4.3340 h5        1 X20      0.108100
     50 H21        -2.8370    0.6160   -0.8410 hc        1 X20      0.062922
     51 H21A       -2.7460    0.2060    0.9280 hc        1 X20      0.062922
     52 H21B       -4.0540   -0.5140   -0.1030 hc        1 X20      0.062922
     53 H22        -1.8400   -2.8740   -1.9870 hc        1 X20      0.062922
     54 H22A       -2.1160   -1.1820   -2.5840 hc        1 X20      0.062922
     55 H22B       -3.5010   -2.1360   -1.8820 hc        1 X20      0.062922
     56 H23        -2.0700   -2.0560    1.6580 hc        1 X20      0.062922
     57 H23A       -1.4080   -3.2490    0.4550 hc        1 X20      0.062922
     58 H23B       -3.1980   -2.9630    0.5620 hc        1 X20      0.062922
     59 H12         2.9750    2.1530    4.9520 hn        1 X20      0.474300
     60 H211        6.1330   -2.1930    8.9480 hn        1 X20      0.453800
@<TRIPOS>BOND
     1    1    2 1   
     2    1    3 2   
     3    1   13 1   
     4    2    5 1   
     5    2   27 1   
     6    4   23 1   
     7    5    8 ar  
     8    5   25 ar  
     9    6   11 1   
    10    6   14 1   
    11    6   35 1   
    12    6   59 1   
    13    7   19 2   
    14    8   11 ar  
    15    8   36 1   
    16    9   19 1   
    17    9   20 1   
    18    9   21 1   
    19    9   60 1   
    20   10   28 1   
    21   10   30 1   
    22   11   12 ar  
    23   12   24 ar  
    24   13   31 1   
    25   14   16 ar  
    26   14   23 ar  
    27   15   29 1   
    28   15   30 2   
    29   16   17 ar  
    30   16   37 1   
    31   17   18 ar  
    32   17   38 1   
    33   18   19 1   
    34   18   22 ar  
    35   20   39 1   
    36   20   40 1   
    37   20   41 1   
    38   21   42 1   
    39   21   43 1   
    40   21   44 1   
    41   22   23 ar  
    42   22   45 1   
    43   24   25 ar  
    44   24   46 1   
    45   25   26 1   
    46   26   27 2   
    47   26   47 1   
    48   27   28 1   
    49   28   29 2   
    50   29   48 1   
    51   30   49 1   
    52   31   32 1   
    53   31   33 1   
    54   31   34 1   
    55   32   50 1   
    56   32   51 1   
    57   32   52 1   
    58   33   53 1   
    59   33   54 1   
    60   33   55 1   
    61   34   56 1   
    62   34   57 1   
    63   34   58 1   
@<TRIPOS>SUBSTRUCTURE
     1 X20         1 TEMP              0 ****  ****    0 ROOT
