@<TRIPOS>MOLECULE
X21
   63    65     1     0     0
SMALL
bcc


@<TRIPOS>ATOM
      1 C           0.5340   -2.7170   -1.4020 c2        1 X21     -0.276000
      2 N           1.6610   -2.2140   -0.9500 n3        1 X21      0.111000
      3 O           7.3620    1.0190    0.4250 os        1 X21     -0.262000
      4 C1          3.1500   -0.2580    1.2400 c1        1 X21      0.372000
      5 N1          2.9100   -0.1630    2.3770 n2        1 X21     -0.173000
      6 O1          5.4990    0.4020    1.5760 o         1 X21     -0.416000
      7 C2          1.8850   -0.9070   -0.6610 c2        1 X21     -0.466000
      8 N2          6.7620    0.7020   -4.7610 n3        1 X21     -0.213000
      9 C3          3.1590   -0.4330   -0.1540 c2        1 X21     -0.123000
     10 N3          9.1140    0.4530   -3.9610 n3        1 X21     -0.262000
     11 C4          4.1860   -0.1030   -1.0070 c2        1 X21      0.220000
     12 N4         14.4240    2.1870   -9.8050 n2        1 X21     -0.291000
     13 C5          4.0130   -0.2240   -2.4880 c2        1 X21     -0.082000
     14 N5         13.3670    0.1400   -9.2860 n4        1 X21     -0.043000
     15 C6          5.1700    0.1630   -3.0830 c2        1 X21     -0.063000
     16 N6          5.4920    0.3680   -0.7610 n         1 X21     -0.208000
     17 C7          5.5520    0.2800   -4.4890 c1        1 X21     -0.021000
     18 C8          7.8170    1.1050   -3.7910 c3        1 X21      0.063000
     19 C9          9.7640    0.6150   -5.2070 c2        1 X21      0.038000
     20 C10        10.6010   -0.3260   -5.7320 c2        1 X21     -0.078000
     21 C11        11.4340   -0.1560   -6.9040 c2        1 X21     -0.191000
     22 C12        12.2040    0.9270   -7.1160 c2        1 X21     -0.019000
     23 C13        13.0570    1.1420   -8.2410 c2        1 X21     -0.303000
     24 C14        13.7160    2.3160   -8.6020 c2        1 X21      0.056000
     25 C15        14.2780    0.9710  -10.2800 c1        1 X21     -0.015000
     26 C17         8.9070    2.1250   -6.9980 c1        1 X21      0.255000
     27 C18         9.5750    1.9040   -5.8850 c2        1 X21     -0.479000
     28 C19         7.3880    0.9730   -2.3350 c2        1 X21     -0.098000
     29 C20         6.1500    0.5480   -2.0270 c2        1 X21     -0.029000
     30 C21         6.0820    0.5860    0.4950 c2        1 X21      0.442000
     31 C22         8.1140    1.2930    1.6610 c3        1 X21      0.117000
     32 C23         8.2620    0.0220    2.4740 c3        1 X21     -0.237667
     33 C24         9.4600    1.7460    1.1020 c3        1 X21     -0.237667
     34 C25         7.4470    2.4060    2.4440 c3        1 X21     -0.237667
     35 H           2.4360   -2.8440   -0.8090 hn        1 X21      0.230000
     36 HA         -0.3390   -2.0720   -1.5770 h4        1 X21      0.170500
     37 HB          0.4610   -3.7930   -1.6140 h4        1 X21      0.170500
     38 H1          2.8430   -0.0580    3.3470 hn        1 X21      0.379000
     39 H2          1.0740   -0.1890   -0.8290 h4        1 X21      0.186000
     40 HN3         8.1510    1.2640   -1.5930 ha        1 X21      0.189000
     41 H5          3.0710   -0.5480   -2.9360 ha        1 X21      0.206000
     42 H7          7.0170    0.8000   -5.7260 hn        1 X21      0.268000
     43 H11        11.4210   -1.0100   -7.6030 ha        1 X21      0.138000
     44 H14        13.7150    3.2660   -8.0570 h4        1 X21      0.180000
     45 H15        12.5180   -0.1480   -9.7660 hn        1 X21      0.228000
     46 H16        13.4950   -1.6010   -8.0550 hx        1 X21      0.116000
     47 H16A       14.3580   -1.6810   -9.6780 hx        1 X21      0.116000
     48 H16B       15.0590   -0.6880   -8.3130 hx        1 X21      0.116000
     49 H17        12.2010    1.7620   -6.3890 ha        1 X21      0.137000
     50 H18        10.0780    2.7670   -5.3900 ha        1 X21      0.213000
     51 H19         7.9890    2.2210   -3.9700 h2        1 X21      0.146000
     52 H23         8.9790    0.2050    3.3110 hc        1 X21      0.101667
     53 H23A        8.6580   -0.8040    1.8360 hc        1 X21      0.101667
     54 H23B        7.2800   -0.2900    2.9050 hc        1 X21      0.101667
     55 H24         9.9140    0.9390    0.4790 hc        1 X21      0.101667
     56 H24A       10.1410    1.9790    1.9550 hc        1 X21      0.101667
     57 H24B        9.3320    2.6590    0.4730 hc        1 X21      0.101667
     58 H25         7.2460    3.2810    1.7810 hc        1 X21      0.101667
     59 H25A        8.1250    2.7290    3.2710 hc        1 X21      0.101667
     60 H25B        6.4830    2.0570    2.8860 hc        1 X21      0.101667
     61 CL         10.7380   -1.8680   -5.0020 cl        1 X21     -0.018000
     62 H32         9.1180   -0.4970   -3.6390 hn        1 X21      0.206000
     63 C16        14.1080   -1.0290   -8.8000 c3        1 X21     -0.147000
@<TRIPOS>BOND
     1    1    2 1   
     2    1   36 1   
     3    1   37 1   
     4    2    7 1   
     5    2   35 1   
     6    3   30 1   
     7    3   31 1   
     8    4    5 1   
     9    4    9 1   
    10    5   38 1   
    11    6   30 1   
    12    7    9 1   
    13    7   39 1   
    14    8   17 1   
    15    8   18 1   
    16    8   42 1   
    17    9   11 1   
    18   10   18 1   
    19   10   19 1   
    20   10   62 1   
    21   11   13 1   
    22   11   16 1   
    23   12   24 1   
    24   12   25 1   
    25   13   15 1   
    26   13   41 1   
    27   14   23 1   
    28   14   25 1   
    29   14   45 1   
    30   14   63 1   
    31   15   17 1   
    32   15   29 1   
    33   16   29 1   
    34   16   30 1   
    35   18   28 1   
    36   18   51 1   
    37   19   20 1   
    38   19   27 1   
    39   20   21 1   
    40   20   61 1   
    41   21   22 1   
    42   21   43 1   
    43   22   23 1   
    44   22   49 1   
    45   23   24 1   
    46   24   44 1   
    47   26   27 1   
    48   27   50 1   
    49   28   29 1   
    50   28   40 1   
    51   31   32 1   
    52   31   33 1   
    53   31   34 1   
    54   32   52 1   
    55   32   53 1   
    56   32   54 1   
    57   33   55 1   
    58   33   56 1   
    59   33   57 1   
    60   34   58 1   
    61   34   59 1   
    62   34   60 1   
    63   46   63 1   
    64   47   63 1   
    65   48   63 1   
@<TRIPOS>SUBSTRUCTURE
     1 X21         1 TEMP              0 ****  ****    0 ROOT
