@<TRIPOS>MOLECULE
X21
   62    66     1     0     0
SMALL
bcc


@<TRIPOS>ATOM
      1 C           8.4730    3.8210    0.6430 c3        1 X21      0.039600
      2 N           7.4320    2.8470    0.8650 na        1 X21      0.088400
      3 O           3.3050   -1.8470   -0.5150 os        1 X21     -0.439900
      4 C1          6.4420    1.0230    1.5040 cc        1 X21      0.357200
      5 N1          7.6260    1.6780    1.5080 nd        1 X21     -0.515800
      6 O1          5.3130   -1.1190    0.2370 o         1 X21     -0.551000
      7 C2          6.1160    2.9820    0.4220 cd        1 X21     -0.115300
      8 N2         -0.5800    1.5330    0.1410 nb        1 X21     -0.715000
      9 C3          5.4340    1.8110    0.8210 cc        1 X21     -0.241100
     10 N3         -1.3720   -0.6640   -0.4990 nh        1 X21     -0.715300
     11 C4          4.0370    1.5690    0.6350 cc        1 X21      0.107400
     12 N4         -8.8080    2.0220   -0.4560 nc        1 X21     -0.666000
     13 C5          3.0430    2.5390    0.7400 cd        1 X21     -0.152200
     14 N5         -7.9830   -0.1010   -0.5340 na        1 X21     -0.194900
     15 C6          1.7760    1.9110    0.4620 ca        1 X21     -0.235100
     16 N6          3.4390    0.3090    0.3000 n         1 X21     -0.234200
     17 C7          0.4440    2.3420    0.4230 ca        1 X21      0.469200
     18 C8         -0.3190    0.2090   -0.1330 ca        1 X21      0.636200
     19 C9         -2.7250   -0.2790   -0.4310 ca        1 X21      0.154600
     20 C10        -3.6790   -1.0700    0.2570 ca        1 X21     -0.030600
     21 C11        -5.0350   -0.7450    0.2430 ca        1 X21     -0.106000
     22 C12        -5.4830    0.3810   -0.4540 ca        1 X21     -0.017000
     23 C13        -6.8780    0.7660   -0.4660 cd        1 X21     -0.168600
     24 C14        -7.4210    2.0740   -0.4200 cc        1 X21      0.311200
     25 C15        -9.1260    0.7110   -0.5280 cd        1 X21      0.391400
     26 C17        -4.5480    1.1760   -1.1350 ca        1 X21     -0.098000
     27 C18        -3.1980    0.8540   -1.1310 ca        1 X21     -0.107000
     28 C19         0.9950   -0.3470   -0.1160 ca        1 X21     -0.283300
     29 C20         2.0460    0.5210    0.1820 ca        1 X21      0.073600
     30 C21         4.1170   -0.8840    0.0240 c         1 X21      0.775100
     31 C22         3.8700   -3.1400   -0.8770 c3        1 X21      0.185800
     32 C23         4.4070   -3.8550    0.3500 c3        1 X21     -0.116100
     33 C24         2.6520   -3.8760   -1.4350 c3        1 X21     -0.116100
     34 C25         4.9320   -2.9800   -1.9500 c3        1 X21     -0.116100
     35 H           9.2710    3.3860   -0.0160 h1        1 X21      0.059033
     36 HA          8.0250    4.7200    0.1470 h1        1 X21      0.059033
     37 HB          8.9330    4.1210    1.6220 h1        1 X21      0.059033
     38 H1          6.3220    0.0290    1.9430 h4        1 X21      0.065100
     39 H2          5.7620    3.8560   -0.1220 h4        1 X21      0.178000
     40 HN3        -1.2000   -1.6090   -0.2130 hn        1 X21      0.426800
     41 H5          3.1940    3.5830    1.0000 ha        1 X21      0.163000
     42 H7          0.1780    3.3930    0.6370 h4        1 X21      0.029100
     43 H11        -5.7480   -1.3690    0.8040 ha        1 X21      0.147000
     44 H14        -6.8800    3.0170   -0.3540 h4        1 X21      0.044100
     45 H15       -10.1390    0.2980   -0.5760 h5        1 X21      0.060100
     46 H16        -8.0040   -1.9830    0.3950 h1        1 X21      0.056367
     47 H16A       -8.8630   -1.8690   -1.2150 h1        1 X21      0.056367
     48 H16B       -7.0320   -1.8620   -1.1490 h1        1 X21      0.056367
     49 H17        -4.8940    2.0670   -1.6830 ha        1 X21      0.146000
     50 H18        -2.4910    1.4940   -1.6830 ha        1 X21      0.160000
     51 H19         1.1710   -1.4090   -0.3390 ha        1 X21      0.169000
     52 H23         3.6460   -3.8420    1.1660 hc        1 X21      0.054700
     53 H23A        4.6410   -4.9140    0.0870 hc        1 X21      0.054700
     54 H23B        5.3380   -3.3590    0.7180 hc        1 X21      0.054700
     55 H24         2.2360   -3.3230   -2.3110 hc        1 X21      0.054700
     56 H24A        2.9610   -4.8980   -1.7540 hc        1 X21      0.054700
     57 H24B        1.8600   -3.9550   -0.6530 hc        1 X21      0.054700
     58 H25         5.8430   -2.4850   -1.5320 hc        1 X21      0.054700
     59 H25A        5.2150   -3.9860   -2.3410 hc        1 X21      0.054700
     60 H25B        4.5390   -2.3600   -2.7910 hc        1 X21      0.054700
     61 C16        -7.9690   -1.5220   -0.6310 c3        1 X21      0.019600
     62 CL         -3.1920   -2.4550    1.1280 cl        1 X21     -0.105400
@<TRIPOS>BOND
     1    1    2 1   
     2    1   35 1   
     3    1   36 1   
     4    1   37 1   
     5    2    5 1   
     6    2    7 1   
     7    3   30 1   
     8    3   31 1   
     9    4    5 2   
    10    4    9 1   
    11    4   38 1   
    12    6   30 2   
    13    7    9 2   
    14    7   39 1   
    15    8   17 ar  
    16    8   18 ar  
    17    9   11 1   
    18   10   18 1   
    19   10   19 1   
    20   10   40 1   
    21   11   13 2   
    22   11   16 1   
    23   12   24 1   
    24   12   25 2   
    25   13   15 1   
    26   13   41 1   
    27   14   23 1   
    28   14   25 1   
    29   14   61 1   
    30   15   17 ar  
    31   15   29 ar  
    32   16   29 1   
    33   16   30 1   
    34   17   42 1   
    35   18   28 ar  
    36   19   20 ar  
    37   19   27 ar  
    38   20   21 ar  
    39   20   62 1   
    40   21   22 ar  
    41   21   43 1   
    42   22   23 1   
    43   22   26 ar  
    44   23   24 2   
    45   24   44 1   
    46   25   45 1   
    47   26   27 ar  
    48   26   49 1   
    49   27   50 1   
    50   28   29 ar  
    51   28   51 1   
    52   31   32 1   
    53   31   33 1   
    54   31   34 1   
    55   32   52 1   
    56   32   53 1   
    57   32   54 1   
    58   33   55 1   
    59   33   56 1   
    60   33   57 1   
    61   34   58 1   
    62   34   59 1   
    63   34   60 1   
    64   46   61 1   
    65   47   61 1   
    66   48   61 1   
@<TRIPOS>SUBSTRUCTURE
     1 X21         1 TEMP              0 ****  ****    0 ROOT
