@<TRIPOS>MOLECULE
X21
   62    64     1     0     0
SMALL
bcc


@<TRIPOS>ATOM
      1 C           0.8570   -3.7360    1.6940 c2        1 X21     -0.074000
      2 N           1.7180   -2.8000    1.7020 n2        1 X21     -0.294000
      3 O           6.3590    1.9280    0.1840 os        1 X21     -0.247000
      4 C1          2.7940   -0.1970   -1.2370 c1        1 X21      0.291000
      5 N1          2.4230   -1.0400   -0.5160 n2        1 X21     -0.231000
      6 O1          4.8600    0.2330    0.2950 o         1 X21     -0.381000
      7 C2          1.9940    1.3890   -2.8820 c1        1 X21     -0.236000
      8 N2          8.3700    2.0680   -4.6870 n3        1 X21     -0.194000
      9 C3          3.0060    0.7770   -2.2500 c2        1 X21     -0.210000
     10 N3         10.0860    0.8150   -3.3810 n3        1 X21     -0.250000
     11 C4          4.3770    1.0480   -2.6360 c2        1 X21      0.168000
     12 N4         10.4110   -0.8050   -9.3640 n2        1 X21     -0.290000
     13 C5          4.7710    1.3760   -3.9730 c2        1 X21     -0.133000
     14 N5         12.4420   -1.3550   -8.3000 n4        1 X21     -0.046000
     15 C6          6.1500    1.6310   -3.9540 c2        1 X21     -0.044000
     16 N6          5.5020    1.0690   -1.8060 n         1 X21     -0.132000
     17 C7          7.0910    2.0860   -4.9600 c1        1 X21     -0.053000
     18 C8          8.9450    1.7260   -3.3510 c3        1 X21      0.061000
     19 C9         11.1050    0.9620   -4.2540 c2        1 X21      0.198000
     20 C10        12.2420    0.0020   -4.2870 c2        1 X21     -0.105000
     21 C11        12.8660   -0.1840   -5.4710 c2        1 X21     -0.116000
     22 C12        12.6190    0.6680   -6.6910 c3        1 X21     -0.001000
     23 C13        11.9130   -0.0860   -7.7450 c2        1 X21     -0.299000
     24 C14        10.7270    0.1800   -8.3980 c2        1 X21      0.030000
     25 C15        11.3360   -1.7270   -9.3770 c1        1 X21     -0.066000
     26 C17        11.9490    1.9650   -6.3030 c2        1 X21     -0.076000
     27 C18        11.2460    1.9640   -5.1870 c1        1 X21     -0.390000
     28 C19         7.9690    1.2320   -2.3250 c1        1 X21     -0.165000
     29 C20         6.6320    1.4110   -2.6020 c2        1 X21     -0.151000
     30 C21         5.5400    1.0030   -0.3960 c2        1 X21      0.450000
     31 C22         7.1670    1.5060    1.3260 c3        1 X21      0.115000
     32 C23         7.8720    0.2030    0.9940 c3        1 X21     -0.238667
     33 C24         8.1690    2.6480    1.4660 c3        1 X21     -0.238667
     34 C25         6.3000    1.3940    2.5660 c3        1 X21     -0.238667
     35 H           0.2830   -3.9180    0.7650 h4        1 X21      0.118000
     36 HA          2.2290   -2.6470    2.5450 hn        1 X21      0.161000
     37 HB          0.6080   -4.4100    2.5370 h4        1 X21      0.118000
     38 H1          2.1870   -1.6560    0.2250 hn        1 X21      0.379000
     39 H2          0.9320    1.2710   -2.6920 ha        1 X21      0.095000
     40 HN3        10.0660    0.0580   -2.7320 hn        1 X21      0.263000
     41 H5          4.0800    1.4250   -4.8140 ha        1 X21      0.197000
     42 H7          9.0240    2.4470   -5.3490 hn        1 X21      0.272000
     43 H11        13.6200   -0.9770   -5.5960 ha        1 X21      0.133000
     44 H14        10.0570    1.0310   -8.2350 h4        1 X21      0.188000
     45 H15        12.4580   -2.0730   -7.5810 hn        1 X21      0.220000
     46 H16        14.5340   -0.9660   -8.1710 hx        1 X21      0.109333
     47 H16A       14.0120   -2.2120   -9.4180 hx        1 X21      0.109333
     48 H16B       13.7170   -0.4340   -9.7180 hx        1 X21      0.109333
     49 H17        13.6440    0.9650   -7.0800 hc        1 X21      0.116000
     50 H18        12.1570    2.8460   -6.9200 ha        1 X21      0.147000
     51 H19         9.3400    2.7280   -2.9540 h2        1 X21      0.147000
     52 H23         8.3080    0.2700   -0.0380 hc        1 X21      0.095778
     53 H23A        7.1500   -0.6480    1.0280 hc        1 X21      0.095778
     54 H23B        8.6880    0.0170    1.7310 hc        1 X21      0.095778
     55 H24         8.8160    2.4550    2.3540 hc        1 X21      0.095778
     56 H24A        8.8030    2.7150    0.5510 hc        1 X21      0.095778
     57 H24B        7.6320    3.6170    1.6020 hc        1 X21      0.095778
     58 H25         5.7380    2.3450    2.7290 hc        1 X21      0.095778
     59 H25A        6.9490    1.1980    3.4530 hc        1 X21      0.095778
     60 H25B        5.5670    0.5590    2.4580 hc        1 X21      0.095778
     61 C16        13.7560   -1.2330   -8.9330 c3        1 X21     -0.144000
     62 CL         12.6230   -0.9120   -2.9100 cl        1 X21     -0.012000
@<TRIPOS>BOND
     1    1    2 1   
     2    1   35 1   
     3    1   37 1   
     4    2   36 1   
     5    3   30 1   
     6    3   31 1   
     7    4    5 1   
     8    4    9 1   
     9    5   38 1   
    10    6   30 1   
    11    7    9 1   
    12    7   39 1   
    13    8   17 1   
    14    8   18 1   
    15    8   42 1   
    16    9   11 1   
    17   10   18 1   
    18   10   19 1   
    19   10   40 1   
    20   11   13 1   
    21   11   16 1   
    22   12   24 1   
    23   12   25 1   
    24   13   15 1   
    25   13   41 1   
    26   14   23 1   
    27   14   25 1   
    28   14   45 1   
    29   14   61 1   
    30   15   17 1   
    31   15   29 1   
    32   16   29 1   
    33   16   30 1   
    34   18   28 1   
    35   18   51 1   
    36   19   20 1   
    37   19   27 1   
    38   20   21 1   
    39   20   62 1   
    40   21   22 1   
    41   21   43 1   
    42   22   23 1   
    43   22   26 1   
    44   22   49 1   
    45   23   24 1   
    46   24   44 1   
    47   26   27 1   
    48   26   50 1   
    49   28   29 1   
    50   31   32 1   
    51   31   33 1   
    52   31   34 1   
    53   32   52 1   
    54   32   53 1   
    55   32   54 1   
    56   33   55 1   
    57   33   56 1   
    58   33   57 1   
    59   34   58 1   
    60   34   59 1   
    61   34   60 1   
    62   46   61 1   
    63   47   61 1   
    64   48   61 1   
@<TRIPOS>SUBSTRUCTURE
     1 X21         1 TEMP              0 ****  ****    0 ROOT
