@<TRIPOS>MOLECULE
X21
   62    66     1     0     0
SMALL
bcc


@<TRIPOS>ATOM
      1 C           0.1090   -0.2660    0.8880 c3        1 X21     -0.100000
      2 N           1.5040   -0.5760    0.6690 n3        1 X21     -0.171000
      3 O           6.8590    1.1080    0.5110 os        1 X21     -0.246000
      4 C1          3.7080   -0.0620    1.0300 c1        1 X21     -0.020000
      5 N1          2.4960   -0.2450    1.6030 n7        1 X21     -0.164000
      6 O1          6.7530   -1.1740    0.5510 o         1 X21     -0.301000
      7 C2          2.0970   -0.4170   -0.5960 c2        1 X21     -0.003000
      8 N2          7.0560    0.6640   -5.1750 n7        1 X21     -0.213000
      9 C3          3.4580   -0.1400   -0.4270 c2        1 X21     -0.247000
     10 N3          9.2610   -0.3110   -4.6380 n7        1 X21     -0.262000
     11 C4          4.4380    0.0150   -1.4520 c2        1 X21      0.143000
     12 N4         13.9670    1.6710  -10.7260 n2        1 X21     -0.291000
     13 C5          4.1730    0.1980   -2.8560 c2        1 X21     -0.164000
     14 N5         14.0980    0.0010   -9.0770 nx        1 X21     -0.018000
     15 C6          5.4090    0.3660   -3.4880 c2        1 X21     -0.068000
     16 N6          5.8060    0.0290   -1.2440 n         1 X21     -0.072000
     17 C7          5.7790    0.6330   -4.8700 c1        1 X21     -0.043000
     18 C8          8.1770    0.5580   -4.1950 c3        1 X21      0.029000
     19 C9         10.1290    0.0140   -5.6270 c2        1 X21      0.137000
     20 C10        11.2010   -1.0020   -5.9990 c3        1 X21     -0.071000
     21 C11        12.1590   -0.6260   -7.0340 c1        1 X21     -0.168000
     22 C12        11.9870    0.5530   -7.7580 c2        1 X21     -0.162000
     23 C13        12.8980    0.8460   -8.8370 c2        1 X21     -0.197000
     24 C14        12.8770    1.8040   -9.8320 c2        1 X21     -0.035000
     25 C15        14.7090    0.6550  -10.3660 c1        1 X21     -0.090000
     26 C17        10.9740    1.4480   -7.4180 c2        1 X21      0.076000
     27 C18        10.0610    1.1870   -6.3840 c2        1 X21     -0.344000
     28 C19         7.7970    0.1770   -2.7880 c1        1 X21     -0.095000
     29 C20         6.4480    0.2550   -2.4820 c2        1 X21     -0.162000
     30 C21         6.4920   -0.1010    0.0120 c2        1 X21      0.453000
     31 C22         7.4890    1.1530    1.8310 c3        1 X21      0.112000
     32 C23         8.8890    0.5700    1.7430 c3        1 X21     -0.236333
     33 C24         7.5410    2.6510    2.1150 c3        1 X21     -0.236333
     34 C25         6.6320    0.4320    2.8560 c3        1 X21     -0.236333
     35 H          -0.4810   -0.7100    0.0440 h1        1 X21      0.102000
     36 HA         -0.2210   -0.7340    1.8540 h1        1 X21      0.102000
     37 HB         -0.0810    0.8400    0.9330 h1        1 X21      0.102000
     38 H1          2.2980   -0.4230    2.5610 hn        1 X21      0.272000
     39 H2          1.5130   -0.5660   -1.5080 h4        1 X21      0.190000
     40 HN3         9.4640   -1.0860   -4.0390 hn        1 X21      0.270000
     41 H5          3.1850    0.2030   -3.3080 ha        1 X21      0.170000
     42 H7          7.3110    0.8600   -6.1200 hn        1 X21      0.250000
     43 H11        10.6800   -1.9290   -6.3920 h1        1 X21      0.175000
     44 H14        12.1400    2.5950   -9.9840 h4        1 X21      0.166000
     45 H15        13.8030   -0.9560   -9.2630 hn        1 X21      0.234000
     46 H16        14.5870   -0.4330   -7.0530 hx        1 X21      0.114000
     47 H16A       15.9600   -0.5780   -8.2760 hx        1 X21      0.114000
     48 H16B       15.3660    1.0720   -7.7580 hx        1 X21      0.114000
     49 H17        10.8790    2.4080   -7.9570 ha        1 X21      0.137000
     50 H18         9.3120    1.9610   -6.1620 ha        1 X21      0.137000
     51 H19         8.5900    1.6240   -4.0910 h2        1 X21      0.144000
     52 H23         9.4850    1.1130    0.9710 hc        1 X21      0.095889
     53 H23A        8.8430   -0.5110    1.4670 hc        1 X21      0.095889
     54 H23B        9.3930    0.6710    2.7330 hc        1 X21      0.095889
     55 H24         6.5080    3.0580    2.2220 hc        1 X21      0.095889
     56 H24A        8.0520    3.1850    1.2790 hc        1 X21      0.095889
     57 H24B        8.1070    2.8200    3.0610 hc        1 X21      0.095889
     58 H25         6.7980    0.8740    3.8660 hc        1 X21      0.095889
     59 H25A        5.5500    0.5270    2.5790 hc        1 X21      0.095889
     60 H25B        6.8890   -0.6540    2.8870 hc        1 X21      0.095889
     61 C16        15.0590    0.0160   -7.9690 c3        1 X21     -0.143000
     62 Cl         12.0790   -1.5090   -4.5550 cl        1 X21     -0.051000
@<TRIPOS>BOND
     1    1    2 1   
     2    1   35 1   
     3    1   36 1   
     4    1   37 1   
     5    2    5 1   
     6    2    7 1   
     7    3   30 1   
     8    3   31 1   
     9    4    5 1   
    10    4    9 1   
    11    5   38 1   
    12    6   30 1   
    13    7    9 1   
    14    7   39 1   
    15    8   17 1   
    16    8   18 1   
    17    8   42 1   
    18    9   11 1   
    19   10   18 1   
    20   10   19 1   
    21   10   40 1   
    22   11   13 1   
    23   11   16 1   
    24   12   24 1   
    25   12   25 1   
    26   13   15 1   
    27   13   41 1   
    28   14   23 1   
    29   14   25 1   
    30   14   45 1   
    31   14   61 1   
    32   15   17 1   
    33   15   29 1   
    34   16   29 1   
    35   16   30 1   
    36   18   28 1   
    37   18   51 1   
    38   19   20 1   
    39   19   27 1   
    40   20   21 1   
    41   20   43 1   
    42   20   62 1   
    43   21   22 1   
    44   22   23 1   
    45   22   26 1   
    46   23   24 1   
    47   24   44 1   
    48   26   27 1   
    49   26   49 1   
    50   27   50 1   
    51   28   29 1   
    52   31   32 1   
    53   31   33 1   
    54   31   34 1   
    55   32   52 1   
    56   32   53 1   
    57   32   54 1   
    58   33   55 1   
    59   33   56 1   
    60   33   57 1   
    61   34   58 1   
    62   34   59 1   
    63   34   60 1   
    64   46   61 1   
    65   47   61 1   
    66   48   61 1   
@<TRIPOS>SUBSTRUCTURE
     1 X21         1 TEMP              0 ****  ****    0 ROOT
