@<TRIPOS>MOLECULE
X22
   75    78     1     0     0
SMALL
bcc


@<TRIPOS>ATOM
      1 CAA         1.0360    0.9460    5.1180 c3        1 X22     -0.139100
      2 CB          2.1270    0.7580    4.0950 c3        1 X22     -0.110400
      3 CA          2.9920   -0.4810    4.3870 c3        1 X22      0.048500
      4 N           3.5700   -0.4340    5.7700 n4        1 X22     -0.836600
      5 C           4.1110   -0.6120    3.3410 c         1 X22      0.528100
      6 O           5.3060   -0.5610    3.5980 o         1 X22     -0.392100
      7 NAX         3.6710   -0.8110    1.9300 n4        1 X22     -0.663800
      8 CBI         4.6390   -1.6210    1.0810 c3        1 X22      0.081500
      9 CBA         4.6660   -0.9770   -0.3380 c         1 X22      0.697500
     10 OAE         4.3940    0.2480   -0.4040 o         1 X22     -0.667500
     11 NBJ         5.0430   -1.6640   -1.4510 n         1 X22     -0.415800
     12 CBE         4.3330   -3.1260    1.1220 c3        1 X22     -0.127700
     13 CAR         3.9300   -3.6390    2.5060 c3        1 X22      0.114400
     14 OAF         2.6590   -3.1540    2.9120 oh        1 X22     -0.687800
     15 CAS         3.3370   -3.5420    0.0530 c3        1 X22     -0.089400
     16 CAT         4.0160   -3.9500   -1.2380 c3        1 X22     -0.105400
     17 CBF         5.2470   -3.1110   -1.5820 c3        1 X22      0.095700
     18 CAU         5.6960   -3.3660   -3.0390 c3        1 X22     -0.089400
     19 CAV         5.8660   -2.0030   -3.6960 c3        1 X22     -0.100400
     20 CBG         5.2770   -0.9650   -2.7130 c3        1 X22      0.045700
     21 CAZ         4.0010   -0.3530   -3.3160 c         1 X22      0.527100
     22 OAD         2.8520   -0.5870   -2.9690 o         1 X22     -0.421100
     23 NAW         4.2130    0.6260   -4.4240 n4        1 X22     -0.683800
     24 CBH         3.4120    0.3020   -5.7020 c3        1 X22      0.279100
     25 CBC         2.9990    1.5840   -6.3640 ca        1 X22     -0.186800
     26 CAO         1.6860    1.6750   -6.8440 ca        1 X22     -0.111750
     27 CAK         1.2650    2.8260   -7.5100 ca        1 X22     -0.111000
     28 CAH         2.1440    3.8950   -7.6880 ca        1 X22     -0.072000
     29 CAL         3.4510    3.8100   -7.1990 ca        1 X22     -0.111000
     30 CAP         3.8800    2.6590   -6.5430 ca        1 X22     -0.111750
     31 CBB         4.2100   -0.6120   -6.5790 ca        1 X22     -0.186800
     32 CAM         3.7630   -1.9290   -6.7610 ca        1 X22     -0.111750
     33 CAI         4.4300   -2.7760   -7.6440 ca        1 X22     -0.111000
     34 CAG         5.5500   -2.3190   -8.3440 ca        1 X22     -0.072000
     35 CAJ         6.0020   -1.0120   -8.1570 ca        1 X22     -0.111000
     36 CAN         5.3330   -0.1580   -7.2820 ca        1 X22     -0.111750
     37 HAA         0.2870    1.6860    4.7250 hc        1 X22      0.085700
     38 HAAA        1.4260    1.3650    6.0780 hc        1 X22      0.085700
     39 HAAB        0.4900   -0.0080    5.3220 hc        1 X22      0.085700
     40 HB          2.7680    1.6790    4.0440 hc        1 X22      0.093700
     41 HBA         1.6530    0.6110    3.0860 hc        1 X22      0.093700
     42 HA          2.3450   -1.4230    4.3300 hx        1 X22      0.178700
     43 HN          4.1000   -1.2910    5.9760 hn        1 X22      0.491133
     44 HNA         4.1990    0.3760    5.8760 hn        1 X22      0.491133
     45 HNAX        3.5650    0.1310    1.4870 hn        1 X22      0.500800
     46 HBI         5.6810   -1.4450    1.5050 hx        1 X22      0.151700
     47 HBE         5.3260   -3.6370    0.9170 hc        1 X22      0.124700
     48 HAR         3.9510   -4.7630    2.5030 h1        1 X22      0.084700
     49 HARA        4.6540   -3.2650    3.2830 h1        1 X22      0.084700
     50 HOAF        1.9920   -3.8250    2.7060 ho        1 X22      0.467000
     51 HAS         2.7290   -4.4140    0.4210 hc        1 X22      0.068200
     52 HASA        2.6110   -2.7070   -0.1410 hc        1 X22      0.068200
     53 HAT         4.3600   -5.0190   -1.1700 hc        1 X22      0.094700
     54 HATA        3.2610   -3.8980   -2.0690 hc        1 X22      0.094700
     55 HBF         6.1010   -3.3900   -0.8940 h1        1 X22      0.075700
     56 HAU         4.9360   -3.9810   -3.5850 hc        1 X22      0.097700
     57 HAUA        6.6600   -3.9350   -3.0460 hc        1 X22      0.097700
     58 HAV         5.3480   -1.9710   -4.6910 hc        1 X22      0.099700
     59 HAVA        6.9510   -1.7750   -3.8650 hc        1 X22      0.099700
     60 HBG         6.0020   -0.1180   -2.5150 h1        1 X22      0.114700
     61 HNAW        3.9120    1.5590   -4.1040 hn        1 X22      0.466300
     62 HBH         2.4770   -0.2350   -5.3420 hx        1 X22      0.112700
     63 HAO         0.9840    0.8360   -6.7160 ha        1 X22      0.135000
     64 HAK         0.2350    2.8860   -7.9010 ha        1 X22      0.167500
     65 HAH         1.8120    4.8030   -8.2200 ha        1 X22      0.173000
     66 HAL         4.1470    4.6530   -7.3440 ha        1 X22      0.167500
     67 HAP         4.9210    2.6110   -6.1910 ha        1 X22      0.135000
     68 HAM         2.8620   -2.2890   -6.2400 ha        1 X22      0.135000
     69 HAI         4.0590   -3.8010   -7.8080 ha        1 X22      0.167500
     70 HAG         6.0660   -2.9860   -9.0560 ha        1 X22      0.173000
     71 HAJ         6.8760   -0.6450   -8.7210 ha        1 X22      0.167500
     72 HAN         5.6690    0.8860   -7.1840 ha        1 X22      0.135000
     73 HN3         2.7930   -0.3400    6.4460 hn        1 X22      0.491133
     74 HAX2        2.7560   -1.2960    1.9220 hn        1 X22      0.500800
     75 HAW2        5.2070    0.6670   -4.6750 hn        1 X22      0.466300
@<TRIPOS>BOND
     1    1    2 1   
     2    1   37 1   
     3    1   38 1   
     4    1   39 1   
     5    2    3 1   
     6    2   40 1   
     7    2   41 1   
     8    3    4 1   
     9    3    5 1   
    10    3   42 1   
    11    4   43 1   
    12    4   44 1   
    13    4   73 1   
    14    5    6 2   
    15    5    7 1   
    16    7    8 1   
    17    7   45 1   
    18    7   74 1   
    19    8    9 1   
    20    8   12 1   
    21    8   46 1   
    22    9   10 2   
    23    9   11 1   
    24   11   17 1   
    25   11   20 1   
    26   12   13 1   
    27   12   15 1   
    28   12   47 1   
    29   13   14 1   
    30   13   48 1   
    31   13   49 1   
    32   14   50 1   
    33   15   16 1   
    34   15   51 1   
    35   15   52 1   
    36   16   17 1   
    37   16   53 1   
    38   16   54 1   
    39   17   18 1   
    40   17   55 1   
    41   18   19 1   
    42   18   56 1   
    43   18   57 1   
    44   19   20 1   
    45   19   58 1   
    46   19   59 1   
    47   20   21 1   
    48   20   60 1   
    49   21   22 2   
    50   21   23 1   
    51   23   24 1   
    52   23   61 1   
    53   23   75 1   
    54   24   25 1   
    55   24   31 1   
    56   24   62 1   
    57   25   26 ar  
    58   25   30 ar  
    59   26   27 ar  
    60   26   63 1   
    61   27   28 ar  
    62   27   64 1   
    63   28   29 ar  
    64   28   65 1   
    65   29   30 ar  
    66   29   66 1   
    67   30   67 1   
    68   31   32 ar  
    69   31   36 ar  
    70   32   33 ar  
    71   32   68 1   
    72   33   34 ar  
    73   33   69 1   
    74   34   35 ar  
    75   34   70 1   
    76   35   36 ar  
    77   35   71 1   
    78   36   72 1   
@<TRIPOS>SUBSTRUCTURE
     1 X22         1 TEMP              0 ****  ****    0 ROOT
