@<TRIPOS>MOLECULE
X22
   75    78     1     0     0
SMALL
bcc


@<TRIPOS>ATOM
      1 CAA         2.6320    2.6410    3.4410 c3        1 X22     -0.136100
      2 CB          3.4130    1.3920    3.1210 c3        1 X22     -0.118400
      3 CA          2.8890    0.1750    3.9080 c3        1 X22      0.056500
      4 N           3.0490    0.3700    5.3880 nz        1 X22     -0.841600
      5 C           3.6390   -1.0850    3.4470 c         1 X22      0.511100
      6 O           4.5190   -1.6330    4.0960 o         1 X22     -0.374100
      7 NAX         3.2610   -1.6440    2.1160 ny        1 X22     -0.668800
      8 CBI         4.4610   -2.0770    1.2670 c3        1 X22      0.093500
      9 CBA         4.4410   -1.2140   -0.0320 c         1 X22      0.697500
     10 OAE         3.9440   -0.0610    0.0830 o         1 X22     -0.703500
     11 NBJ         4.9730   -1.6330   -1.2090 n         1 X22     -0.402800
     12 CBE         4.5140   -3.5940    1.0620 c3        1 X22     -0.117700
     13 CAR         4.1640   -4.3980    2.3250 c3        1 X22      0.130400
     14 OAF         4.8080   -5.6410    2.1480 oh        1 X22     -0.569800
     15 CAS         3.6960   -4.0610   -0.1290 c3        1 X22     -0.088400
     16 CAT         4.5130   -4.0980   -1.4030 c3        1 X22     -0.102400
     17 CBF         5.5280   -2.9600   -1.5150 c3        1 X22      0.091700
     18 CAU         6.1110   -2.8800   -2.9420 c3        1 X22     -0.090400
     19 CAV         5.9790   -1.4310   -3.3940 c3        1 X22     -0.103400
     20 CBG         5.0770   -0.7280   -2.3530 c3        1 X22      0.043700
     21 CAZ         3.7140   -0.3790   -2.9740 c         1 X22      0.527100
     22 OAD         2.6260   -0.8190   -2.6270 o         1 X22     -0.422100
     23 NAW         3.7400    0.6230   -4.0820 ny        1 X22     -0.682800
     24 CBH         2.9680    0.1770   -5.3400 c3        1 X22      0.279100
     25 CBC         2.4430    1.3940   -6.0430 ca        1 X22     -0.186300
     26 CAO         1.0980    1.3930   -6.4360 ca        1 X22     -0.112000
     27 CAK         0.5780    2.4770   -7.1430 ca        1 X22     -0.110750
     28 CAH         1.3890    3.5700   -7.4490 ca        1 X22     -0.072500
     29 CAL         2.7270    3.5790   -7.0460 ca        1 X22     -0.110750
     30 CAP         3.2550    2.4950   -6.3490 ca        1 X22     -0.112000
     31 CBB         3.8310   -0.6980   -6.1950 ca        1 X22     -0.186300
     32 CAM         3.3770   -1.9910   -6.4940 ca        1 X22     -0.112000
     33 CAI         4.1000   -2.8000   -7.3680 ca        1 X22     -0.110750
     34 CAG         5.2840   -2.3330   -7.9410 ca        1 X22     -0.072500
     35 CAJ         5.7450   -1.0500   -7.6360 ca        1 X22     -0.110750
     36 CAN         5.0210   -0.2330   -6.7710 ca        1 X22     -0.112000
     37 HAA         2.8890    3.0550    4.4460 hc        1 X22      0.083367
     38 HAAA        1.5300    2.4680    3.3820 hc        1 X22      0.083367
     39 HAAB        2.8910    3.4350    2.6890 hc        1 X22      0.083367
     40 HB          3.3180    1.1660    2.0200 hc        1 X22      0.108200
     41 HBA         4.5050    1.5520    3.3350 hc        1 X22      0.108200
     42 HA          1.7740    0.0570    3.7140 hx        1 X22      0.152700
     43 HN          4.0470    0.3750    5.6490 hn        1 X22      0.493133
     44 HNA         2.5730   -0.3720    5.9170 hn        1 X22      0.493133
     45 HNAX        2.6550   -2.4680    2.2590 hn        1 X22      0.492300
     46 HBI         5.3950   -1.7630    1.8320 hx        1 X22      0.140700
     47 HBE         5.6090   -3.8380    0.8720 hc        1 X22      0.142700
     48 HAR         4.5600   -3.8850    3.2440 h1        1 X22      0.024700
     49 HARA        3.0530   -4.5470    2.4210 h1        1 X22      0.024700
     50 HOAF        4.5770   -6.2050    2.9020 ho        1 X22      0.450000
     51 HAS         2.7950   -3.4070   -0.2620 hc        1 X22      0.075200
     52 HASA        3.3220   -5.1060    0.0710 hc        1 X22      0.075200
     53 HAT         3.8130   -4.0900   -2.2800 hc        1 X22      0.096200
     54 HATA        5.0980   -5.0580   -1.4520 hc        1 X22      0.096200
     55 HBF         6.3820   -3.1380   -0.7940 h1        1 X22      0.081700
     56 HAU         7.1840   -3.2000   -2.9350 hc        1 X22      0.100200
     57 HAUA        5.5590   -3.5660   -3.6340 hc        1 X22      0.100200
     58 HAV         6.9810   -0.9280   -3.4080 hc        1 X22      0.098200
     59 HAVA        5.5520   -1.3790   -4.4290 hc        1 X22      0.098200
     60 HBG         5.5330    0.2460   -1.9980 h1        1 X22      0.115700
     61 HNAW        3.3040    1.4970   -3.7550 hn        1 X22      0.465300
     62 HBH         2.0870   -0.4260   -4.9490 hx        1 X22      0.113700
     63 HAO         0.4490    0.5330   -6.2090 ha        1 X22      0.133500
     64 HAK        -0.4770    2.4640   -7.4660 ha        1 X22      0.168000
     65 HAH         0.9780    4.4240   -8.0140 ha        1 X22      0.173500
     66 HAL         3.3700    4.4400   -7.2920 ha        1 X22      0.168000
     67 HAP         4.3180    2.5130   -6.0680 ha        1 X22      0.133500
     68 HAM         2.4300   -2.3620   -6.0700 ha        1 X22      0.133500
     69 HAI         3.7240   -3.8050   -7.6230 ha        1 X22      0.168000
     70 HAG         5.8460   -2.9680   -8.6470 ha        1 X22      0.173500
     71 HAJ         6.6710   -0.6730   -8.1020 ha        1 X22      0.168000
     72 HAN         5.3700    0.7940   -6.5880 ha        1 X22      0.133500
     73 HN3         2.6370    1.2850    5.6420 hn        1 X22      0.493133
     74 HAX2        2.7290   -0.9260    1.5850 hn        1 X22      0.492300
     75 HAW2        4.7100    0.8200   -4.3550 hn        1 X22      0.465300
@<TRIPOS>BOND
     1    1    2 1   
     2    1   37 1   
     3    1   38 1   
     4    1   39 1   
     5    2    3 1   
     6    2   40 1   
     7    2   41 1   
     8    3    4 1   
     9    3    5 1   
    10    3   42 1   
    11    4   43 1   
    12    4   44 1   
    13    4   73 1   
    14    5    6 2   
    15    5    7 1   
    16    7    8 1   
    17    7   45 1   
    18    7   74 1   
    19    8    9 1   
    20    8   12 1   
    21    8   46 1   
    22    9   10 2   
    23    9   11 1   
    24   11   17 1   
    25   11   20 1   
    26   12   13 1   
    27   12   15 1   
    28   12   47 1   
    29   13   14 1   
    30   13   48 1   
    31   13   49 1   
    32   14   50 1   
    33   15   16 1   
    34   15   51 1   
    35   15   52 1   
    36   16   17 1   
    37   16   53 1   
    38   16   54 1   
    39   17   18 1   
    40   17   55 1   
    41   18   19 1   
    42   18   56 1   
    43   18   57 1   
    44   19   20 1   
    45   19   58 1   
    46   19   59 1   
    47   20   21 1   
    48   20   60 1   
    49   21   22 2   
    50   21   23 1   
    51   23   24 1   
    52   23   61 1   
    53   23   75 1   
    54   24   25 1   
    55   24   31 1   
    56   24   62 1   
    57   25   26 ar  
    58   25   30 ar  
    59   26   27 ar  
    60   26   63 1   
    61   27   28 ar  
    62   27   64 1   
    63   28   29 ar  
    64   28   65 1   
    65   29   30 ar  
    66   29   66 1   
    67   30   67 1   
    68   31   32 ar  
    69   31   36 ar  
    70   32   33 ar  
    71   32   68 1   
    72   33   34 ar  
    73   33   69 1   
    74   34   35 ar  
    75   34   70 1   
    76   35   36 ar  
    77   35   71 1   
    78   36   72 1   
@<TRIPOS>SUBSTRUCTURE
     1 X22         1 TEMP              0 ****  ****    0 ROOT
