@<TRIPOS>MOLECULE
X22
   72    71     1     0     0
SMALL
bcc


@<TRIPOS>ATOM
      1 CAA        -4.4770    2.6710    5.0580 c3        1 X22     -0.216000
      2 CB         -2.9540    2.6880    5.1370 c3        1 X22     -0.190000
      3 CA         -2.3810    1.8100    4.0400 c3        1 X22     -0.052000
      4 N          -2.9120    0.5310    4.1480 n3        1 X22     -0.342000
      5 C          -0.8360    1.7440    4.1820 c2        1 X22      0.309000
      6 O          -0.2830    2.3300    5.0950 o         1 X22     -0.378000
      7 NAX        -0.0460    1.0140    3.2040 n         1 X22     -0.358000
      8 CBI         1.3710    0.9850    3.3160 c3        1 X22      0.023000
      9 CBA         1.9950    1.1570    1.9410 c2        1 X22      0.303000
     10 OAE         2.9160    1.9280    1.6880 o         1 X22     -0.380000
     11 NBJ         1.4050    0.2300    0.9780 n         1 X22     -0.317000
     12 CBE         1.8010   -0.3360    3.8000 c3        1 X22     -0.123000
     13 CAR         2.2070   -0.2330    5.2810 c3        1 X22     -0.020000
     14 OAF         3.1340   -1.2940    5.6010 oh        1 X22     -0.335000
     15 CAS         0.6370   -1.3440    3.6530 c3        1 X22     -0.159000
     16 CAT         0.5270   -1.8340    2.2180 c3        1 X22     -0.165000
     17 CBF         1.6980   -1.2190    1.3620 c3        1 X22      0.028000
     18 CAU         1.8200   -1.8690    0.2340 c3        1 X22     -0.166000
     19 CAV         2.3410   -0.8080   -0.8730 c3        1 X22     -0.164000
     20 CBG         1.6940    0.3510   -0.6120 c3        1 X22      0.003000
     21 CAZ         0.4260    0.5780   -1.4670 c2        1 X22      0.305000
     22 OAD        -0.5930    0.9120   -0.9410 o         1 X22     -0.379000
     23 NAW         0.5160    0.5500   -2.9180 n         1 X22     -0.368000
     24 CBH        -0.4000   -0.3060   -3.6960 c3        1 X22      0.101000
     25 CBC        -1.0320    0.5210   -4.8300 c2        1 X22     -0.086000
     26 CAO        -0.2870    1.5330   -5.4560 c2        1 X22     -0.116000
     27 CAK        -0.8530    2.2790   -6.4880 c1        1 X22     -0.131500
     28 CAH        -2.1670    2.0180   -6.9020 c1        1 X22     -0.131250
     29 CAL        -2.9060    1.0140   -6.2820 c1        1 X22     -0.131250
     30 CAP        -2.3360    0.2620   -5.2410 c1        1 X22     -0.115500
     31 CBB         0.3740   -1.4670   -4.2830 c2        1 X22     -0.086000
     32 CAM         1.4720   -1.2340   -5.0720 c2        1 X22     -0.116000
     33 CAI         2.1500   -2.2990   -5.6460 c1        1 X22     -0.131500
     34 CAG         1.7180   -3.5990   -5.4230 c1        1 X22     -0.131250
     35 CAJ         0.6170   -3.8320   -4.6320 c1        1 X22     -0.131250
     36 CAN        -0.0580   -2.7730   -4.0600 c1        1 X22     -0.115500
     37 HAA        -4.8410    3.3860    5.6210 hc        1 X22      0.074667
     38 HAAA       -4.7600    2.8110    4.1250 hc        1 X22      0.074667
     39 HAAB       -4.8130    1.7950    5.3790 hc        1 X22      0.074667
     40 HB         -2.6630    2.3390    6.0300 hc        1 X22      0.103000
     41 HBA        -2.6310    3.6030    5.0230 hc        1 X22      0.103000
     42 HA         -2.6130    2.1870    3.1620 h1        1 X22      0.125000
     43 HN         -3.1040    0.3520    5.0280 hn        1 X22      0.152500
     44 HNA        -3.6920    0.4770    3.6440 hn        1 X22      0.152500
     45 HNAX       -0.4490    0.6540    2.4780 hn        1 X22      0.247000
     46 HBI         1.5220    1.7280    3.9410 h1        1 X22      0.155000
     47 HBE         2.5690   -0.6430    3.2710 hc        1 X22      0.108000
     48 HAR         1.4270   -0.3120    5.8330 h1        1 X22      0.076000
     49 HARA        2.6400    0.6430    5.4450 h1        1 X22      0.076000
     50 HOAF        3.2510   -1.3310    6.5040 ho        1 X22      0.203000
     51 HAS         0.7990   -2.1200    4.2540 hc        1 X22      0.098000
     52 HASA       -0.2170   -0.9000    3.9140 hc        1 X22      0.098000
     53 HAT        -0.3200   -1.4450    1.8530 hc        1 X22      0.095500
     54 HATA        0.6940   -2.8180    2.2500 hc        1 X22      0.095500
     55 HBF         2.5390   -1.2650    1.8650 h1        1 X22      0.086000
     56 HAU         0.9590   -2.2350   -0.0330 hc        1 X22      0.100000
     57 HAUA        2.4650   -2.5830    0.3340 hc        1 X22      0.100000
     58 HAV         2.0210   -1.1160   -1.7240 hc        1 X22      0.112000
     59 HAVA        3.2920   -0.6500   -0.6860 hc        1 X22      0.112000
     60 HBG         2.2380    1.1440   -0.8370 h1        1 X22      0.118000
     61 HNAW        1.0870    1.1360   -3.3580 hn        1 X22      0.251000
     62 HBH        -1.1130   -0.6530   -3.1040 h1        1 X22      0.135000
     63 HAO         0.6420    1.7170   -5.1630 ha        1 X22      0.137000
     64 HAK        -0.3270    2.9920   -6.9280 ha        1 X22      0.133000
     65 HAH        -2.5700    2.5470   -7.6360 ha        1 X22      0.130500
     66 HAL        -3.8290    0.8320   -6.5730 ha        1 X22      0.130500
     67 HAP        -2.8560   -0.4450   -4.8060 ha        1 X22      0.135000
     68 HAM         1.7730   -0.3280   -5.2270 ha        1 X22      0.137000
     69 HAI         2.9160   -2.1370   -6.1960 ha        1 X22      0.133000
     70 HAG         2.1960   -4.3480   -5.8270 ha        1 X22      0.130500
     71 HAJ         0.3160   -4.7350   -4.4770 ha        1 X22      0.130500
     72 HAN        -0.8460   -2.9400   -3.4930 ha        1 X22      0.135000
@<TRIPOS>BOND
     1    1    2 1   
     2    1   37 1   
     3    1   38 1   
     4    1   39 1   
     5    2    3 1   
     6    2   40 1   
     7    2   41 1   
     8    3    4 1   
     9    3    5 1   
    10    3   42 1   
    11    4   43 1   
    12    4   44 1   
    13    5    6 1   
    14    5    7 1   
    15    7    8 1   
    16    7   45 1   
    17    8    9 1   
    18    8   12 1   
    19    8   46 1   
    20    9   10 1   
    21    9   11 1   
    22   11   17 1   
    23   11   20 1   
    24   12   13 1   
    25   12   15 1   
    26   12   47 1   
    27   13   14 1   
    28   13   48 1   
    29   13   49 1   
    30   14   50 1   
    31   15   16 1   
    32   15   51 1   
    33   15   52 1   
    34   16   17 1   
    35   16   53 1   
    36   16   54 1   
    37   17   18 1   
    38   17   55 1   
    39   18   19 1   
    40   18   56 1   
    41   18   57 1   
    42   19   20 1   
    43   19   58 1   
    44   19   59 1   
    45   20   21 1   
    46   20   60 1   
    47   21   22 1   
    48   21   23 1   
    49   23   24 1   
    50   23   61 1   
    51   24   25 1   
    52   24   31 1   
    53   24   62 1   
    54   25   26 1   
    55   25   30 1   
    56   26   27 1   
    57   26   63 1   
    58   27   64 1   
    59   28   29 1   
    60   28   65 1   
    61   29   66 1   
    62   30   67 1   
    63   31   32 1   
    64   31   36 1   
    65   32   33 1   
    66   32   68 1   
    67   33   69 1   
    68   34   35 1   
    69   34   70 1   
    70   35   71 1   
    71   36   72 1   
@<TRIPOS>SUBSTRUCTURE
     1 X22         1 TEMP              0 ****  ****    0 ROOT
