@<TRIPOS>MOLECULE
X22
   72    75     1     0     0
SMALL
bcc


@<TRIPOS>ATOM
      1 CAA         0.0350    3.6760   -2.1970 c3        1 X22     -0.084100
      2 CB         -0.9060    2.9950   -1.2380 c3        1 X22     -0.088400
      3 CA         -2.3190    2.8470   -1.8220 c3        1 X22      0.110500
      4 N          -2.9050    4.1060   -2.2260 n3        1 X22     -0.884800
      5 C          -3.1800    2.0810   -0.7820 c         1 X22      0.613100
      6 O          -4.1100    2.6470   -0.1720 o         1 X22     -0.627100
      7 NAX        -2.9140    0.7380   -0.6050 n         1 X22     -0.553900
      8 CBI        -3.4950   -0.0160    0.4790 c3        1 X22      0.044700
      9 CBA        -2.3520   -0.6470    1.3070 c         1 X22      0.696500
     10 OAE        -1.9300   -0.0430    2.3090 o         1 X22     -0.617500
     11 NBJ        -1.7460   -1.8330    0.9170 n         1 X22     -0.474800
     12 CBE        -4.5400   -1.0600    0.0530 c3        1 X22     -0.070700
     13 CAR        -5.8960   -0.3610   -0.0900 c3        1 X22      0.131400
     14 OAF        -6.8680   -1.3700   -0.3200 oh        1 X22     -0.608800
     15 CAS        -4.2170   -1.8030   -1.2290 c3        1 X22     -0.072400
     16 CAT        -2.8290   -2.3980   -1.3000 c3        1 X22     -0.099400
     17 CBF        -2.2990   -2.8690    0.0540 c3        1 X22      0.117700
     18 CAU        -1.1730   -3.9160   -0.1450 c3        1 X22     -0.088400
     19 CAV         0.0210   -3.4450    0.6770 c3        1 X22     -0.084400
     20 CBG        -0.3190   -2.0100    1.1280 c3        1 X22      0.044700
     21 CAZ         0.5300   -0.9970    0.3140 c         1 X22      0.651100
     22 OAD         0.0480   -0.3220   -0.6200 o         1 X22     -0.638100
     23 NAW         1.8590   -0.9050    0.6600 n         1 X22     -0.554900
     24 CBH         2.7680    0.0310    0.0280 c3        1 X22      0.191300
     25 CBC         3.2860    1.0650    1.0060 ca        1 X22     -0.095800
     26 CAO         2.9480    2.4100    0.8230 ca        1 X22     -0.116500
     27 CAK         3.4140    3.3760    1.7130 ca        1 X22     -0.127750
     28 CAH         4.2120    3.0050    2.7950 ca        1 X22     -0.123500
     29 CAL         4.5460    1.6640    2.9850 ca        1 X22     -0.127750
     30 CAP         4.0840    0.6970    2.0940 ca        1 X22     -0.116500
     31 CBB         3.9320   -0.6520   -0.6590 ca        1 X22     -0.095800
     32 CAM         4.3450   -0.1650   -1.9060 ca        1 X22     -0.116500
     33 CAI         5.4190   -0.7540   -2.5700 ca        1 X22     -0.127750
     34 CAG         6.0860   -1.8380   -2.0000 ca        1 X22     -0.123500
     35 CAJ         5.6760   -2.3300   -0.7620 ca        1 X22     -0.127750
     36 CAN         4.6040   -1.7400   -0.0930 ca        1 X22     -0.116500
     37 HAA         1.0750    3.6490   -1.7880 hc        1 X22      0.036033
     38 HAAA        0.0300    3.1590   -3.1870 hc        1 X22      0.036033
     39 HAAB       -0.2520    4.7430   -2.3580 hc        1 X22      0.036033
     40 HB         -0.5090    1.9710   -0.9970 hc        1 X22      0.059700
     41 HBA        -0.9560    3.5730   -0.2770 hc        1 X22      0.059700
     42 HA         -2.2550    2.2100   -2.7560 h1        1 X22      0.075700
     43 HN         -3.8750    3.9760   -2.4470 hn        1 X22      0.357800
     44 HNA        -2.8370    4.7780   -1.4850 hn        1 X22      0.357800
     45 HNAX       -2.1070    0.3470   -1.0450 hn        1 X22      0.336500
     46 HBI        -4.0070    0.7170    1.1830 h1        1 X22      0.112700
     47 HBE        -4.6340   -1.8040    0.8950 hc        1 X22      0.068700
     48 HAR        -6.1460    0.1970    0.8530 h1        1 X22      0.036200
     49 HARA       -5.8750    0.3630   -0.9470 h1        1 X22      0.036200
     50 HOAF       -7.7140   -0.9170   -0.4080 ho        1 X22      0.403000
     51 HAS        -4.9810   -2.6220   -1.3350 hc        1 X22      0.055700
     52 HASA       -4.3590   -1.1160   -2.1060 hc        1 X22      0.055700
     53 HAT        -2.8670   -3.2890   -1.9840 hc        1 X22      0.055200
     54 HATA       -2.1060   -1.6720   -1.7590 hc        1 X22      0.055200
     55 HBF        -3.1510   -3.3520    0.6200 h1        1 X22      0.060700
     56 HAU        -1.5260   -4.9200    0.1960 hc        1 X22      0.057700
     57 HAUA       -0.8960   -3.9940   -1.2250 hc        1 X22      0.057700
     58 HAV         0.1650   -4.0930    1.5770 hc        1 X22      0.061700
     59 HAVA        0.9610   -3.4730    0.0760 hc        1 X22      0.061700
     60 HBG        -0.1020   -1.8540    2.2250 h1        1 X22      0.092700
     61 HNAW        2.1840   -1.3690    1.4740 hn        1 X22      0.311500
     62 HBH         2.1690    0.5740   -0.7740 h1        1 X22      0.098700
     63 HAO         2.3090    2.7090   -0.0240 ha        1 X22      0.130750
     64 HAK         3.1470    4.4330    1.5630 ha        1 X22      0.133500
     65 HAH         4.5770    3.7680    3.4980 ha        1 X22      0.133500
     66 HAL         5.1750    1.3690    3.8370 ha        1 X22      0.133500
     67 HAP         4.3600   -0.3580    2.2390 ha        1 X22      0.130750
     68 HAM         3.8200    0.6870   -2.3640 ha        1 X22      0.130750
     69 HAI         5.7380   -0.3620   -3.5470 ha        1 X22      0.133500
     70 HAG         6.9330   -2.3030   -2.5260 ha        1 X22      0.133500
     71 HAJ         6.1980   -3.1850   -0.3100 ha        1 X22      0.133500
     72 HAN         4.2980   -2.1410    0.8840 ha        1 X22      0.130750
@<TRIPOS>BOND
     1    1    2 1   
     2    1   37 1   
     3    1   38 1   
     4    1   39 1   
     5    2    3 1   
     6    2   40 1   
     7    2   41 1   
     8    3    4 1   
     9    3    5 1   
    10    3   42 1   
    11    4   43 1   
    12    4   44 1   
    13    5    6 2   
    14    5    7 1   
    15    7    8 1   
    16    7   45 1   
    17    8    9 1   
    18    8   12 1   
    19    8   46 1   
    20    9   10 2   
    21    9   11 1   
    22   11   17 1   
    23   11   20 1   
    24   12   13 1   
    25   12   15 1   
    26   12   47 1   
    27   13   14 1   
    28   13   48 1   
    29   13   49 1   
    30   14   50 1   
    31   15   16 1   
    32   15   51 1   
    33   15   52 1   
    34   16   17 1   
    35   16   53 1   
    36   16   54 1   
    37   17   18 1   
    38   17   55 1   
    39   18   19 1   
    40   18   56 1   
    41   18   57 1   
    42   19   20 1   
    43   19   58 1   
    44   19   59 1   
    45   20   21 1   
    46   20   60 1   
    47   21   22 2   
    48   21   23 1   
    49   23   24 1   
    50   23   61 1   
    51   24   25 1   
    52   24   31 1   
    53   24   62 1   
    54   25   26 ar  
    55   25   30 ar  
    56   26   27 ar  
    57   26   63 1   
    58   27   28 ar  
    59   27   64 1   
    60   28   29 ar  
    61   28   65 1   
    62   29   30 ar  
    63   29   66 1   
    64   30   67 1   
    65   31   32 ar  
    66   31   36 ar  
    67   32   33 ar  
    68   32   68 1   
    69   33   34 ar  
    70   33   69 1   
    71   34   35 ar  
    72   34   70 1   
    73   35   36 ar  
    74   35   71 1   
    75   36   72 1   
@<TRIPOS>SUBSTRUCTURE
     1 X22         1 TEMP              0 ****  ****    0 ROOT
