@<TRIPOS>MOLECULE
X22
   75    78     1     0     0
SMALL
bcc


@<TRIPOS>ATOM
      1 CAA         1.0310    0.9550    5.1150 c3        1 X22     -0.139100
      2 CB          2.1230    0.7690    4.0910 c3        1 X22     -0.110400
      3 CA          2.9920   -0.4660    4.3860 c3        1 X22      0.048500
      4 N           3.5720   -0.4130    5.7690 n4        1 X22     -0.836600
      5 C           4.1110   -0.5960    3.3390 c         1 X22      0.528100
      6 O           5.3050   -0.5400    3.5950 o         1 X22     -0.392100
      7 NAX         3.6700   -0.8010    1.9300 n4        1 X22     -0.663800
      8 CBI         4.6400   -1.6100    1.0820 c3        1 X22      0.081500
      9 CBA         4.6640   -0.9690   -0.3390 c         1 X22      0.697500
     10 OAE         4.3890    0.2550   -0.4080 o         1 X22     -0.667500
     11 NBJ         5.0410   -1.6580   -1.4500 n         1 X22     -0.415800
     12 CBE         4.3380   -3.1160    1.1270 c3        1 X22     -0.127700
     13 CAR         3.9370   -3.6260    2.5130 c3        1 X22      0.114400
     14 OAF         2.6650   -3.1440    2.9180 oh        1 X22     -0.687800
     15 CAS         3.3410   -3.5360    0.0600 c3        1 X22     -0.089400
     16 CAT         4.0200   -3.9460   -1.2310 c3        1 X22     -0.105400
     17 CBF         5.2490   -3.1050   -1.5780 c3        1 X22      0.095700
     18 CAU         5.6970   -3.3620   -3.0340 c3        1 X22     -0.089400
     19 CAV         5.8630   -2.0000   -3.6960 c3        1 X22     -0.100400
     20 CBG         5.2730   -0.9620   -2.7150 c3        1 X22      0.045700
     21 CAZ         3.9950   -0.3540   -3.3180 c         1 X22      0.527100
     22 OAD         2.8470   -0.5890   -2.9680 o         1 X22     -0.421100
     23 NAW         4.2040    0.6230   -4.4280 n4        1 X22     -0.682800
     24 CBH         3.4010    0.2950   -5.7040 c3        1 X22      0.279100
     25 CBC         2.9880    1.5740   -6.3700 ca        1 X22     -0.186800
     26 CAO         1.6740    1.6650   -6.8480 ca        1 X22     -0.111750
     27 CAK         1.2520    2.8130   -7.5180 ca        1 X22     -0.111000
     28 CAH         2.1310    3.8810   -7.7000 ca        1 X22     -0.072000
     29 CAL         3.4380    3.7980   -7.2130 ca        1 X22     -0.111000
     30 CAP         3.8680    2.6500   -6.5530 ca        1 X22     -0.111750
     31 CBB         4.1980   -0.6220   -6.5790 ca        1 X22     -0.186800
     32 CAM         3.7520   -1.9400   -6.7550 ca        1 X22     -0.111750
     33 CAI         4.4170   -2.7890   -7.6370 ca        1 X22     -0.111000
     34 CAG         5.5350   -2.3360   -8.3400 ca        1 X22     -0.072000
     35 CAJ         5.9870   -1.0270   -8.1590 ca        1 X22     -0.111000
     36 CAN         5.3190   -0.1700   -7.2860 ca        1 X22     -0.111750
     37 HAA         1.4210    1.3790    6.0730 hc        1 X22      0.085700
     38 HAAA        0.4890    0.0000    5.3210 hc        1 X22      0.085700
     39 HAAB        0.2800    1.6920    4.7200 hc        1 X22      0.085700
     40 HB          1.6480    0.6170    3.0840 hc        1 X22      0.093700
     41 HBA         2.7600    1.6930    4.0380 hc        1 X22      0.093700
     42 HA          2.3490   -1.4100    4.3320 hx        1 X22      0.178700
     43 HN          2.7950   -0.3200    6.4450 hn        1 X22      0.491133
     44 HNA         4.1050   -1.2680    5.9770 hn        1 X22      0.491133
     45 HNAX        3.5610    0.1400    1.4840 hn        1 X22      0.500800
     46 HBI         5.6810   -1.4290    1.5050 hx        1 X22      0.151700
     47 HBE         5.3320   -3.6240    0.9220 hc        1 X22      0.124700
     48 HAR         3.9620   -4.7500    2.5130 h1        1 X22      0.084700
     49 HARA        4.6610   -3.2480    3.2880 h1        1 X22      0.084700
     50 HOAF        2.0000   -3.8170    2.7150 ho        1 X22      0.467000
     51 HAS         2.6140   -2.7040   -0.1360 hc        1 X22      0.068200
     52 HASA        2.7370   -4.4100    0.4310 hc        1 X22      0.068200
     53 HAT         4.3670   -5.0140   -1.1610 hc        1 X22      0.094700
     54 HATA        3.2650   -3.8980   -2.0610 hc        1 X22      0.094700
     55 HBF         6.1050   -3.3800   -0.8910 h1        1 X22      0.075700
     56 HAU         6.6630   -3.9290   -3.0410 hc        1 X22      0.097700
     57 HAUA        4.9390   -3.9810   -3.5790 hc        1 X22      0.097700
     58 HAV         5.3440   -1.9720   -4.6900 hc        1 X22      0.099700
     59 HAVA        6.9470   -1.7710   -3.8660 hc        1 X22      0.099700
     60 HBG         5.9970   -0.1130   -2.5190 h1        1 X22      0.114700
     61 HNAW        3.9030    1.5560   -4.1100 hn        1 X22      0.466300
     62 HBH         2.4670   -0.2410   -5.3410 hx        1 X22      0.112700
     63 HAO         0.9720    0.8260   -6.7160 ha        1 X22      0.135000
     64 HAK         0.2220    2.8720   -7.9070 ha        1 X22      0.167500
     65 HAH         1.7980    4.7880   -8.2340 ha        1 X22      0.173000
     66 HAL         4.1340    4.6400   -7.3610 ha        1 X22      0.167500
     67 HAP         4.9100    2.6020   -6.2030 ha        1 X22      0.135000
     68 HAM         2.8520   -2.2990   -6.2320 ha        1 X22      0.135000
     69 HAI         4.0460   -3.8160   -7.7960 ha        1 X22      0.167500
     70 HAG         6.0500   -3.0040   -9.0510 ha        1 X22      0.173000
     71 HAJ         6.8600   -0.6620   -8.7270 ha        1 X22      0.167500
     72 HAN         5.6550    0.8740   -7.1930 ha        1 X22      0.135000
     73 HN3         4.1970    0.4000    5.8710 hn        1 X22      0.491133
     74 HAX2        2.7560   -1.2880    1.9240 hn        1 X22      0.500800
     75 HAW2        5.1980    0.6640   -4.6810 hn        1 X22      0.466300
@<TRIPOS>BOND
     1    1    2 1   
     2    1   37 1   
     3    1   38 1   
     4    1   39 1   
     5    2    3 1   
     6    2   40 1   
     7    2   41 1   
     8    3    4 1   
     9    3    5 1   
    10    3   42 1   
    11    4   43 1   
    12    4   44 1   
    13    4   73 1   
    14    5    6 2   
    15    5    7 1   
    16    7    8 1   
    17    7   45 1   
    18    7   74 1   
    19    8    9 1   
    20    8   12 1   
    21    8   46 1   
    22    9   10 2   
    23    9   11 1   
    24   11   17 1   
    25   11   20 1   
    26   12   13 1   
    27   12   15 1   
    28   12   47 1   
    29   13   14 1   
    30   13   48 1   
    31   13   49 1   
    32   14   50 1   
    33   15   16 1   
    34   15   51 1   
    35   15   52 1   
    36   16   17 1   
    37   16   53 1   
    38   16   54 1   
    39   17   18 1   
    40   17   55 1   
    41   18   19 1   
    42   18   56 1   
    43   18   57 1   
    44   19   20 1   
    45   19   58 1   
    46   19   59 1   
    47   20   21 1   
    48   20   60 1   
    49   21   22 2   
    50   21   23 1   
    51   23   24 1   
    52   23   61 1   
    53   23   75 1   
    54   24   25 1   
    55   24   31 1   
    56   24   62 1   
    57   25   26 ar  
    58   25   30 ar  
    59   26   27 ar  
    60   26   63 1   
    61   27   28 ar  
    62   27   64 1   
    63   28   29 ar  
    64   28   65 1   
    65   29   30 ar  
    66   29   66 1   
    67   30   67 1   
    68   31   32 ar  
    69   31   36 ar  
    70   32   33 ar  
    71   32   68 1   
    72   33   34 ar  
    73   33   69 1   
    74   34   35 ar  
    75   34   70 1   
    76   35   36 ar  
    77   35   71 1   
    78   36   72 1   
@<TRIPOS>SUBSTRUCTURE
     1 X22         1 TEMP              0 ****  ****    0 ROOT
