@<TRIPOS>MOLECULE
X23
   77    80     1     0     0
SMALL
bcc


@<TRIPOS>ATOM
      1 CAA         2.1630    3.0570    1.5310 c3        1 X23     -0.141100
      2 CB          3.0840    1.8970    1.8150 c3        1 X23     -0.114400
      3 CA          2.4280    0.8750    2.7710 c3        1 X23      0.063500
      4 N           2.1330    1.4900    4.1070 n4        1 X23     -0.843600
      5 C           3.3580   -0.3400    2.9140 c         1 X23      0.527100
      6 O           4.0690   -0.5810    3.8780 o         1 X23     -0.404100
      7 NAX         3.4180   -1.3020    1.7570 n4        1 X23     -0.671800
      8 CBH         4.8310   -1.5820    1.2650 c3        1 X23      0.074500
      9 CBA         4.8240   -1.2900   -0.2800 c         1 X23      0.681500
     10 OAF         4.6120   -0.0870   -0.5470 o         1 X23     -0.627500
     11 NBJ         5.0440   -2.2370   -1.2270 n         1 X23     -0.415800
     12 CBE         5.4330   -2.9250    1.6920 c3        1 X23     -0.113700
     13 CAR         5.8570   -2.8940    3.1740 c3        1 X23      0.095800
     14 NAB         6.8540   -3.9360    3.5480 n4        1 X23     -0.836600
     15 CAS         4.5590   -4.1360    1.4070 c3        1 X23     -0.116400
     16 CAT         4.0280   -4.1940   -0.0110 c3        1 X23     -0.111400
     17 CBF         5.0410   -3.6970   -1.0380 c3        1 X23      0.088700
     18 CAU         4.7950   -4.3120   -2.4330 c3        1 X23     -0.088400
     19 CAV         5.1890   -3.2300   -3.4290 c3        1 X23     -0.105400
     20 CBI         5.0970   -1.8920   -2.6570 c3        1 X23      0.032700
     21 CAZ         3.8800   -1.0930   -3.1540 c         1 X23      0.538100
     22 OAE         2.8590   -0.9010   -2.5010 o         1 X23     -0.460100
     23 NAW         3.9810   -0.5130   -4.5150 n4        1 X23     -0.688800
     24 CBG         2.7740   -0.8560   -5.4490 c3        1 X23      0.302100
     25 CBC         2.6190    0.2850   -6.3990 ca        1 X23     -0.204800
     26 CAO         2.0590    1.4780   -5.9010 ca        1 X23     -0.110500
     27 CAK         1.8310    2.5520   -6.7520 ca        1 X23     -0.112250
     28 CAH         2.1520    2.4520   -8.1110 ca        1 X23     -0.060000
     29 CAL         2.7020    1.2710   -8.6090 ca        1 X23     -0.112250
     30 CAP         2.9370    0.1900   -7.7580 ca        1 X23     -0.110500
     31 CBB         2.9670   -2.2030   -6.0640 ca        1 X23     -0.204800
     32 CAM         1.8990   -3.1090   -6.0110 ca        1 X23     -0.110500
     33 CAI         1.9910   -4.3400   -6.6620 ca        1 X23     -0.112250
     34 CAG         3.1520   -4.6810   -7.3570 ca        1 X23     -0.060000
     35 CAJ         4.2260   -3.7860   -7.3990 ca        1 X23     -0.112250
     36 CAN         4.1340   -2.5510   -6.7620 ca        1 X23     -0.110500
     37 HAA         2.0900    3.7640    2.3940 hc        1 X23      0.091700
     38 HAAA        2.5790    3.6480    0.6700 hc        1 X23      0.091700
     39 HAAB        1.1380    2.7160    1.2420 hc        1 X23      0.091700
     40 HB          4.0510    2.2720    2.2490 hc        1 X23      0.106200
     41 HBA         3.3270    1.3700    0.8500 hc        1 X23      0.106200
     42 HA          1.4280    0.5480    2.3360 hx        1 X23      0.160700
     43 HN          3.0030    1.7360    4.6040 hn        1 X23      0.499467
     44 HNA         1.5930    2.3640    3.9460 hn        1 X23      0.499467
     45 HNAX        2.9780   -2.1930    2.0370 hn        1 X23      0.491800
     46 HBH         5.4920   -0.7550    1.6880 hx        1 X23      0.142700
     47 HBE         6.3780   -3.0060    1.0650 hc        1 X23      0.129700
     48 HAR         4.9540   -3.0410    3.8380 hx        1 X23      0.118700
     49 HARA        6.3180   -1.8910    3.4230 hx        1 X23      0.118700
     50 HNAB        6.4810   -4.8820    3.3850 hn        1 X23      0.487800
     51 HNAA        7.7240   -3.8290    3.0070 hn        1 X23      0.487800
     52 HAS         3.7020   -4.1950    2.1300 hc        1 X23      0.078700
     53 HASA        5.1760   -5.0630    1.5790 hc        1 X23      0.078700
     54 HAT         3.7870   -5.2700   -0.2550 hc        1 X23      0.095700
     55 HATA        3.0610   -3.6310   -0.0960 hc        1 X23      0.095700
     56 HBF         6.0850   -3.9930   -0.7120 h1        1 X23      0.079700
     57 HAU         5.4200   -5.2330   -2.5650 hc        1 X23      0.105200
     58 HAUA        3.7210   -4.6030   -2.5570 hc        1 X23      0.105200
     59 HAV         4.5190   -3.2470   -4.3300 hc        1 X23      0.113200
     60 HAVA        6.2430   -3.3790   -3.7840 hc        1 X23      0.113200
     61 HBI         6.0200   -1.2550   -2.8190 h1        1 X23      0.126700
     62 HAO         1.7670    1.5530   -4.8430 ha        1 X23      0.138250
     63 HAK         1.3820    3.4820   -6.3640 ha        1 X23      0.173750
     64 HAH         1.9600    3.3030   -8.7880 ha        1 X23      0.182000
     65 HAL         2.9430    1.1840   -9.6830 ha        1 X23      0.173750
     66 HAP         3.3470   -0.7430   -8.1790 ha        1 X23      0.138250
     67 HAM         0.9640   -2.8390   -5.4940 ha        1 X23      0.138250
     68 HAI         1.1330   -5.0330   -6.6480 ha        1 X23      0.173750
     69 HAG         3.2160   -5.6450   -7.8910 ha        1 X23      0.182000
     70 HAJ         5.1360   -4.0480   -7.9660 ha        1 X23      0.173750
     71 HAN         4.9670   -1.8380   -6.8660 ha        1 X23      0.138250
     72 H36         4.0070    0.5170   -4.4410 hn        1 X23      0.469800
     73 H37         1.8790   -0.8760   -4.7500 hx        1 X23      0.108700
     74 HN3         1.5750    0.8620    4.7010 hn        1 X23      0.499467
     75 HAX2        2.8760   -0.9050    0.9670 hn        1 X23      0.491800
     76 HAB3        7.0860   -3.8470    4.5520 hn        1 X23      0.487800
     77 HAW2        4.8420   -0.8320   -4.9740 hn        1 X23      0.469800
@<TRIPOS>BOND
     1    1    2 1   
     2    1   37 1   
     3    1   38 1   
     4    1   39 1   
     5    2    3 1   
     6    2   40 1   
     7    2   41 1   
     8    3    4 1   
     9    3    5 1   
    10    3   42 1   
    11    4   43 1   
    12    4   44 1   
    13    4   74 1   
    14    5    6 2   
    15    5    7 1   
    16    7    8 1   
    17    7   45 1   
    18    7   75 1   
    19    8    9 1   
    20    8   12 1   
    21    8   46 1   
    22    9   10 2   
    23    9   11 1   
    24   11   17 1   
    25   11   20 1   
    26   12   13 1   
    27   12   15 1   
    28   12   47 1   
    29   13   14 1   
    30   13   48 1   
    31   13   49 1   
    32   14   50 1   
    33   14   51 1   
    34   14   76 1   
    35   15   16 1   
    36   15   52 1   
    37   15   53 1   
    38   16   17 1   
    39   16   54 1   
    40   16   55 1   
    41   17   18 1   
    42   17   56 1   
    43   18   19 1   
    44   18   57 1   
    45   18   58 1   
    46   19   20 1   
    47   19   59 1   
    48   19   60 1   
    49   20   21 1   
    50   20   61 1   
    51   21   22 2   
    52   21   23 1   
    53   23   24 1   
    54   23   72 1   
    55   23   77 1   
    56   24   25 1   
    57   24   31 1   
    58   24   73 1   
    59   25   26 ar  
    60   25   30 ar  
    61   26   27 ar  
    62   26   62 1   
    63   27   28 ar  
    64   27   63 1   
    65   28   29 ar  
    66   28   64 1   
    67   29   30 ar  
    68   29   65 1   
    69   30   66 1   
    70   31   32 ar  
    71   31   36 ar  
    72   32   33 ar  
    73   32   67 1   
    74   33   34 ar  
    75   33   68 1   
    76   34   35 ar  
    77   34   69 1   
    78   35   36 ar  
    79   35   70 1   
    80   36   71 1   
@<TRIPOS>SUBSTRUCTURE
     1 X23         1 TEMP              0 ****  ****    0 ROOT
