@<TRIPOS>MOLECULE
X23
   77    80     1     0     0
SMALL
bcc


@<TRIPOS>ATOM
      1 CAA         2.1340    3.0480    1.5280 c3        1 X23     -0.141100
      2 CB          3.0540    1.8890    1.8170 c3        1 X23     -0.114400
      3 CA          2.3920    0.8640    2.7660 c3        1 X23      0.063500
      4 N           2.0870    1.4770    4.1010 n4        1 X23     -0.843600
      5 C           3.3220   -0.3500    2.9120 c         1 X23      0.527100
      6 O           4.0250   -0.5940    3.8820 o         1 X23     -0.404100
      7 NAX         3.3900   -1.3100    1.7540 n4        1 X23     -0.671800
      8 CBH         4.8070   -1.5890    1.2720 c3        1 X23      0.074500
      9 CBA         4.8110   -1.2930   -0.2720 c         1 X23      0.681500
     10 OAF         4.6010   -0.0890   -0.5380 o         1 X23     -0.627500
     11 NBJ         5.0380   -2.2380   -1.2200 n         1 X23     -0.415800
     12 CBE         5.4050   -2.9330    1.7000 c3        1 X23     -0.113700
     13 CAR         5.8190   -2.9060    3.1850 c3        1 X23      0.095800
     14 NAB         6.8130   -3.9490    3.5630 n4        1 X23     -0.836600
     15 CAS         4.5340   -4.1430    1.4050 c3        1 X23     -0.116400
     16 CAT         4.0120   -4.1970   -0.0160 c3        1 X23     -0.111400
     17 CBF         5.0330   -3.6980   -1.0340 c3        1 X23      0.088700
     18 CAU         4.7970   -4.3100   -2.4330 c3        1 X23     -0.088400
     19 CAV         5.1970   -3.2260   -3.4230 c3        1 X23     -0.105400
     20 CBI         5.1010   -1.8890   -2.6490 c3        1 X23      0.032700
     21 CAZ         3.8880   -1.0870   -3.1530 c         1 X23      0.538100
     22 OAE         2.8620   -0.8970   -2.5060 o         1 X23     -0.460100
     23 NAW         4.0000   -0.5050   -4.5120 n4        1 X23     -0.688800
     24 CBG         2.7980   -0.8420   -5.4550 c3        1 X23      0.302100
     25 CBC         2.6520    0.3000   -6.4030 ca        1 X23     -0.204800
     26 CAO         2.0930    1.4950   -5.9070 ca        1 X23     -0.110500
     27 CAK         1.8740    2.5710   -6.7580 ca        1 X23     -0.112250
     28 CAH         2.2050    2.4710   -8.1150 ca        1 X23     -0.060000
     29 CAL         2.7540    1.2900   -8.6110 ca        1 X23     -0.112250
     30 CAP         2.9800    0.2060   -7.7600 ca        1 X23     -0.110500
     31 CBB         2.9910   -2.1900   -6.0700 ca        1 X23     -0.204800
     32 CAM         1.9190   -3.0920   -6.0260 ca        1 X23     -0.110500
     33 CAI         2.0130   -4.3220   -6.6780 ca        1 X23     -0.112250
     34 CAG         3.1770   -4.6660   -7.3650 ca        1 X23     -0.060000
     35 CAJ         4.2540   -3.7740   -7.3990 ca        1 X23     -0.112250
     36 CAN         4.1620   -2.5400   -6.7610 ca        1 X23     -0.110500
     37 HAA         2.0540    3.7530    2.3920 hc        1 X23      0.091700
     38 HAAA        2.5560    3.6420    0.6710 hc        1 X23      0.091700
     39 HAAB        1.1120    2.7080    1.2310 hc        1 X23      0.091700
     40 HB          4.0180    2.2630    2.2580 hc        1 X23      0.106200
     41 HBA         3.3040    1.3630    0.8530 hc        1 X23      0.106200
     42 HA          1.3950    0.5380    2.3230 hx        1 X23      0.160700
     43 HN          2.9530    1.7220    4.6050 hn        1 X23      0.499467
     44 HNA         1.5250    0.8470    4.6900 hn        1 X23      0.499467
     45 HNAX        2.8540   -0.9110    0.9610 hn        1 X23      0.491800
     46 HBH         5.4640   -0.7630    1.7020 hx        1 X23      0.142700
     47 HBE         6.3550   -3.0120    1.0800 hc        1 X23      0.129700
     48 HAR         4.9110   -3.0550    3.8420 hx        1 X23      0.118700
     49 HARA        6.2780   -1.9040    3.4400 hx        1 X23      0.118700
     50 HNAB        7.6860   -3.8410    3.0290 hn        1 X23      0.487800
     51 HNAA        6.4410   -4.8940    3.3960 hn        1 X23      0.487800
     52 HAS         3.6710   -4.2040    2.1230 hc        1 X23      0.078700
     53 HASA        5.1490   -5.0710    1.5790 hc        1 X23      0.078700
     54 HAT         3.7730   -5.2720   -0.2650 hc        1 X23      0.095700
     55 HATA        3.0460   -3.6340   -0.1070 hc        1 X23      0.095700
     56 HBF         6.0740   -3.9960   -0.7020 h1        1 X23      0.079700
     57 HAU         3.7230   -4.6000   -2.5660 hc        1 X23      0.105200
     58 HAUA        5.4220   -5.2300   -2.5630 hc        1 X23      0.105200
     59 HAV         4.5340   -3.2390   -4.3290 hc        1 X23      0.113200
     60 HAVA        6.2540   -3.3740   -3.7710 hc        1 X23      0.113200
     61 HBI         6.0250   -1.2530   -2.8030 h1        1 X23      0.126700
     62 HAO         1.7950    1.5680   -4.8510 ha        1 X23      0.138250
     63 HAK         1.4260    3.5010   -6.3720 ha        1 X23      0.173750
     64 HAH         2.0190    3.3240   -8.7920 ha        1 X23      0.182000
     65 HAL         3.0020    1.2030   -9.6840 ha        1 X23      0.173750
     66 HAP         3.3890   -0.7280   -8.1800 ha        1 X23      0.138250
     67 HAM         0.9820   -2.8210   -5.5140 ha        1 X23      0.138250
     68 HAI         1.1520   -5.0130   -6.6710 ha        1 X23      0.173750
     69 HAG         3.2420   -5.6300   -7.9000 ha        1 X23      0.182000
     70 HAJ         5.1670   -4.0380   -7.9600 ha        1 X23      0.173750
     71 HAN         4.9970   -1.8290   -6.8580 ha        1 X23      0.138250
     72 H36         4.8630   -0.8240   -4.9660 hn        1 X23      0.469800
     73 H37         1.8980   -0.8610   -4.7610 hx        1 X23      0.108700
     74 HN3         1.5480    2.3500    3.9380 hn        1 X23      0.499467
     75 HAX2        2.9480   -2.2020    2.0290 hn        1 X23      0.491800
     76 HAB3        7.0370   -3.8630    4.5690 hn        1 X23      0.487800
     77 HAW2        4.0280    0.5250   -4.4340 hn        1 X23      0.469800
@<TRIPOS>BOND
     1    1    2 1   
     2    1   37 1   
     3    1   38 1   
     4    1   39 1   
     5    2    3 1   
     6    2   40 1   
     7    2   41 1   
     8    3    4 1   
     9    3    5 1   
    10    3   42 1   
    11    4   43 1   
    12    4   44 1   
    13    4   74 1   
    14    5    6 2   
    15    5    7 1   
    16    7    8 1   
    17    7   45 1   
    18    7   75 1   
    19    8    9 1   
    20    8   12 1   
    21    8   46 1   
    22    9   10 2   
    23    9   11 1   
    24   11   17 1   
    25   11   20 1   
    26   12   13 1   
    27   12   15 1   
    28   12   47 1   
    29   13   14 1   
    30   13   48 1   
    31   13   49 1   
    32   14   50 1   
    33   14   51 1   
    34   14   76 1   
    35   15   16 1   
    36   15   52 1   
    37   15   53 1   
    38   16   17 1   
    39   16   54 1   
    40   16   55 1   
    41   17   18 1   
    42   17   56 1   
    43   18   19 1   
    44   18   57 1   
    45   18   58 1   
    46   19   20 1   
    47   19   59 1   
    48   19   60 1   
    49   20   21 1   
    50   20   61 1   
    51   21   22 2   
    52   21   23 1   
    53   23   24 1   
    54   23   72 1   
    55   23   77 1   
    56   24   25 1   
    57   24   31 1   
    58   24   73 1   
    59   25   26 ar  
    60   25   30 ar  
    61   26   27 ar  
    62   26   62 1   
    63   27   28 ar  
    64   27   63 1   
    65   28   29 ar  
    66   28   64 1   
    67   29   30 ar  
    68   29   65 1   
    69   30   66 1   
    70   31   32 ar  
    71   31   36 ar  
    72   32   33 ar  
    73   32   67 1   
    74   33   34 ar  
    75   33   68 1   
    76   34   35 ar  
    77   34   69 1   
    78   35   36 ar  
    79   35   70 1   
    80   36   71 1   
@<TRIPOS>SUBSTRUCTURE
     1 X23         1 TEMP              0 ****  ****    0 ROOT
