@<TRIPOS>MOLECULE
X23
   77    80     1     0     0
SMALL
bcc


@<TRIPOS>ATOM
      1 CAA         2.1380    3.0580    1.5140 c3        1 X23     -0.141100
      2 CB          3.0600    1.9020    1.8050 c3        1 X23     -0.114400
      3 CA          2.4020    0.8800    2.7600 c3        1 X23      0.063500
      4 N           2.1000    1.4980    4.0930 nz        1 X23     -0.843600
      5 C           3.3340   -0.3320    2.9090 c         1 X23      0.527100
      6 O           4.0410   -0.5710    3.8780 o         1 X23     -0.404100
      7 NAX         3.4020   -1.2970    1.7550 ny        1 X23     -0.671800
      8 CBH         4.8180   -1.5750    1.2700 c3        1 X23      0.074500
      9 CBA         4.8180   -1.2870   -0.2750 c         1 X23      0.681500
     10 OAF         4.6060   -0.0840   -0.5450 o         1 X23     -0.627500
     11 NBJ         5.0440   -2.2350   -1.2190 n         1 X23     -0.415800
     12 CBE         5.4200   -2.9170    1.7030 c3        1 X23     -0.113700
     13 CAR         5.8370   -2.8830    3.1870 c3        1 X23      0.095800
     14 NAB         6.8330   -3.9220    3.5680 nz        1 X23     -0.836600
     15 CAS         4.5490   -4.1300    1.4160 c3        1 X23     -0.116400
     16 CAT         4.0240   -4.1910   -0.0040 c3        1 X23     -0.111400
     17 CBF         5.0410   -3.6940   -1.0270 c3        1 X23      0.088700
     18 CAU         4.8030   -4.3130   -2.4220 c3        1 X23     -0.088400
     19 CAV         5.1990   -3.2320   -3.4180 c3        1 X23     -0.105400
     20 CBI         5.1030   -1.8930   -2.6490 c3        1 X23      0.032700
     21 CAZ         3.8880   -1.0950   -3.1540 c         1 X23      0.538100
     22 OAE         2.8630   -0.9030   -2.5060 o         1 X23     -0.460100
     23 NAW         3.9950   -0.5180   -4.5150 ny        1 X23     -0.688800
     24 CBG         2.7920   -0.8620   -5.4540 c3        1 X23      0.302100
     25 CBC         2.6410    0.2760   -6.4070 ca        1 X23     -0.204800
     26 CAO         2.0800    1.4710   -5.9140 ca        1 X23     -0.110500
     27 CAK         1.8550    2.5430   -6.7680 ca        1 X23     -0.112250
     28 CAH         2.1830    2.4400   -8.1260 ca        1 X23     -0.060000
     29 CAL         2.7350    1.2580   -8.6180 ca        1 X23     -0.112250
     30 CAP         2.9650    0.1780   -7.7640 ca        1 X23     -0.110500
     31 CBB         2.9870   -2.2110   -6.0650 ca        1 X23     -0.204800
     32 CAM         1.9180   -3.1170   -6.0150 ca        1 X23     -0.110500
     33 CAI         2.0140   -4.3490   -6.6630 ca        1 X23     -0.112250
     34 CAG         3.1770   -4.6910   -7.3520 ca        1 X23     -0.060000
     35 CAJ         4.2520   -3.7970   -7.3910 ca        1 X23     -0.112250
     36 CAN         4.1570   -2.5610   -6.7570 ca        1 X23     -0.110500
     37 HAA         1.1160    2.7150    1.2200 hc        1 X23      0.091700
     38 HAAA        2.0590    3.7670    2.3750 hc        1 X23      0.091700
     39 HAAB        2.5570    3.6490    0.6530 hc        1 X23      0.091700
     40 HB          3.3090    1.3720    0.8420 hc        1 X23      0.106200
     41 HBA         4.0250    2.2800    2.2420 hc        1 X23      0.106200
     42 HA          1.4050    0.5500    2.3210 hx        1 X23      0.160700
     43 HN          2.9670    1.7470    4.5940 hn        1 X23      0.499467
     44 HNA         1.5400    0.8700    4.6860 hn        1 X23      0.499467
     45 HNAX        2.8630   -0.9020    0.9620 hn        1 X23      0.491800
     46 HBH         5.4750   -0.7470    1.6960 hx        1 X23      0.142700
     47 HBE         6.3680   -2.9970    1.0810 hc        1 X23      0.129700
     48 HAR         4.9310   -3.0300    3.8470 hx        1 X23      0.118700
     49 HARA        6.2950   -1.8780    3.4370 hx        1 X23      0.118700
     50 HNAB        7.0600   -3.8310    4.5730 hn        1 X23      0.487800
     51 HNAA        7.7050   -3.8150    3.0310 hn        1 X23      0.487800
     52 HAS         5.1670   -5.0560    1.5930 hc        1 X23      0.078700
     53 HASA        3.6890   -4.1890    2.1360 hc        1 X23      0.078700
     54 HAT         3.0570   -3.6300   -0.0940 hc        1 X23      0.095700
     55 HATA        3.7860   -5.2670   -0.2470 hc        1 X23      0.095700
     56 HBF         6.0840   -3.9890   -0.6960 h1        1 X23      0.079700
     57 HAU         5.4290   -5.2330   -2.5500 hc        1 X23      0.105200
     58 HAUA        3.7300   -4.6060   -2.5510 hc        1 X23      0.105200
     59 HAV         6.2550   -3.3810   -3.7680 hc        1 X23      0.113200
     60 HAVA        4.5340   -3.2510   -4.3220 hc        1 X23      0.113200
     61 HBI         6.0260   -1.2550   -2.8080 h1        1 X23      0.126700
     62 HAO         1.7830    1.5480   -4.8570 ha        1 X23      0.138250
     63 HAK         1.4050    3.4740   -6.3840 ha        1 X23      0.173750
     64 HAH         1.9940    3.2900   -8.8050 ha        1 X23      0.182000
     65 HAL         2.9800    1.1680   -9.6910 ha        1 X23      0.173750
     66 HAP         3.3770   -0.7560   -8.1810 ha        1 X23      0.138250
     67 HAM         0.9810   -2.8460   -5.5030 ha        1 X23      0.138250
     68 HAI         1.1550   -5.0420   -6.6510 ha        1 X23      0.173750
     69 HAG         3.2440   -5.6570   -7.8830 ha        1 X23      0.182000
     70 HAJ         5.1640   -4.0600   -7.9530 ha        1 X23      0.173750
     71 HAN         4.9910   -1.8480   -6.8590 ha        1 X23      0.138250
     72 H36         4.8580   -0.8370   -4.9700 hn        1 X23      0.469800
     73 H37         1.8940   -0.8810   -4.7580 hx        1 X23      0.108700
     74 HN3         1.5590    2.3700    3.9280 hn        1 X23      0.499467
     75 HAX2        2.9620   -2.1890    2.0350 hn        1 X23      0.491800
     76 HAB3        6.4630   -4.8690    3.4050 hn        1 X23      0.487800
     77 HAW2        4.0210    0.5120   -4.4420 hn        1 X23      0.469800
@<TRIPOS>BOND
     1    1    2 1   
     2    1   37 1   
     3    1   38 1   
     4    1   39 1   
     5    2    3 1   
     6    2   40 1   
     7    2   41 1   
     8    3    4 1   
     9    3    5 1   
    10    3   42 1   
    11    4   43 1   
    12    4   44 1   
    13    4   74 1   
    14    5    6 2   
    15    5    7 1   
    16    7    8 1   
    17    7   45 1   
    18    7   75 1   
    19    8    9 1   
    20    8   12 1   
    21    8   46 1   
    22    9   10 2   
    23    9   11 1   
    24   11   17 1   
    25   11   20 1   
    26   12   13 1   
    27   12   15 1   
    28   12   47 1   
    29   13   14 1   
    30   13   48 1   
    31   13   49 1   
    32   14   50 1   
    33   14   51 1   
    34   14   76 1   
    35   15   16 1   
    36   15   52 1   
    37   15   53 1   
    38   16   17 1   
    39   16   54 1   
    40   16   55 1   
    41   17   18 1   
    42   17   56 1   
    43   18   19 1   
    44   18   57 1   
    45   18   58 1   
    46   19   20 1   
    47   19   59 1   
    48   19   60 1   
    49   20   21 1   
    50   20   61 1   
    51   21   22 2   
    52   21   23 1   
    53   23   24 1   
    54   23   72 1   
    55   23   77 1   
    56   24   25 1   
    57   24   31 1   
    58   24   73 1   
    59   25   26 ar  
    60   25   30 ar  
    61   26   27 ar  
    62   26   62 1   
    63   27   28 ar  
    64   27   63 1   
    65   28   29 ar  
    66   28   64 1   
    67   29   30 ar  
    68   29   65 1   
    69   30   66 1   
    70   31   32 ar  
    71   31   36 ar  
    72   32   33 ar  
    73   32   67 1   
    74   33   34 ar  
    75   33   68 1   
    76   34   35 ar  
    77   34   69 1   
    78   35   36 ar  
    79   35   70 1   
    80   36   71 1   
@<TRIPOS>SUBSTRUCTURE
     1 X23         1 TEMP              0 ****  ****    0 ROOT
