@<TRIPOS>MOLECULE
X23
   73    76     1     0     0
SMALL
bcc


@<TRIPOS>ATOM
      1 CAA         0.2030    4.0880   -0.6660 c3        1 X23     -0.086100
      2 CB         -0.5680    3.0990    0.1680 c3        1 X23     -0.089400
      3 CA         -2.0850    3.3040    0.0460 c3        1 X23      0.110500
      4 N          -2.5120    4.6360    0.4150 n3        1 X23     -0.884800
      5 C          -2.7820    2.1920    0.8760 c         1 X23      0.613100
      6 O          -3.3930    2.4630    1.9310 o         1 X23     -0.624100
      7 NAX        -2.7510    0.9090    0.3680 n         1 X23     -0.551900
      8 CBH        -3.1950   -0.2270    1.1380 c3        1 X23      0.043700
      9 CBA        -2.0140   -1.2120    1.2980 c         1 X23      0.692500
     10 OAF        -1.3020   -1.1360    2.3160 o         1 X23     -0.617500
     11 NBJ        -1.6900   -2.1310    0.3090 n         1 X23     -0.472800
     12 CBE        -4.4590   -0.9220    0.6010 c3        1 X23     -0.066700
     13 CAR        -5.6860   -0.1510    1.1250 c3        1 X23      0.156800
     14 NAB        -6.9440   -0.7870    0.8100 n3        1 X23     -0.919800
     15 CAS        -4.5260   -1.0340   -0.9110 c3        1 X23     -0.069400
     16 CAT        -3.2820   -1.5760   -1.5800 c3        1 X23     -0.102400
     17 CBF        -2.5560   -2.6330   -0.7490 c3        1 X23      0.116700
     18 CAU        -1.6640   -3.5140   -1.6620 c3        1 X23     -0.088400
     19 CAV        -0.2650   -3.5030   -1.0590 c3        1 X23     -0.083400
     20 CBI        -0.2910   -2.4260    0.0450 c3        1 X23      0.044700
     21 CAZ         0.4940   -1.1770   -0.4390 c         1 X23      0.649100
     22 OAE        -0.0840   -0.1670   -0.8950 o         1 X23     -0.639100
     23 NAW         1.8670   -1.2570   -0.3760 n         1 X23     -0.551900
     24 CBG         2.7240   -0.1350   -0.7080 c3        1 X23      0.189300
     25 CBC         3.4210    0.4180    0.5180 ca        1 X23     -0.098300
     26 CAO         2.9360    1.5920    1.1050 ca        1 X23     -0.116750
     27 CAK         3.5580    2.1170    2.2360 ca        1 X23     -0.129000
     28 CAH         4.6630    1.4710    2.7920 ca        1 X23     -0.123000
     29 CAL         5.1440    0.2970    2.2130 ca        1 X23     -0.129000
     30 CAP         4.5240   -0.2300    1.0810 ca        1 X23     -0.116750
     31 CBB         3.7360   -0.4660   -1.7850 ca        1 X23     -0.098300
     32 CAM         4.0240    0.5160   -2.7420 ca        1 X23     -0.116750
     33 CAI         4.9530    0.2650   -3.7490 ca        1 X23     -0.129000
     34 CAG         5.5990   -0.9700   -3.8150 ca        1 X23     -0.123000
     35 CAJ         5.3120   -1.9520   -2.8680 ca        1 X23     -0.129000
     36 CAN         4.3860   -1.7010   -1.8550 ca        1 X23     -0.116750
     37 HAA         1.2910    3.8310   -0.6500 hc        1 X23      0.037033
     38 HAAA       -0.1490    4.0680   -1.7260 hc        1 X23      0.037033
     39 HAAB        0.0820    5.1280   -0.2780 hc        1 X23      0.037033
     40 HB         -0.3180    2.0570   -0.1720 hc        1 X23      0.058700
     41 HBA        -0.2610    3.1860    1.2440 hc        1 X23      0.058700
     42 HA         -2.3790    3.1630   -1.0380 h1        1 X23      0.076700
     43 HN         -3.5130    4.6750    0.4560 hn        1 X23      0.358300
     44 HNA        -2.1480    4.8830    1.3160 hn        1 X23      0.358300
     45 HNAX       -2.1650    0.7200   -0.4180 hn        1 X23      0.335500
     46 HBH        -3.4220    0.1350    2.1940 h1        1 X23      0.114700
     47 HBE        -4.4720   -1.9560    1.0480 hc        1 X23      0.051700
     48 HAR        -5.5510   -0.0070    2.2400 h1        1 X23      0.038700
     49 HARA       -5.6910    0.8750    0.6580 h1        1 X23      0.038700
     50 HNAB       -6.9850   -1.7100    1.1940 hn        1 X23      0.349300
     51 HNAA       -7.7030   -0.2450    1.1730 hn        1 X23      0.349300
     52 HAS        -5.3910   -1.7060   -1.1650 hc        1 X23      0.056700
     53 HASA       -4.7600   -0.0270   -1.3490 hc        1 X23      0.056700
     54 HAT        -3.5920   -2.0520   -2.5500 hc        1 X23      0.055700
     55 HATA       -2.5720   -0.7480   -1.8450 hc        1 X23      0.055700
     56 HBF        -3.3330   -3.2900   -0.2540 h1        1 X23      0.056700
     57 HAU        -2.0750   -4.5510   -1.7050 hc        1 X23      0.057700
     58 HAUA       -1.6430   -3.1060   -2.7030 hc        1 X23      0.057700
     59 HAV        -0.0190   -4.4950   -0.6050 hc        1 X23      0.061200
     60 HAVA        0.5080   -3.2740   -1.8320 hc        1 X23      0.061200
     61 HBI         0.1770   -2.7970    1.0020 h1        1 X23      0.091700
     62 HAO         2.0550    2.1000    0.6780 ha        1 X23      0.133250
     63 HAK         3.1730    3.0400    2.6940 ha        1 X23      0.133500
     64 HAH         5.1520    1.8860    3.6850 ha        1 X23      0.133000
     65 HAL         6.0140   -0.2150    2.6490 ha        1 X23      0.133500
     66 HAP         4.9130   -1.1510    0.6200 ha        1 X23      0.133250
     67 HAM         3.5150    1.4910   -2.7000 ha        1 X23      0.133250
     68 HAI         5.1760    1.0420   -4.4950 ha        1 X23      0.133500
     69 HAG         6.3310   -1.1690   -4.6120 ha        1 X23      0.133000
     70 HAJ         5.8180   -2.9270   -2.9170 ha        1 X23      0.133500
     71 HAN         4.1770   -2.4900   -1.1170 ha        1 X23      0.133250
     72 H36         2.2860   -2.0130    0.1100 hn        1 X23      0.311500
     73 H37         2.0460    0.6810   -1.1210 h1        1 X23      0.098700
@<TRIPOS>BOND
     1    1    2 1   
     2    1   37 1   
     3    1   38 1   
     4    1   39 1   
     5    2    3 1   
     6    2   40 1   
     7    2   41 1   
     8    3    4 1   
     9    3    5 1   
    10    3   42 1   
    11    4   43 1   
    12    4   44 1   
    13    5    6 2   
    14    5    7 1   
    15    7    8 1   
    16    7   45 1   
    17    8    9 1   
    18    8   12 1   
    19    8   46 1   
    20    9   10 2   
    21    9   11 1   
    22   11   17 1   
    23   11   20 1   
    24   12   13 1   
    25   12   15 1   
    26   12   47 1   
    27   13   14 1   
    28   13   48 1   
    29   13   49 1   
    30   14   50 1   
    31   14   51 1   
    32   15   16 1   
    33   15   52 1   
    34   15   53 1   
    35   16   17 1   
    36   16   54 1   
    37   16   55 1   
    38   17   18 1   
    39   17   56 1   
    40   18   19 1   
    41   18   57 1   
    42   18   58 1   
    43   19   20 1   
    44   19   59 1   
    45   19   60 1   
    46   20   21 1   
    47   20   61 1   
    48   21   22 2   
    49   21   23 1   
    50   23   24 1   
    51   23   72 1   
    52   24   25 1   
    53   24   31 1   
    54   24   73 1   
    55   25   26 ar  
    56   25   30 ar  
    57   26   27 ar  
    58   26   62 1   
    59   27   28 ar  
    60   27   63 1   
    61   28   29 ar  
    62   28   64 1   
    63   29   30 ar  
    64   29   65 1   
    65   30   66 1   
    66   31   32 ar  
    67   31   36 ar  
    68   32   33 ar  
    69   32   67 1   
    70   33   34 ar  
    71   33   68 1   
    72   34   35 ar  
    73   34   69 1   
    74   35   36 ar  
    75   35   70 1   
    76   36   71 1   
@<TRIPOS>SUBSTRUCTURE
     1 X23         1 TEMP              0 ****  ****    0 ROOT
