@<TRIPOS>MOLECULE
X24
   78    81     1     0     0
SMALL
bcc


@<TRIPOS>ATOM
      1 C1         -2.7210    0.9900   -2.4700 c3        1 X24     -0.133767
      2 C2         -1.3590    0.4350   -2.1250 c3        1 X24      0.211800
      3 C3         -1.3020   -0.1930   -0.7530 c3        1 X24     -0.133767
      4 C4         -0.8110   -0.4770   -3.2080 c3        1 X24     -0.133767
      5 O5         -0.3510    1.5650   -2.1790 os        1 X24     -0.426900
      6 C6         -0.5000    2.6060   -1.3700 c         1 X24      0.638100
      7 O7         -1.3210    2.8270   -0.4940 o         1 X24     -0.421000
      8 N8          0.5800    3.6350   -1.6770 ny        1 X24     -0.655800
      9 C9          1.1400    4.2220   -0.4250 c3        1 X24      0.105800
     10 C10         2.0370    5.4410   -0.6600 c3        1 X24     -0.090700
     11 C11         2.1600    6.1930    0.6630 c3        1 X24     -0.080900
     12 C12         3.0610    7.4010    0.5220 c3        1 X24     -0.080400
     13 C13         4.4470    7.0010    0.0210 c3        1 X24     -0.089700
     14 C14         5.2760    8.2800   -0.1300 c3        1 X24      0.096800
     15 N15         6.7510    8.0520   -0.1750 ny        1 X24     -0.681800
     16 C16         7.5510    9.3490   -0.0410 c         1 X24      0.573700
     17 O17         7.0520   10.2200    0.6500 o         1 X24     -0.384100
     18 C18         8.8590    9.3410   -0.7150 ca        1 X24     -0.161600
     19 C19         9.9770    9.6540    0.0360 ca        1 X24     -0.138300
     20 C20        11.2640    9.6420   -0.6030 cp        1 X24      0.456800
     21 N21        11.4210    9.3120   -1.8850 nb        1 X24     -0.581000
     22 C22        10.3120    9.0290   -2.6450 ca        1 X24      0.400600
     23 C23        10.4880    8.7090   -4.0340 ca        1 X24     -0.121300
     24 C24         9.3960    8.5070   -4.8400 ca        1 X24     -0.109000
     25 C25         8.0850    8.6310   -4.3230 ca        1 X24     -0.049000
     26 C26         7.8810    8.9050   -2.9910 ca        1 X24     -0.197000
     27 C27         8.9790    9.0720   -2.1110 ca        1 X24     -0.113300
     28 C28        12.4570   10.0190    0.1860 cp        1 X24     -0.118500
     29 C29        13.4830   10.7650   -0.4140 ca        1 X24     -0.089500
     30 C30        14.6300   11.0850    0.3100 ca        1 X24     -0.096000
     31 C31        14.7620   10.6730    1.6410 ca        1 X24     -0.165300
     32 C32        16.0340   10.9260    2.3780 c3        1 X24      0.163100
     33 N33        16.2090   12.3700    2.7360 nz        1 X24     -0.841600
     34 C34        13.7320    9.9450    2.2470 ca        1 X24     -0.096000
     35 C35        12.5880    9.6160    1.5210 ca        1 X24     -0.089500
     36 C36         4.3290    6.2460   -1.2940 c3        1 X24     -0.080400
     37 C37         3.4170    5.0390   -1.1600 c3        1 X24     -0.080900
     38 H11C       -2.6950    1.5290   -3.4480 hc        1 X24      0.077700
     39 H12C       -3.0860    1.6850   -1.6730 hc        1 X24      0.077700
     40 H13C       -3.4460    0.1420   -2.5530 hc        1 X24      0.077700
     41 H31C       -1.6810    0.5120    0.0280 hc        1 X24      0.077700
     42 H32C       -1.9510   -1.1050   -0.7470 hc        1 X24      0.077700
     43 H33C       -0.2590   -0.4990   -0.4990 hc        1 X24      0.077700
     44 H41C        0.2240   -0.8130   -2.9580 hc        1 X24      0.077700
     45 H42C       -0.7980    0.0410   -4.1960 hc        1 X24      0.077700
     46 H43C       -1.4770   -1.3740   -3.2770 hc        1 X24      0.077700
     47 H8          1.3210    3.1900   -2.2300 hn        1 X24      0.464800
     48 H91C        1.7150    3.4100    0.1060 hx        1 X24      0.123700
     49 H92C        0.2610    4.5190    0.2260 hx        1 X24      0.123700
     50 H10         1.5600    6.1330   -1.4120 hc        1 X24      0.074700
     51 H111        2.5660    5.5040    1.4500 hc        1 X24      0.066450
     52 H112        1.1450    6.5370    1.0010 hc        1 X24      0.066450
     53 H371        3.3340    4.5390   -2.1610 hc        1 X24      0.066450
     54 H372        3.8750    4.3020   -0.4480 hc        1 X24      0.066450
     55 H121        3.1480    7.9060    1.5210 hc        1 X24      0.063700
     56 H122        2.6030    8.1360   -0.1920 hc        1 X24      0.063700
     57 H13         4.9150    6.3240    0.7920 hc        1 X24      0.071700
     58 H141        4.9870    8.8220   -1.0760 hx        1 X24      0.120200
     59 H142        5.0670    8.9650    0.7470 hx        1 X24      0.120200
     60 H361        3.9240    6.9310   -2.0860 hc        1 X24      0.063700
     61 H362        5.3400    5.8970   -1.6310 hc        1 X24      0.063700
     62 H15         7.0210    7.4350    0.6000 hn        1 X24      0.461800
     63 H19         9.9030    9.9200    1.1020 ha        1 X24      0.171000
     64 H23        11.5130    8.6430   -4.4410 ha        1 X24      0.186000
     65 H24         9.5310    8.2690   -5.9100 ha        1 X24      0.179000
     66 H25         7.2290    8.5220   -5.0110 ha        1 X24      0.163000
     67 H26         6.8560    9.0780   -2.6300 ha        1 X24      0.115000
     68 H29        13.4000   11.0890   -1.4660 ha        1 X24      0.163000
     69 H35        11.8000    9.0160    2.0030 ha        1 X24      0.163000
     70 H30        15.4420   11.6400   -0.1880 ha        1 X24      0.153000
     71 H321       16.0700   10.3310    3.3380 hx        1 X24      0.123700
     72 H322       16.9180   10.6280    1.7370 hx        1 X24      0.123700
     73 H34        13.8260    9.6050    3.2910 ha        1 X24      0.153000
     74 H331       15.4660   12.6720    3.3760 hn        1 X24      0.464800
     75 H332       17.1180   12.5100    3.1920 hn        1 X24      0.464800
     76 H82         0.1490    4.3740   -2.2450 hn        1 X24      0.464800
     77 H152        7.0090    7.5890   -1.0560 hn        1 X24      0.461800
     78 H333       16.1650   12.9500    1.8910 hn        1 X24      0.464800
@<TRIPOS>BOND
     1    1    2 1   
     2    1   38 1   
     3    1   39 1   
     4    1   40 1   
     5    2    3 1   
     6    2    4 1   
     7    2    5 1   
     8    3   41 1   
     9    3   42 1   
    10    3   43 1   
    11    4   44 1   
    12    4   45 1   
    13    4   46 1   
    14    5    6 1   
    15    6    7 2   
    16    6    8 1   
    17    8    9 1   
    18    8   47 1   
    19    8   76 1   
    20    9   10 1   
    21    9   48 1   
    22    9   49 1   
    23   10   11 1   
    24   10   37 1   
    25   10   50 1   
    26   11   12 1   
    27   11   51 1   
    28   11   52 1   
    29   12   13 1   
    30   12   55 1   
    31   12   56 1   
    32   13   14 1   
    33   13   36 1   
    34   13   57 1   
    35   14   15 1   
    36   14   58 1   
    37   14   59 1   
    38   15   16 1   
    39   15   62 1   
    40   15   77 1   
    41   16   17 2   
    42   16   18 1   
    43   18   19 ar  
    44   18   27 ar  
    45   19   20 ar  
    46   19   63 1   
    47   20   21 ar  
    48   20   28 1   
    49   21   22 ar  
    50   22   23 ar  
    51   22   27 ar  
    52   23   24 ar  
    53   23   64 1   
    54   24   25 ar  
    55   24   65 1   
    56   25   26 ar  
    57   25   66 1   
    58   26   27 ar  
    59   26   67 1   
    60   28   29 ar  
    61   28   35 ar  
    62   29   30 ar  
    63   29   68 1   
    64   30   31 ar  
    65   30   70 1   
    66   31   32 1   
    67   31   34 ar  
    68   32   33 1   
    69   32   71 1   
    70   32   72 1   
    71   33   74 1   
    72   33   75 1   
    73   33   78 1   
    74   34   35 ar  
    75   34   73 1   
    76   35   69 1   
    77   36   37 1   
    78   36   60 1   
    79   36   61 1   
    80   37   53 1   
    81   37   54 1   
@<TRIPOS>SUBSTRUCTURE
     1 X24         1 TEMP              0 ****  ****    0 ROOT
