@<TRIPOS>MOLECULE
X24
   78    81     1     0     0
SMALL
bcc


@<TRIPOS>ATOM
      1 C1         -2.7610    1.0480   -2.4980 c3        1 X24     -0.133767
      2 C2         -1.4170    0.4850   -2.1000 c3        1 X24      0.211800
      3 C3         -1.4050   -0.0950   -0.7060 c3        1 X24     -0.133767
      4 C4         -0.8570   -0.4720   -3.1350 c3        1 X24     -0.133767
      5 O5         -0.3910    1.5980   -2.1660 os        1 X24     -0.426900
      6 C6         -0.5440    2.6690   -1.3980 c         1 X24      0.638100
      7 O7         -1.3830    2.9320   -0.5520 o         1 X24     -0.421000
      8 N8          0.5590    3.6710   -1.7130 n4        1 X24     -0.655800
      9 C9          1.0930    4.2970   -0.4690 c3        1 X24      0.105800
     10 C10         2.0150    5.4930   -0.7240 c3        1 X24     -0.090700
     11 C11         2.1120    6.2930    0.5720 c3        1 X24     -0.080900
     12 C12         3.0340    7.4820    0.4110 c3        1 X24     -0.080400
     13 C13         4.4280    7.0440   -0.0340 c3        1 X24     -0.089700
     14 C14         5.2800    8.3050   -0.2100 c3        1 X24      0.096800
     15 N15         6.7520    8.0540   -0.2030 n4        1 X24     -0.681800
     16 C16         7.5670    9.3450   -0.0980 c         1 X24      0.573700
     17 O17         7.0620   10.2490    0.5420 o         1 X24     -0.384100
     18 C18         8.8940    9.2910   -0.7330 ca        1 X24     -0.161600
     19 C19         9.9950    9.6190    0.0380 ca        1 X24     -0.138300
     20 C20        11.2990    9.5630   -0.5610 cp        1 X24      0.456800
     21 N21        11.4880    9.1790   -1.8240 nb        1 X24     -0.581000
     22 C22        10.3970    8.8810   -2.6040 ca        1 X24      0.400600
     23 C23        10.6080    8.5010   -3.9740 ca        1 X24     -0.121300
     24 C24         9.5370    8.2820   -4.8030 ca        1 X24     -0.109000
     25 C25         8.2130    8.4450   -4.3300 ca        1 X24     -0.049000
     26 C26         7.9750    8.7760   -3.0160 ca        1 X24     -0.197000
     27 C27         9.0500    8.9630   -2.1120 ca        1 X24     -0.113300
     28 C28        12.4740    9.9560    0.2460 cp        1 X24     -0.118500
     29 C29        13.5280   10.6630   -0.3540 ca        1 X24     -0.089500
     30 C30        14.6590   10.9960    0.3900 ca        1 X24     -0.096000
     31 C31        14.7460   10.6370    1.7400 ca        1 X24     -0.165300
     32 C32        16.0000   10.9030    2.5040 c3        1 X24      0.163100
     33 N33        16.1860   12.3580    2.8080 n4        1 X24     -0.841600
     34 C34        13.6880    9.9490    2.3440 ca        1 X24     -0.096000
     35 C35        12.5600    9.6060    1.5990 ca        1 X24     -0.089500
     36 C36         4.3350    6.2400   -1.3230 c3        1 X24     -0.080400
     37 C37         3.4020    5.0530   -1.1690 c3        1 X24     -0.080900
     38 H11C       -2.7030    1.5520   -3.4930 hc        1 X24      0.077700
     39 H12C       -3.1350    1.7750   -1.7360 hc        1 X24      0.077700
     40 H13C       -3.4970    0.2080   -2.5710 hc        1 X24      0.077700
     41 H31C       -2.0680   -0.9970   -0.6850 hc        1 X24      0.077700
     42 H32C       -1.7920    0.6420    0.0400 hc        1 X24      0.077700
     43 H33C       -0.3730   -0.4080   -0.4150 hc        1 X24      0.077700
     44 H41C        0.1660   -0.8140   -2.8480 hc        1 X24      0.077700
     45 H42C       -0.8110    0.0110   -4.1410 hc        1 X24      0.077700
     46 H43C       -1.5340   -1.3610   -3.1910 hc        1 X24      0.077700
     47 H8          1.3080    3.1950   -2.2280 hn        1 X24      0.464800
     48 H91C        1.6410    3.4970    0.1080 hx        1 X24      0.123700
     49 H92C        0.2020    4.6300    0.1460 hx        1 X24      0.123700
     50 H10         1.5700    6.1620   -1.5150 hc        1 X24      0.074700
     51 H111        1.0930    6.6640    0.8680 hc        1 X24      0.066450
     52 H112        2.4840    5.6300    1.3970 hc        1 X24      0.066450
     53 H371        3.3400    4.5160   -2.1510 hc        1 X24      0.066450
     54 H372        3.8290    4.3370   -0.4160 hc        1 X24      0.066450
     55 H121        3.1010    8.0240    1.3930 hc        1 X24      0.063700
     56 H122        2.6070    8.1960   -0.3430 hc        1 X24      0.063700
     57 H13         4.8640    6.3910    0.7750 hc        1 X24      0.071700
     58 H141        5.0270    8.8130   -1.1840 hx        1 X24      0.120200
     59 H142        5.0560    9.0260    0.6340 hx        1 X24      0.120200
     60 H361        5.3510    5.8650   -1.6160 hc        1 X24      0.063700
     61 H362        3.9630    6.9010   -2.1510 hc        1 X24      0.063700
     62 H15         7.0280    7.5530   -1.0570 hn        1 X24      0.461800
     63 H19         9.8940    9.9290    1.0900 ha        1 X24      0.171000
     64 H23        11.6430    8.4050   -4.3480 ha        1 X24      0.186000
     65 H24         9.6990    7.9980   -5.8580 ha        1 X24      0.179000
     66 H25         7.3760    8.3200   -5.0370 ha        1 X24      0.163000
     67 H26         6.9430    8.9780   -2.6930 ha        1 X24      0.115000
     68 H29        13.4800   10.9440   -1.4200 ha        1 X24      0.163000
     69 H35        11.7500    9.0370    2.0820 ha        1 X24      0.163000
     70 H30        15.4920   11.5190   -0.1060 ha        1 X24      0.153000
     71 H321       16.8970   10.5670    1.9010 hx        1 X24      0.123700
     72 H322       16.0000   10.3470    3.4870 hx        1 X24      0.123700
     73 H34        13.7470    9.6500    3.4040 ha        1 X24      0.153000
     74 H331       16.1740   12.9030    1.9390 hn        1 X24      0.464800
     75 H332       15.4290   12.6950    3.4120 hn        1 X24      0.464800
     76 H82         0.1550    4.3940   -2.3200 hn        1 X24      0.464800
     77 H152        6.9900    7.4650    0.6030 hn        1 X24      0.461800
     78 H333       17.0830   12.5040    3.2840 hn        1 X24      0.464800
@<TRIPOS>BOND
     1    1    2 1   
     2    1   38 1   
     3    1   39 1   
     4    1   40 1   
     5    2    3 1   
     6    2    4 1   
     7    2    5 1   
     8    3   41 1   
     9    3   42 1   
    10    3   43 1   
    11    4   44 1   
    12    4   45 1   
    13    4   46 1   
    14    5    6 1   
    15    6    7 2   
    16    6    8 1   
    17    8    9 1   
    18    8   47 1   
    19    8   76 1   
    20    9   10 1   
    21    9   48 1   
    22    9   49 1   
    23   10   11 1   
    24   10   37 1   
    25   10   50 1   
    26   11   12 1   
    27   11   51 1   
    28   11   52 1   
    29   12   13 1   
    30   12   55 1   
    31   12   56 1   
    32   13   14 1   
    33   13   36 1   
    34   13   57 1   
    35   14   15 1   
    36   14   58 1   
    37   14   59 1   
    38   15   16 1   
    39   15   62 1   
    40   15   77 1   
    41   16   17 2   
    42   16   18 1   
    43   18   19 ar  
    44   18   27 ar  
    45   19   20 ar  
    46   19   63 1   
    47   20   21 ar  
    48   20   28 1   
    49   21   22 ar  
    50   22   23 ar  
    51   22   27 ar  
    52   23   24 ar  
    53   23   64 1   
    54   24   25 ar  
    55   24   65 1   
    56   25   26 ar  
    57   25   66 1   
    58   26   27 ar  
    59   26   67 1   
    60   28   29 ar  
    61   28   35 ar  
    62   29   30 ar  
    63   29   68 1   
    64   30   31 ar  
    65   30   70 1   
    66   31   32 1   
    67   31   34 ar  
    68   32   33 1   
    69   32   71 1   
    70   32   72 1   
    71   33   74 1   
    72   33   75 1   
    73   33   78 1   
    74   34   35 ar  
    75   34   73 1   
    76   35   69 1   
    77   36   37 1   
    78   36   60 1   
    79   36   61 1   
    80   37   53 1   
    81   37   54 1   
@<TRIPOS>SUBSTRUCTURE
     1 X24         1 TEMP              0 ****  ****    0 ROOT
