@<TRIPOS>MOLECULE
X24
   78    81     1     0     0
SMALL
bcc


@<TRIPOS>ATOM
      1 C1         -2.7320    1.0200   -2.5130 c3        1 X24     -0.133767
      2 C2         -1.3690    0.4590   -2.1840 c3        1 X24      0.211800
      3 C3         -1.3060   -0.1910   -0.8220 c3        1 X24     -0.133767
      4 C4         -0.8260   -0.4360   -3.2830 c3        1 X24     -0.133767
      5 O5         -0.3610    1.5900   -2.2230 os        1 X24     -0.426900
      6 C6         -0.5070    2.6180   -1.3960 c         1 X24      0.638100
      7 O7         -1.3240    2.8240   -0.5130 o         1 X24     -0.421000
      8 N8          0.5720    3.6520   -1.6910 n4        1 X24     -0.655800
      9 C9          1.1400    4.2140   -0.4320 c3        1 X24      0.105800
     10 C10         2.0360    5.4380   -0.6490 c3        1 X24     -0.090700
     11 C11         2.1690    6.1630    0.6870 c3        1 X24     -0.080900
     12 C12         3.0700    7.3730    0.5640 c3        1 X24     -0.080400
     13 C13         4.4510    6.9830    0.0440 c3        1 X24     -0.089700
     14 C14         5.2800    8.2650   -0.0870 c3        1 X24      0.096800
     15 N15         6.7530    8.0380   -0.1510 n4        1 X24     -0.681800
     16 C16         7.5550    9.3320    0.0050 c         1 X24      0.573700
     17 O17         7.0640   10.1860    0.7210 o         1 X24     -0.384100
     18 C18         8.8560    9.3390   -0.6830 ca        1 X24     -0.161600
     19 C19         9.9820    9.6360    0.0640 ca        1 X24     -0.138300
     20 C20        11.2620    9.6390   -0.5880 cp        1 X24      0.456800
     21 N21        11.4050    9.3380   -1.8790 nb        1 X24     -0.581000
     22 C22        10.2890    9.0730   -2.6340 ca        1 X24      0.400600
     23 C23        10.4500    8.7840   -4.0320 ca        1 X24     -0.121300
     24 C24         9.3510    8.6010   -4.8310 ca        1 X24     -0.109000
     25 C25         8.0440    8.7120   -4.2980 ca        1 X24     -0.049000
     26 C26         7.8540    8.9560   -2.9570 ca        1 X24     -0.197000
     27 C27         8.9620    9.1020   -2.0850 ca        1 X24     -0.113300
     28 C28        12.4630    9.9990    0.1960 cp        1 X24     -0.118500
     29 C29        13.4830   10.7590   -0.3980 ca        1 X24     -0.089500
     30 C30        14.6370   11.0630    0.3210 ca        1 X24     -0.096000
     31 C31        14.7830   10.6200    1.6410 ca        1 X24     -0.165300
     32 C32        16.0630   10.8570    2.3710 c3        1 X24      0.163100
     33 N33        16.2420   12.2920    2.7600 n4        1 X24     -0.841600
     34 C34        13.7600    9.8790    2.2410 ca        1 X24     -0.096000
     35 C35        12.6080    9.5650    1.5200 ca        1 X24     -0.089500
     36 C36         4.3220    6.2550   -1.2850 c3        1 X24     -0.080400
     37 C37         3.4120    5.0460   -1.1680 c3        1 X24     -0.080900
     38 H11C       -3.4580    0.1720   -2.6070 hc        1 X24      0.077700
     39 H12C       -2.7110    1.5740   -3.4820 hc        1 X24      0.077700
     40 H13C       -3.0940    1.7010   -1.7040 hc        1 X24      0.077700
     41 H31C       -0.2620   -0.5020   -0.5780 hc        1 X24      0.077700
     42 H32C       -1.9550   -1.1040   -0.8280 hc        1 X24      0.077700
     43 H33C       -1.6820    0.5000   -0.0280 hc        1 X24      0.077700
     44 H41C        0.2100   -0.7750   -3.0430 hc        1 X24      0.077700
     45 H42C       -1.4920   -1.3310   -3.3640 hc        1 X24      0.077700
     46 H43C       -0.8170    0.1000   -4.2630 hc        1 X24      0.077700
     47 H8          1.3090    3.2170   -2.2580 hn        1 X24      0.464800
     48 H91C        0.2670    4.4980    0.2320 hx        1 X24      0.123700
     49 H92C        1.7190    3.3920    0.0790 hx        1 X24      0.123700
     50 H10         1.5540    6.1440   -1.3840 hc        1 X24      0.074700
     51 H111        2.5810    5.4580    1.4580 hc        1 X24      0.066450
     52 H112        1.1580    6.4990    1.0410 hc        1 X24      0.066450
     53 H371        3.3210    4.5660   -2.1780 hc        1 X24      0.066450
     54 H372        3.8760    4.2950   -0.4750 hc        1 X24      0.066450
     55 H121        3.1640    7.8570    1.5720 hc        1 X24      0.063700
     56 H122        2.6060    8.1230   -0.1310 hc        1 X24      0.063700
     57 H13         4.9260    6.2910    0.7970 hc        1 X24      0.071700
     58 H141        5.0780    8.9320    0.8060 hx        1 X24      0.120200
     59 H142        4.9820    8.8270   -1.0190 hx        1 X24      0.120200
     60 H361        5.3310    5.9130   -1.6360 hc        1 X24      0.063700
     61 H362        3.9110    6.9560   -2.0600 hc        1 X24      0.063700
     62 H15         7.0300    7.4040    0.6080 hn        1 X24      0.461800
     63 H19         9.9190    9.8770    1.1370 ha        1 X24      0.171000
     64 H23        11.4710    8.7280   -4.4510 ha        1 X24      0.186000
     65 H24         9.4740    8.3870   -5.9080 ha        1 X24      0.179000
     66 H25         7.1810    8.6180   -4.9790 ha        1 X24      0.163000
     67 H26         6.8330    9.1200   -2.5820 ha        1 X24      0.115000
     68 H29        13.3890   11.1060   -1.4410 ha        1 X24      0.163000
     69 H35        11.8260    8.9540    1.9970 ha        1 X24      0.163000
     70 H30        15.4440   11.6290   -0.1730 ha        1 X24      0.153000
     71 H321       16.1100   10.2400    3.3160 hx        1 X24      0.123700
     72 H322       16.9400   10.5740    1.7140 hx        1 X24      0.123700
     73 H34        13.8650    9.5140    3.2760 ha        1 X24      0.153000
     74 H331       15.5050   12.5790    3.4130 hn        1 X24      0.464800
     75 H332       16.1880   12.8910    1.9280 hn        1 X24      0.464800
     76 H82         0.1370    4.4020   -2.2410 hn        1 X24      0.464800
     77 H152        7.0030    7.5950   -1.0440 hn        1 X24      0.461800
     78 H333       17.1560   12.4220    3.2080 hn        1 X24      0.464800
@<TRIPOS>BOND
     1    1    2 1   
     2    1   38 1   
     3    1   39 1   
     4    1   40 1   
     5    2    3 1   
     6    2    4 1   
     7    2    5 1   
     8    3   41 1   
     9    3   42 1   
    10    3   43 1   
    11    4   44 1   
    12    4   45 1   
    13    4   46 1   
    14    5    6 1   
    15    6    7 2   
    16    6    8 1   
    17    8    9 1   
    18    8   47 1   
    19    8   76 1   
    20    9   10 1   
    21    9   48 1   
    22    9   49 1   
    23   10   11 1   
    24   10   37 1   
    25   10   50 1   
    26   11   12 1   
    27   11   51 1   
    28   11   52 1   
    29   12   13 1   
    30   12   55 1   
    31   12   56 1   
    32   13   14 1   
    33   13   36 1   
    34   13   57 1   
    35   14   15 1   
    36   14   58 1   
    37   14   59 1   
    38   15   16 1   
    39   15   62 1   
    40   15   77 1   
    41   16   17 2   
    42   16   18 1   
    43   18   19 ar  
    44   18   27 ar  
    45   19   20 ar  
    46   19   63 1   
    47   20   21 ar  
    48   20   28 1   
    49   21   22 ar  
    50   22   23 ar  
    51   22   27 ar  
    52   23   24 ar  
    53   23   64 1   
    54   24   25 ar  
    55   24   65 1   
    56   25   26 ar  
    57   25   66 1   
    58   26   27 ar  
    59   26   67 1   
    60   28   29 ar  
    61   28   35 ar  
    62   29   30 ar  
    63   29   68 1   
    64   30   31 ar  
    65   30   70 1   
    66   31   32 1   
    67   31   34 ar  
    68   32   33 1   
    69   32   71 1   
    70   32   72 1   
    71   33   74 1   
    72   33   75 1   
    73   33   78 1   
    74   34   35 ar  
    75   34   73 1   
    76   35   69 1   
    77   36   37 1   
    78   36   60 1   
    79   36   61 1   
    80   37   53 1   
    81   37   54 1   
@<TRIPOS>SUBSTRUCTURE
     1 X24         1 TEMP              0 ****  ****    0 ROOT
