@<TRIPOS>MOLECULE
X24
   75    78     1     0     0
SMALL
bcc


@<TRIPOS>ATOM
      1 C1          7.9660    2.3680   -0.0390 c3        1 X24     -0.113767
      2 C2          7.1310    1.7820   -1.1650 c3        1 X24      0.185800
      3 C3          5.8510    2.5710   -1.3820 c3        1 X24     -0.113767
      4 C4          7.9460    1.7250   -2.4570 c3        1 X24     -0.113767
      5 O5          6.8310    0.3840   -0.9140 os        1 X24     -0.454900
      6 C6          6.1870    0.0290    0.2480 c         1 X24      0.731100
      7 O7          5.6620    0.8870    0.9760 o         1 X24     -0.588000
      8 N8          6.2660   -1.3390    0.4810 n         1 X24     -0.514900
      9 C9          5.3240   -1.9610    1.3750 c3        1 X24      0.079000
     10 C10         4.0550   -2.5290    0.7200 c3        1 X24     -0.097700
     11 C11         3.3400   -3.4290    1.7160 c3        1 X24     -0.074400
     12 C12         2.0600   -3.9860    1.1290 c3        1 X24     -0.072400
     13 C13         1.1330   -2.8720    0.6640 c3        1 X24     -0.090700
     14 C14        -0.1200   -3.5040    0.0370 c3        1 X24      0.087000
     15 N15        -1.1800   -2.5810   -0.2540 n         1 X24     -0.563900
     16 C16        -2.3830   -2.5880    0.4260 c         1 X24      0.666700
     17 O17        -2.6700   -3.4860    1.2420 o         1 X24     -0.592100
     18 C18        -3.3300   -1.4780    0.0930 ca        1 X24     -0.083600
     19 C19        -2.9450   -0.1700    0.2660 ca        1 X24     -0.219300
     20 C20        -3.8770    0.8820   -0.0430 cp        1 X24      0.475800
     21 N21        -5.1030    0.6470   -0.5040 nb        1 X24     -0.641000
     22 C22        -5.4960   -0.6630   -0.6850 ca        1 X24      0.396600
     23 C23        -6.8120   -0.9330   -1.1850 ca        1 X24     -0.168300
     24 C24        -7.2330   -2.2260   -1.3650 ca        1 X24     -0.120000
     25 C25        -6.3850   -3.3150   -1.0570 ca        1 X24     -0.124000
     26 C26        -5.1170   -3.0940   -0.5790 ca        1 X24     -0.104000
     27 C27        -4.6400   -1.7710   -0.3890 ca        1 X24     -0.118300
     28 C28        -3.4300    2.2720    0.1730 cp        1 X24     -0.152500
     29 C29        -4.2880    3.2160    0.7500 ca        1 X24     -0.104500
     30 C30        -3.8480    4.5220    0.9640 ca        1 X24     -0.123500
     31 C31        -2.5520    4.9000    0.6020 ca        1 X24     -0.081300
     32 C32        -2.0810    6.3110    0.7970 c3        1 X24      0.202100
     33 N33        -2.3830    6.8540    2.1020 n3        1 X24     -0.916800
     34 C34        -1.6990    3.9570    0.0170 ca        1 X24     -0.123500
     35 C35        -2.1340    2.6530   -0.1990 ca        1 X24     -0.104500
     36 C36         1.8490   -1.9650   -0.3250 c3        1 X24     -0.072400
     37 C37         3.1300   -1.4120    0.2640 c3        1 X24     -0.074400
     38 H11C        7.3580    2.4510    0.8950 hc        1 X24      0.051700
     39 H12C        8.8490    1.7160    0.1630 hc        1 X24      0.051700
     40 H13C        8.3220    3.3840   -0.3310 hc        1 X24      0.051700
     41 H31C        6.1040    3.5960   -1.7410 hc        1 X24      0.051700
     42 H32C        5.2140    2.0640   -2.1460 hc        1 X24      0.051700
     43 H33C        5.2760    2.6500   -0.4280 hc        1 X24      0.051700
     44 H41C        8.8710    1.1210   -2.3020 hc        1 X24      0.051700
     45 H42C        7.3440    1.2560   -3.2710 hc        1 X24      0.051700
     46 H43C        8.2260    2.7620   -2.7550 hc        1 X24      0.051700
     47 H8          6.5670   -1.8910   -0.2930 hn        1 X24      0.308500
     48 H91C        5.8750   -2.8080    1.8780 h1        1 X24      0.070700
     49 H92C        5.0270   -1.2110    2.1640 h1        1 X24      0.070700
     50 H10         4.3410   -3.1490   -0.1760 hc        1 X24      0.048700
     51 H111        4.0130   -4.2770    2.0090 hc        1 X24      0.047450
     52 H112        3.1070   -2.8450    2.6460 hc        1 X24      0.047450
     53 H371        2.8890   -0.7490    1.1370 hc        1 X24      0.047450
     54 H372        3.6520   -0.7780   -0.5000 hc        1 X24      0.047450
     55 H121        2.3030   -4.6550    0.2630 hc        1 X24      0.041700
     56 H122        1.5380   -4.6080    1.9020 hc        1 X24      0.041700
     57 H13         0.8340   -2.2610    1.5620 hc        1 X24      0.060700
     58 H141        0.1790   -4.0070   -0.9290 h1        1 X24      0.063700
     59 H142       -0.5140   -4.2960    0.7380 h1        1 X24      0.063700
     60 H361        2.0810   -2.5410   -1.2590 hc        1 X24      0.041700
     61 H362        1.1840   -1.1100   -0.6120 hc        1 X24      0.041700
     62 H15        -0.9590   -1.7980   -0.8220 hn        1 X24      0.310500
     63 H19        -1.9520    0.0970    0.6550 ha        1 X24      0.151000
     64 H23        -7.4760   -0.0860   -1.4200 ha        1 X24      0.152000
     65 H24        -8.2450   -2.4310   -1.7490 ha        1 X24      0.137000
     66 H25        -6.7560   -4.3410   -1.2020 ha        1 X24      0.138000
     67 H26        -4.4550   -3.9360   -0.3160 ha        1 X24      0.157000
     68 H29        -5.3120    2.9310    1.0340 ha        1 X24      0.140000
     69 H35        -1.4600    1.9240   -0.6710 ha        1 X24      0.140000
     70 H30        -4.5270    5.2610    1.4190 ha        1 X24      0.143000
     71 H321       -0.9750    6.3570    0.5600 h1        1 X24      0.035200
     72 H322       -2.6060    6.9630    0.0370 h1        1 X24      0.035200
     73 H34        -0.6780    4.2450   -0.2780 ha        1 X24      0.143000
     74 H331       -2.1380    6.2110    2.8290 hn        1 X24      0.353300
     75 H332       -1.8910    7.7140    2.2400 hn        1 X24      0.353300
@<TRIPOS>BOND
     1    1    2 1   
     2    1   38 1   
     3    1   39 1   
     4    1   40 1   
     5    2    3 1   
     6    2    4 1   
     7    2    5 1   
     8    3   41 1   
     9    3   42 1   
    10    3   43 1   
    11    4   44 1   
    12    4   45 1   
    13    4   46 1   
    14    5    6 1   
    15    6    7 2   
    16    6    8 1   
    17    8    9 1   
    18    8   47 1   
    19    9   10 1   
    20    9   48 1   
    21    9   49 1   
    22   10   11 1   
    23   10   37 1   
    24   10   50 1   
    25   11   12 1   
    26   11   51 1   
    27   11   52 1   
    28   12   13 1   
    29   12   55 1   
    30   12   56 1   
    31   13   14 1   
    32   13   36 1   
    33   13   57 1   
    34   14   15 1   
    35   14   58 1   
    36   14   59 1   
    37   15   16 1   
    38   15   62 1   
    39   16   17 2   
    40   16   18 1   
    41   18   19 ar  
    42   18   27 ar  
    43   19   20 ar  
    44   19   63 1   
    45   20   21 ar  
    46   20   28 1   
    47   21   22 ar  
    48   22   23 ar  
    49   22   27 ar  
    50   23   24 ar  
    51   23   64 1   
    52   24   25 ar  
    53   24   65 1   
    54   25   26 ar  
    55   25   66 1   
    56   26   27 ar  
    57   26   67 1   
    58   28   29 ar  
    59   28   35 ar  
    60   29   30 ar  
    61   29   68 1   
    62   30   31 ar  
    63   30   70 1   
    64   31   32 1   
    65   31   34 ar  
    66   32   33 1   
    67   32   71 1   
    68   32   72 1   
    69   33   74 1   
    70   33   75 1   
    71   34   35 ar  
    72   34   73 1   
    73   35   69 1   
    74   36   37 1   
    75   36   60 1   
    76   36   61 1   
    77   37   53 1   
    78   37   54 1   
@<TRIPOS>SUBSTRUCTURE
     1 X24         1 TEMP              0 ****  ****    0 ROOT
