@<TRIPOS>MOLECULE
X25
   52    56     1     0     0
SMALL
bcc


@<TRIPOS>ATOM
      1 C          -0.0100   -0.1430   -0.1900 c3        1 X25     -0.055900
      2 C1          1.4460   -0.0610   -0.0760 cc        1 X25      0.012600
      3 C2          2.2100   -0.0250    1.0780 cd        1 X25     -0.087700
      4 O           3.5990    0.0410    0.7900 os        1 X25     -0.165200
      5 C14         1.8710   -0.0340    2.4670 cd        1 X25      0.594200
      6 N1          2.5920    0.0400    3.5870 nc        1 X25     -0.663000
      7 C15         1.6160   -0.0210    4.6240 cc        1 X25      0.538300
      8 C16         1.9690    0.0350    6.0740 c3        1 X25     -0.054400
      9 C17         2.2150    1.4370    6.5170 ca        1 X25     -0.092300
     10 C18         1.2650    2.1060    7.2970 ca        1 X25     -0.113500
     11 C19         1.5080    3.4090    7.7310 ca        1 X25     -0.132500
     12 C20         2.6980    4.0510    7.3890 ca        1 X25     -0.125000
     13 C21         3.6460    3.3880    6.6090 ca        1 X25     -0.132500
     14 C22         3.4070    2.0860    6.1740 ca        1 X25     -0.113500
     15 N2          0.3650   -0.1280    4.1050 nd        1 X25     -0.371300
     16 O2          0.4790   -0.1400    2.7970 os        1 X25     -0.138100
     17 C3          3.6860    0.0490   -0.5980 ca        1 X25      0.116100
     18 C13         2.3850   -0.0120   -1.1830 ca        1 X25     -0.161800
     19 C4          4.8640    0.1080   -1.3400 ca        1 X25     -0.167000
     20 C5          4.7180    0.1110   -2.7230 ca        1 X25     -0.059000
     21 C6          3.4610    0.0590   -3.3430 ca        1 X25     -0.242000
     22 C7          2.2850   -0.0050   -2.5870 ca        1 X25      0.202100
     23 O1          1.0080   -0.0580   -3.0920 os        1 X25     -0.322900
     24 C8          0.8560   -0.1450   -4.5210 c3        1 X25      0.141100
     25 C9         -0.5360   -0.7370   -4.7340 c3        1 X25     -0.094400
     26 C10        -0.8790   -0.7400   -6.2220 c3        1 X25      0.165800
     27 N          -0.7360    0.5620   -6.8440 n7        1 X25     -0.822200
     28 C11         0.5560    1.1800   -6.6230 c3        1 X25      0.165800
     29 C12         0.9480    1.2400   -5.1480 c3        1 X25     -0.094400
     30 HC1        -0.5090    0.3660    0.6730 hc        1 X25      0.066700
     31 HC2        -0.3310   -1.2180   -0.1940 hc        1 X25      0.066700
     32 HC3        -0.3530    0.3260   -1.1470 hc        1 X25      0.066700
     33 H161        1.1380   -0.4230    6.6760 hc        1 X25      0.076700
     34 H162        2.8950   -0.5820    6.2430 hc        1 X25      0.076700
     35 H18         0.3240    1.6050    7.5660 ha        1 X25      0.140500
     36 H22         4.1520    1.5640    5.5520 ha        1 X25      0.140500
     37 H19         0.7580    3.9300    8.3440 ha        1 X25      0.132500
     38 H20         2.8880    5.0780    7.7320 ha        1 X25      0.131000
     39 H21         4.5840    3.8930    6.3350 ha        1 X25      0.132500
     40 H4          5.8450    0.1510   -0.8510 ha        1 X25      0.159000
     41 H5          5.6170    0.1590   -3.3570 ha        1 X25      0.139000
     42 H6          3.4190    0.0750   -4.4410 ha        1 X25      0.142000
     43 H8          1.6330   -0.8350   -4.9500 h1        1 X25      0.052700
     44 H91C       -0.5660   -1.7860   -4.3460 hc        1 X25      0.063950
     45 H92C       -1.2850   -0.1330   -4.1590 hc        1 X25      0.063950
     46 H121        0.2680    1.9380   -4.5940 hc        1 X25      0.063950
     47 H122        1.9900    1.6380   -5.0620 hc        1 X25      0.063950
     48 H101       -1.9550   -1.0510   -6.3410 h1        1 X25      0.031700
     49 H102       -0.2400   -1.5240   -6.7280 h1        1 X25      0.031700
     50 H          -0.9230    0.4960   -7.8270 hn        1 X25      0.368800
     51 H111        1.3820    0.6480   -7.1840 h1        1 X25      0.031700
     52 H112        0.4960    2.2310   -7.0240 h1        1 X25      0.031700
@<TRIPOS>BOND
     1    1    2 1   
     2    1   30 1   
     3    1   31 1   
     4    1   32 1   
     5    2    3 2   
     6    2   18 1   
     7    3    4 1   
     8    3    5 1   
     9    4   17 1   
    10    5    6 2   
    11    5   16 1   
    12    6    7 1   
    13    7    8 1   
    14    7   15 2   
    15    8    9 1   
    16    8   33 1   
    17    8   34 1   
    18    9   10 ar  
    19    9   14 ar  
    20   10   11 ar  
    21   10   35 1   
    22   11   12 ar  
    23   11   37 1   
    24   12   13 ar  
    25   12   38 1   
    26   13   14 ar  
    27   13   39 1   
    28   14   36 1   
    29   15   16 1   
    30   17   18 ar  
    31   17   19 ar  
    32   18   22 ar  
    33   19   20 ar  
    34   19   40 1   
    35   20   21 ar  
    36   20   41 1   
    37   21   22 ar  
    38   21   42 1   
    39   22   23 1   
    40   23   24 1   
    41   24   25 1   
    42   24   29 1   
    43   24   43 1   
    44   25   26 1   
    45   25   44 1   
    46   25   45 1   
    47   26   27 1   
    48   26   48 1   
    49   26   49 1   
    50   27   28 1   
    51   27   50 1   
    52   28   29 1   
    53   28   51 1   
    54   28   52 1   
    55   29   46 1   
    56   29   47 1   
@<TRIPOS>SUBSTRUCTURE
     1 X25         1 TEMP              0 ****  ****    0 ROOT
