@<TRIPOS>MOLECULE
X25
   52    56     1     0     0
SMALL
bcc


@<TRIPOS>ATOM
      1 C          -1.0300    1.7120    0.5610 c3        1 X25     -0.055900
      2 C1         -0.7280    0.2820    0.4930 cc        1 X25      0.012600
      3 C2          0.5060   -0.3350    0.6150 cd        1 X25     -0.088700
      4 O           0.4070   -1.7440    0.4720 os        1 X25     -0.165200
      5 C14         1.8220    0.1670    0.8560 cd        1 X25      0.594200
      6 N1          3.0150   -0.4160    0.9920 nc        1 X25     -0.663000
      7 C15         3.9030    0.6760    1.2180 cc        1 X25      0.538300
      8 C16         5.3720    0.4970    1.4210 c3        1 X25     -0.054400
      9 C17         6.0800    0.3130    0.1220 ca        1 X25     -0.092300
     10 C18         6.8480    1.3510   -0.4150 ca        1 X25     -0.113500
     11 C19         7.5300    1.1690   -1.6170 ca        1 X25     -0.132500
     12 C20         7.4480   -0.0500   -2.2900 ca        1 X25     -0.125000
     13 C21         6.6810   -1.0870   -1.7590 ca        1 X25     -0.132500
     14 C22         5.9990   -0.9090   -0.5570 ca        1 X25     -0.113500
     15 N2          3.2300    1.8560    1.2130 nd        1 X25     -0.371300
     16 O2          1.9630    1.5870    0.9960 os        1 X25     -0.138100
     17 C3         -0.9430   -1.9970    0.2570 ca        1 X25      0.116100
     18 C13        -1.6900   -0.7810    0.2630 ca        1 X25     -0.161800
     19 C4         -1.5150   -3.2530    0.0630 ca        1 X25     -0.167000
     20 C5         -2.8920   -3.2760   -0.1330 ca        1 X25     -0.058000
     21 C6         -3.6670   -2.1070   -0.1340 ca        1 X25     -0.242000
     22 C7         -3.0820   -0.8520    0.0660 ca        1 X25      0.203100
     23 O1         -3.7480    0.3500    0.0920 os        1 X25     -0.322900
     24 C8         -5.1830    0.3230   -0.0210 c3        1 X25      0.141100
     25 C9         -5.6500    1.6480    0.5760 c3        1 X25     -0.094400
     26 C10        -7.1550    1.8080    0.3770 c3        1 X25      0.166300
     27 N          -7.5690    1.6540   -1.0030 n3        1 X25     -0.822200
     28 C11        -7.1030    0.4300   -1.6230 c3        1 X25      0.166300
     29 C12        -5.5960    0.2230   -1.4840 c3        1 X25     -0.094400
     30 HC1        -0.9200    2.1730   -0.4550 hc        1 X25      0.066367
     31 HC2        -2.0830    1.8720    0.9040 hc        1 X25      0.066367
     32 HC3        -0.3280    2.2380    1.2580 hc        1 X25      0.066367
     33 H161        5.7820    1.3910    1.9650 hc        1 X25      0.076700
     34 H162        5.5370   -0.4060    2.0730 hc        1 X25      0.076700
     35 H18         6.9120    2.3160    0.1110 ha        1 X25      0.140500
     36 H22         5.3880   -1.7250   -0.1400 ha        1 X25      0.140500
     37 H19         8.1310    1.9890   -2.0350 ha        1 X25      0.132500
     38 H20         7.9860   -0.1930   -3.2390 ha        1 X25      0.131000
     39 H21         6.6130   -2.0490   -2.2890 ha        1 X25      0.132500
     40 H4         -0.9060   -4.1650    0.0660 ha        1 X25      0.159000
     41 H5         -3.3950   -4.2420   -0.2940 ha        1 X25      0.139000
     42 H6         -4.7500   -2.1980   -0.3020 ha        1 X25      0.142000
     43 H8         -5.6010   -0.5330    0.5760 h1        1 X25      0.052700
     44 H91C       -5.4170    1.6750    1.6700 hc        1 X25      0.064200
     45 H92C       -5.0980    2.4900    0.0850 hc        1 X25      0.064200
     46 H121       -5.0420    0.9990   -2.0750 hc        1 X25      0.064200
     47 H122       -5.3240   -0.7810   -1.8980 hc        1 X25      0.064200
     48 H101       -7.6790    1.0750    1.0610 h1        1 X25      0.031700
     49 H102       -7.4520    2.8460    0.7010 h1        1 X25      0.031700
     50 H          -8.5670    1.7170   -1.0730 hn        1 X25      0.368800
     51 H111       -7.6220   -0.4830   -1.2030 h1        1 X25      0.031700
     52 H112       -7.3600    0.4910   -2.7190 h1        1 X25      0.031700
@<TRIPOS>BOND
     1    1    2 1   
     2    1   30 1   
     3    1   31 1   
     4    1   32 1   
     5    2    3 2   
     6    2   18 1   
     7    3    4 1   
     8    3    5 1   
     9    4   17 1   
    10    5    6 2   
    11    5   16 1   
    12    6    7 1   
    13    7    8 1   
    14    7   15 2   
    15    8    9 1   
    16    8   33 1   
    17    8   34 1   
    18    9   10 ar  
    19    9   14 ar  
    20   10   11 ar  
    21   10   35 1   
    22   11   12 ar  
    23   11   37 1   
    24   12   13 ar  
    25   12   38 1   
    26   13   14 ar  
    27   13   39 1   
    28   14   36 1   
    29   15   16 1   
    30   17   18 ar  
    31   17   19 ar  
    32   18   22 ar  
    33   19   20 ar  
    34   19   40 1   
    35   20   21 ar  
    36   20   41 1   
    37   21   22 ar  
    38   21   42 1   
    39   22   23 1   
    40   23   24 1   
    41   24   25 1   
    42   24   29 1   
    43   24   43 1   
    44   25   26 1   
    45   25   44 1   
    46   25   45 1   
    47   26   27 1   
    48   26   48 1   
    49   26   49 1   
    50   27   28 1   
    51   27   50 1   
    52   28   29 1   
    53   28   51 1   
    54   28   52 1   
    55   29   46 1   
    56   29   47 1   
@<TRIPOS>SUBSTRUCTURE
     1 X25         1 TEMP              0 ****  ****    0 ROOT
