@<TRIPOS>MOLECULE
X25
   52    56     1     0     0
SMALL
bcc


@<TRIPOS>ATOM
      1 C          -0.0300   -0.0640   -0.2090 c3        1 X25     -0.055900
      2 C1          1.4270    0.0030   -0.0880 cc        1 X25      0.012600
      3 C2          2.1850    0.0490    1.0700 cd        1 X25     -0.088700
      4 O           3.5730    0.1290    0.7880 os        1 X25     -0.165200
      5 C14         1.8400    0.0270    2.4570 cd        1 X25      0.594200
      6 N1          2.5590    0.0560    3.5810 nc        1 X25     -0.663000
      7 C15         1.5770    0.0030    4.6130 cc        1 X25      0.538300
      8 C16         1.9260    0.0190    6.0650 c3        1 X25     -0.054400
      9 C17         2.2120    1.4040    6.5370 ca        1 X25     -0.092300
     10 C18         1.2790    2.0850    7.3280 ca        1 X25     -0.113500
     11 C19         1.5590    3.3700    7.7900 ca        1 X25     -0.132500
     12 C20         2.7690    3.9830    7.4650 ca        1 X25     -0.125000
     13 C21         3.7000    3.3080    6.6750 ca        1 X25     -0.132500
     14 C22         3.4250    2.0230    6.2120 ca        1 X25     -0.113500
     15 N2          0.3250   -0.0560    4.0880 nd        1 X25     -0.371300
     16 O2          0.4440   -0.0440    2.7810 os        1 X25     -0.138100
     17 C3          3.6680    0.1280   -0.5990 ca        1 X25      0.116100
     18 C13         2.3710    0.0490   -1.1900 ca        1 X25     -0.161800
     19 C4          4.8490    0.1920   -1.3360 ca        1 X25     -0.167000
     20 C5          4.7110    0.1760   -2.7190 ca        1 X25     -0.058000
     21 C6          3.4580    0.0970   -3.3460 ca        1 X25     -0.242000
     22 C7          2.2790    0.0290   -2.5960 ca        1 X25      0.203100
     23 O1          1.0060   -0.0590   -3.1060 os        1 X25     -0.322900
     24 C8          0.8640   -0.1660   -4.5350 c3        1 X25      0.141100
     25 C9         -0.5160   -0.7830   -4.7470 c3        1 X25     -0.094400
     26 C10        -0.8510   -0.8110   -6.2370 c3        1 X25      0.166300
     27 N          -0.7270    0.4850   -6.8740 n3        1 X25     -0.822200
     28 C11         0.5520    1.1290   -6.6540 c3        1 X25      0.166300
     29 C12         0.9350    1.2130   -5.1780 c3        1 X25     -0.094400
     30 HC1        -0.4590    0.9720   -0.2060 hc        1 X25      0.066367
     31 HC2        -0.4780   -0.6290    0.6470 hc        1 X25      0.066367
     32 HC3        -0.3190   -0.5580   -1.1710 hc        1 X25      0.066367
     33 H161        2.8330   -0.6290    6.2240 hc        1 X25      0.076700
     34 H162        1.0790   -0.4270    6.6550 hc        1 X25      0.076700
     35 H18         0.3220    1.6070    7.5830 ha        1 X25      0.140500
     36 H22         4.1560    1.4930    5.5820 ha        1 X25      0.140500
     37 H19         0.8220    3.9010    8.4100 ha        1 X25      0.132500
     38 H20         2.9880    4.9970    7.8290 ha        1 X25      0.131000
     39 H21         4.6540    3.7910    6.4150 ha        1 X25      0.132500
     40 H4          5.8270    0.2520   -0.8430 ha        1 X25      0.159000
     41 H5          5.6130    0.2260   -3.3490 ha        1 X25      0.139000
     42 H6          3.4220    0.0960   -4.4440 ha        1 X25      0.142000
     43 H8          1.6550   -0.8470   -4.9520 h1        1 X25      0.052700
     44 H91C       -0.5310   -1.8280   -4.3460 hc        1 X25      0.064200
     45 H92C       -1.2790   -0.1860   -4.1840 hc        1 X25      0.064200
     46 H121        0.2390    1.9060   -4.6360 hc        1 X25      0.064200
     47 H122        1.9700    1.6310   -5.0910 hc        1 X25      0.064200
     48 H101       -1.9210   -1.1420   -6.3590 h1        1 X25      0.031700
     49 H102       -0.1960   -1.5900   -6.7300 h1        1 X25      0.031700
     50 H          -0.9080    0.4050   -7.8570 hn        1 X25      0.368800
     51 H111        0.4760    2.1740   -7.0690 h1        1 X25      0.031700
     52 H112        1.3910    0.6050   -7.2040 h1        1 X25      0.031700
@<TRIPOS>BOND
     1    1    2 1   
     2    1   30 1   
     3    1   31 1   
     4    1   32 1   
     5    2    3 2   
     6    2   18 1   
     7    3    4 1   
     8    3    5 1   
     9    4   17 1   
    10    5    6 2   
    11    5   16 1   
    12    6    7 1   
    13    7    8 1   
    14    7   15 2   
    15    8    9 1   
    16    8   33 1   
    17    8   34 1   
    18    9   10 ar  
    19    9   14 ar  
    20   10   11 ar  
    21   10   35 1   
    22   11   12 ar  
    23   11   37 1   
    24   12   13 ar  
    25   12   38 1   
    26   13   14 ar  
    27   13   39 1   
    28   14   36 1   
    29   15   16 1   
    30   17   18 ar  
    31   17   19 ar  
    32   18   22 ar  
    33   19   20 ar  
    34   19   40 1   
    35   20   21 ar  
    36   20   41 1   
    37   21   22 ar  
    38   21   42 1   
    39   22   23 1   
    40   23   24 1   
    41   24   25 1   
    42   24   29 1   
    43   24   43 1   
    44   25   26 1   
    45   25   44 1   
    46   25   45 1   
    47   26   27 1   
    48   26   48 1   
    49   26   49 1   
    50   27   28 1   
    51   27   50 1   
    52   28   29 1   
    53   28   51 1   
    54   28   52 1   
    55   29   46 1   
    56   29   47 1   
@<TRIPOS>SUBSTRUCTURE
     1 X25         1 TEMP              0 ****  ****    0 ROOT
