@<TRIPOS>MOLECULE
X29
   26    28     1     0     0
SMALL
bcc


@<TRIPOS>ATOM
      1 C01        -0.0370   -0.0460   -0.0480 cc        1 X29     -0.066900
      2 C02         1.3950   -0.0070   -0.0620 cc        1 X29     -0.104000
      3 C03         2.1050    0.0420    1.1040 cd        1 X29     -0.076000
      4 C04        -0.7280   -0.0360    1.1460 cd        1 X29     -0.031300
      5 N05        -0.0340    0.0150    2.3310 na        1 X29     -0.073200
      6 C06         1.3990    0.0520    2.3480 cd        1 X29     -0.077300
      7 N07         1.8010    0.0960    3.6660 nc        1 X29     -0.077000
      8 N08         0.7480    0.0870    4.4380 nc        1 X29     -0.308700
      9 C09        -0.4080    0.0390    3.6910 cd        1 X29      0.356400
     10 BR1        -0.9720   -0.1140   -1.6590 br        1 X29     -0.050100
     11 C11        -1.7800    0.0080    4.1700 ca        1 X29     -0.161900
     12 C12        -2.2090   -1.0030    5.0600 ca        1 X29      0.207100
     13 C13        -3.5160   -1.0090    5.5600 ca        1 X29     -0.253000
     14 C14        -4.4090   -0.0040    5.1620 ca        1 X29      0.195100
     15 C15        -3.9930    1.0000    4.2640 ca        1 X29     -0.114600
     16 C16        -2.6830    1.0000    3.7830 ca        1 X29     -0.036000
     17 O17        -5.6690   -0.0840    5.6930 oh        1 X29     -0.483100
     18 O18        -1.3070   -1.9790    5.3870 oh        1 X29     -0.465100
     19 CL1        -5.0650    2.2220    3.7630 cl        1 X29     -0.084400
     20 H1          1.9170   -0.0170   -1.0330 ha        1 X29      0.160000
     21 H2          3.2040    0.0710    1.1330 ha        1 X29      0.173000
     22 H3         -1.8300   -0.0680    1.2230 h4        1 X29      0.184000
     23 H4         -3.8560   -1.7850    6.2610 ha        1 X29      0.164000
     24 H5         -2.3530    1.7990    3.0990 ha        1 X29      0.157000
     25 H6         -6.1910    0.6680    5.3670 ho        1 X29      0.437000
     26 H7         -1.7040   -2.5450    6.0670 ho        1 X29      0.429000
@<TRIPOS>BOND
     1    1    2 1   
     2    1    4 2   
     3    1   10 1   
     4    2    3 2   
     5    2   20 1   
     6    3    6 1   
     7    3   21 1   
     8    4    5 1   
     9    4   22 1   
    10    5    6 1   
    11    5    9 1   
    12    6    7 2   
    13    7    8 1   
    14    8    9 2   
    15    9   11 1   
    16   11   12 ar  
    17   11   16 ar  
    18   12   13 ar  
    19   12   18 1   
    20   13   14 ar  
    21   13   23 1   
    22   14   15 ar  
    23   14   17 1   
    24   15   16 ar  
    25   15   19 1   
    26   16   24 1   
    27   17   25 1   
    28   18   26 1   
@<TRIPOS>SUBSTRUCTURE
     1 X29         1 TEMP              0 ****  ****    0 ROOT
