@<TRIPOS>MOLECULE
X2C
   61    64     1     0     0
SMALL
bcc


@<TRIPOS>ATOM
      1 N01        -2.6880   -0.7180    2.6180 nb        1 X2C     -0.825000
      2 C02        -2.0030   -1.9050    2.6440 ca        1 X2C      0.640200
      3 N02        -2.7280   -3.0990    2.8110 nv        1 X2C     -0.935500
      4 C03        -0.5950   -1.9610    2.4240 ca        1 X2C     -0.291300
      5 C04         0.1050   -0.7800    2.1830 ca        1 X2C      0.026700
      6 C05        -0.6020    0.4310    2.1700 ca        1 X2C     -0.278300
      7 C06        -1.9900    0.4200    2.3860 ca        1 X2C      0.458600
      8 C07         1.5680   -0.7940    1.9630 c3        1 X2C     -0.074800
      9 C08        -2.7140    1.7420    2.3760 c3        1 X2C     -0.129700
     10 O09        -5.0950    1.5240    1.0320 os        1 X2C     -0.436600
     11 N1'        -3.8710    4.2940   -0.0180 n7        1 X2C     -0.788200
     12 C10        -6.0860    0.6860    0.4710 c3        1 X2C      0.107400
     13 C11        -5.8440   -0.7750    0.8770 c3        1 X2C      0.079800
     14 N12        -5.5080   -0.9120    2.3220 ny        1 X2C     -0.754000
     15 C13        -5.9270   -2.2070    2.8670 cx        1 X2C      0.002500
     16 C14        -5.9770   -2.4250    4.3770 cx        1 X2C     -0.030400
     17 C15        -7.2500   -2.3840    3.5740 cx        1 X2C     -0.105400
     18 C2'        -2.9000    3.8610    0.9840 c3        1 X2C      0.150800
     19 C21        -5.4490   -3.6770    4.9350 ca        1 X2C     -0.107300
     20 C22        -4.7360   -3.6340    6.1410 ca        1 X2C     -0.117000
     21 C23        -4.2370   -4.8060    6.7160 ca        1 X2C     -0.062300
     22 C24        -4.4520   -6.0320    6.0720 ca        1 X2C     -0.108000
     23 C25        -5.1590   -6.0800    4.8730 ca        1 X2C     -0.116000
     24 C26        -5.6580   -4.9100    4.3040 ca        1 X2C     -0.130000
     25 C27        -3.5070   -4.7580    8.0040 c3        1 X2C     -0.064800
     26 C3'        -2.8070    2.3150    0.9770 c3        1 X2C     -0.083700
     27 C4'        -4.0210    1.8590    0.1420 c3        1 X2C      0.107100
     28 C5'        -4.4070    3.1140   -0.6810 c3        1 X2C      0.128800
     29 HN02       -2.1430   -3.8870    2.9940 hn        1 X2C      0.407800
     30 HN0A       -3.5130   -3.0490    3.4270 hn        1 X2C      0.407800
     31 H03        -0.0660   -2.9250    2.4420 ha        1 X2C      0.159000
     32 H05        -0.0770    1.3810    1.9960 ha        1 X2C      0.161000
     33 H07         1.8480   -0.0980    1.1330 hc        1 X2C      0.065367
     34 H07A        1.9330   -1.8190    1.7060 hc        1 X2C      0.065367
     35 H07B        2.0930   -0.4560    2.8930 hc        1 X2C      0.065367
     36 H08        -3.7360    1.6580    2.8310 hc        1 X2C      0.070700
     37 H08A       -2.1230    2.4490    3.0230 hc        1 X2C      0.070700
     38 HN1'       -4.6040    4.8280    0.4090 hn        1 X2C      0.365800
     39 H10        -6.1230    0.7450   -0.6480 h1        1 X2C      0.083200
     40 H10A       -7.0590    1.0580    0.8990 h1        1 X2C      0.083200
     41 H13        -5.5490   -3.0360    2.2220 hx        1 X2C      0.143700
     42 H14        -5.7760   -1.5480    5.0330 hc        1 X2C      0.101700
     43 H15        -7.9280   -1.5210    3.7100 hc        1 X2C      0.105700
     44 H15A       -7.8110   -3.3200    3.3860 hc        1 X2C      0.105700
     45 H2'        -3.1660    4.2350    2.0100 h1        1 X2C      0.057700
     46 H2'A       -1.9040    4.3010    0.7030 h1        1 X2C      0.057700
     47 H22        -4.5760   -2.6710    6.6520 ha        1 X2C      0.138000
     48 H24        -4.0650   -6.9600    6.5220 ha        1 X2C      0.152000
     49 H25        -5.3320   -7.0480    4.3760 ha        1 X2C      0.149000
     50 H26        -6.2270   -4.9640    3.3630 ha        1 X2C      0.129000
     51 H27        -2.6890   -5.5210    8.0270 hc        1 X2C      0.056700
     52 H27A       -3.0560   -3.7500    8.1770 hc        1 X2C      0.056700
     53 H27B       -4.2110   -4.9760    8.8470 hc        1 X2C      0.056700
     54 H3'        -1.8860    2.0210    0.3990 hc        1 X2C      0.076700
     55 H4'        -3.7740    0.9840   -0.5110 h1        1 X2C      0.058700
     56 H5'        -3.9300    3.0470   -1.6970 h1        1 X2C      0.064200
     57 H5'A       -5.5200    3.1720   -0.8120 h1        1 X2C      0.064200
     58 H30        -4.4510   -0.8010    2.4490 hn        1 X2C      0.477800
     59 H11        -4.9840   -1.2050    0.2890 hx        1 X2C      0.101700
     60 H32        -6.7730   -1.3710    0.6500 hx        1 X2C      0.101700
     61 H122       -5.9570   -0.1510    2.8410 hn        1 X2C      0.477800
@<TRIPOS>BOND
     1    1    2 ar  
     2    1    7 ar  
     3    2    3 1   
     4    2    4 ar  
     5    3   29 1   
     6    3   30 1   
     7    4    5 ar  
     8    4   31 1   
     9    5    6 ar  
    10    5    8 1   
    11    6    7 ar  
    12    6   32 1   
    13    7    9 1   
    14    8   33 1   
    15    8   34 1   
    16    8   35 1   
    17    9   26 1   
    18    9   36 1   
    19    9   37 1   
    20   10   12 1   
    21   10   27 1   
    22   11   18 1   
    23   11   28 1   
    24   11   38 1   
    25   12   13 1   
    26   12   39 1   
    27   12   40 1   
    28   13   14 1   
    29   13   59 1   
    30   13   60 1   
    31   14   15 1   
    32   14   58 1   
    33   14   61 1   
    34   15   16 1   
    35   15   17 1   
    36   15   41 1   
    37   16   17 1   
    38   16   19 1   
    39   16   42 1   
    40   17   43 1   
    41   17   44 1   
    42   18   26 1   
    43   18   45 1   
    44   18   46 1   
    45   19   20 ar  
    46   19   24 ar  
    47   20   21 ar  
    48   20   47 1   
    49   21   22 ar  
    50   21   25 1   
    51   22   23 ar  
    52   22   48 1   
    53   23   24 ar  
    54   23   49 1   
    55   24   50 1   
    56   25   51 1   
    57   25   52 1   
    58   25   53 1   
    59   26   27 1   
    60   26   54 1   
    61   27   28 1   
    62   27   55 1   
    63   28   56 1   
    64   28   57 1   
@<TRIPOS>SUBSTRUCTURE
     1 X2C         1 TEMP              0 ****  ****    0 ROOT
