@<TRIPOS>MOLECULE
X2C
   61    64     1     0     0
SMALL
bcc


@<TRIPOS>ATOM
      1 N01        -2.6970   -0.6740    2.6630 nb        1 X2C     -0.825000
      2 C02        -1.9650   -1.8320    2.7120 ca        1 X2C      0.640200
      3 N02        -2.6470   -3.0560    2.8430 nh        1 X2C     -0.935500
      4 C03        -0.5480   -1.8290    2.5500 ca        1 X2C     -0.291300
      5 C04         0.1120   -0.6200    2.3430 ca        1 X2C      0.026700
      6 C05        -0.6430    0.5610    2.3060 ca        1 X2C     -0.278300
      7 C06        -2.0370    0.4930    2.4650 ca        1 X2C      0.458600
      8 C07         1.5830   -0.5730    2.1830 c3        1 X2C     -0.074800
      9 C08        -2.8130    1.7850    2.4310 c3        1 X2C     -0.129700
     10 O09        -5.1260    1.4770    0.9880 os        1 X2C     -0.436600
     11 N1'        -3.9740    4.3010    0.0020 n3        1 X2C     -0.788200
     12 C10        -6.0590    0.6030    0.3840 c3        1 X2C      0.107400
     13 C11        -5.7730   -0.8500    0.7920 c3        1 X2C      0.079800
     14 N12        -5.4920   -0.9820    2.2500 n4        1 X2C     -0.754000
     15 C13        -5.8790   -2.2960    2.7700 cx        1 X2C      0.002500
     16 C14        -5.9830   -2.5260    4.2770 cx        1 X2C     -0.030400
     17 C15        -7.2220   -2.5310    3.4210 cx        1 X2C     -0.105400
     18 C2'        -3.0290    3.9020    1.0410 c3        1 X2C      0.150800
     19 C21        -5.4270   -3.7580    4.8500 ca        1 X2C     -0.107300
     20 C22        -4.7670   -3.6920    6.0840 ca        1 X2C     -0.117000
     21 C23        -4.2440   -4.8480    6.6750 ca        1 X2C     -0.062300
     22 C24        -4.3820   -6.0770    6.0180 ca        1 X2C     -0.108000
     23 C25        -5.0370   -6.1470    4.7900 ca        1 X2C     -0.116000
     24 C26        -5.5600   -4.9950    4.2050 ca        1 X2C     -0.130000
     25 C27        -3.5700   -4.7770    7.9920 c3        1 X2C     -0.064800
     26 C3'        -2.8720    2.3610    1.0320 c3        1 X2C     -0.083700
     27 C4'        -4.0310    1.8610    0.1450 c3        1 X2C      0.107100
     28 C5'        -4.4340    3.1040   -0.6880 c3        1 X2C      0.128800
     29 HN02       -3.4580   -3.0420    3.4270 hn        1 X2C      0.407800
     30 HN0A       -2.0380   -3.8200    3.0480 hn        1 X2C      0.407800
     31 H03         0.0180   -2.7720    2.5850 ha        1 X2C      0.159000
     32 H05        -0.1510    1.5330    2.1580 ha        1 X2C      0.161000
     33 H07         1.8670    0.1330    1.3640 hc        1 X2C      0.065367
     34 H07A        2.0540   -0.2120    3.1340 hc        1 X2C      0.065367
     35 H07B        2.0000   -1.5820    1.9440 hc        1 X2C      0.065367
     36 H08        -3.8490    1.6560    2.8430 hc        1 X2C      0.070700
     37 H08A       -2.2780    2.5100    3.1050 hc        1 X2C      0.070700
     38 HN1'       -4.7460    4.8020    0.4000 hn        1 X2C      0.365800
     39 H10        -7.0620    0.9330    0.7720 h1        1 X2C      0.083200
     40 H10A       -6.0520    0.6670   -0.7360 h1        1 X2C      0.083200
     41 H13        -5.4410   -3.1050    2.1390 hx        1 X2C      0.143700
     42 H14        -5.8460   -1.6450    4.9440 hc        1 X2C      0.101700
     43 H15        -7.7360   -3.4880    3.2060 hc        1 X2C      0.105700
     44 H15A       -7.9400   -1.6970    3.5330 hc        1 X2C      0.105700
     45 H2'        -3.3520    4.2590    2.0570 h1        1 X2C      0.057700
     46 H2'A       -2.0410    4.3840    0.8030 h1        1 X2C      0.057700
     47 H22        -4.6680   -2.7280    6.6060 ha        1 X2C      0.138000
     48 H24        -3.9760   -6.9910    6.4790 ha        1 X2C      0.152000
     49 H25        -5.1490   -7.1170    4.2820 ha        1 X2C      0.149000
     50 H26        -6.0860   -5.0660    3.2420 ha        1 X2C      0.129000
     51 H27        -4.2990   -5.0290    8.8040 hc        1 X2C      0.056700
     52 H27A       -3.1690   -3.7520    8.1880 hc        1 X2C      0.056700
     53 H27B       -2.7240   -5.5060    8.0460 hc        1 X2C      0.056700
     54 H3'        -1.9170    2.1090    0.4910 hc        1 X2C      0.076700
     55 H4'        -3.7220    1.0010   -0.5000 h1        1 X2C      0.058700
     56 H5'        -5.5420    3.1170   -0.8640 h1        1 X2C      0.064200
     57 H5'A       -3.9120    3.0620   -1.6830 h1        1 X2C      0.064200
     58 H30        -5.9930   -0.2420    2.7530 hn        1 X2C      0.477800
     59 H11        -4.8740   -1.2400    0.2380 hx        1 X2C      0.101700
     60 H32        -6.6670   -1.4810    0.5250 hx        1 X2C      0.101700
     61 H122       -4.4460   -0.8290    2.4210 hn        1 X2C      0.477800
@<TRIPOS>BOND
     1    1    2 ar  
     2    1    7 ar  
     3    2    3 1   
     4    2    4 ar  
     5    3   29 1   
     6    3   30 1   
     7    4    5 ar  
     8    4   31 1   
     9    5    6 ar  
    10    5    8 1   
    11    6    7 ar  
    12    6   32 1   
    13    7    9 1   
    14    8   33 1   
    15    8   34 1   
    16    8   35 1   
    17    9   26 1   
    18    9   36 1   
    19    9   37 1   
    20   10   12 1   
    21   10   27 1   
    22   11   18 1   
    23   11   28 1   
    24   11   38 1   
    25   12   13 1   
    26   12   39 1   
    27   12   40 1   
    28   13   14 1   
    29   13   59 1   
    30   13   60 1   
    31   14   15 1   
    32   14   58 1   
    33   14   61 1   
    34   15   16 1   
    35   15   17 1   
    36   15   41 1   
    37   16   17 1   
    38   16   19 1   
    39   16   42 1   
    40   17   43 1   
    41   17   44 1   
    42   18   26 1   
    43   18   45 1   
    44   18   46 1   
    45   19   20 ar  
    46   19   24 ar  
    47   20   21 ar  
    48   20   47 1   
    49   21   22 ar  
    50   21   25 1   
    51   22   23 ar  
    52   22   48 1   
    53   23   24 ar  
    54   23   49 1   
    55   24   50 1   
    56   25   51 1   
    57   25   52 1   
    58   25   53 1   
    59   26   27 1   
    60   26   54 1   
    61   27   28 1   
    62   27   55 1   
    63   28   56 1   
    64   28   57 1   
@<TRIPOS>SUBSTRUCTURE
     1 X2C         1 TEMP              0 ****  ****    0 ROOT
