@<TRIPOS>MOLECULE
X2C
   62    65     1     0     0
SMALL
bcc


@<TRIPOS>ATOM
      1 N01         0.0940    0.4210   -0.8420 nb        1 X2C     -0.669000
      2 C02         1.4460    0.4720   -1.0040 ca        1 X2C      0.454200
      3 N02         1.9270    0.8360   -2.3580 n4        1 X2C     -0.818300
      4 C03         2.3870    0.2070    0.0060 ca        1 X2C     -0.207300
      5 C04         1.8910   -0.1320    1.2800 ca        1 X2C      0.011700
      6 C05         0.5090   -0.1880    1.4660 ca        1 X2C     -0.203300
      7 C06        -0.3640    0.0940    0.3850 ca        1 X2C      0.456600
      8 C07         2.8340   -0.4090    2.3860 c3        1 X2C     -0.085800
      9 C08        -1.8520    0.0140    0.6100 c3        1 X2C     -0.119700
     10 O09        -4.4980    0.0540    1.0790 os        1 X2C     -0.458600
     11 N1'        -3.2760    2.7460    2.5010 n3        1 X2C     -0.782200
     12 C10        -5.7670   -0.2910    0.5280 c3        1 X2C      0.100400
     13 C11        -6.2190   -1.5810    1.2140 c3        1 X2C      0.102800
     14 N12        -6.4350   -1.4020    2.6800 n4        1 X2C     -0.719000
     15 C13        -6.8820   -2.6440    3.3310 cx        1 X2C     -0.030500
     16 C14        -7.5840   -2.5980    4.6910 cx        1 X2C      0.000600
     17 C15        -8.3500   -2.9850    3.4560 cx        1 X2C     -0.096400
     18 C2'        -2.0870    2.2530    1.8160 c3        1 X2C      0.146800
     19 C21        -7.1990   -3.5790    5.7130 ca        1 X2C     -0.115300
     20 C22        -7.0870   -3.1580    7.0450 ca        1 X2C     -0.108000
     21 C23        -6.7440   -4.0670    8.0510 ca        1 X2C     -0.056300
     22 C24        -6.5060   -5.4060    7.7140 ca        1 X2C     -0.097000
     23 C25        -6.6160   -5.8280    6.3910 ca        1 X2C     -0.113000
     24 C26        -6.9620   -4.9210    5.3910 ca        1 X2C     -0.128000
     25 C27        -6.6520   -3.6270    9.4620 c3        1 X2C     -0.067800
     26 C3'        -2.5010    1.3820    0.6040 c3        1 X2C     -0.090700
     27 C4'        -4.0440    1.3450    0.6440 c3        1 X2C      0.112100
     28 C5'        -4.4400    2.4140    1.6960 c3        1 X2C      0.129800
     29 HN02        1.6450    1.8000   -2.5790 hn        1 X2C      0.474467
     30 HN0A        1.5200    0.2030   -3.0590 hn        1 X2C      0.474467
     31 H03         3.4750    0.2550   -0.1620 ha        1 X2C      0.176000
     32 H05         0.0910   -0.4500    2.4520 ha        1 X2C      0.176000
     33 H07         3.2670    0.5520    2.7680 hc        1 X2C      0.081033
     34 H07A        2.3220   -0.9250    3.2360 hc        1 X2C      0.081033
     35 H07B        3.6780   -1.0560    2.0360 hc        1 X2C      0.081033
     36 H08        -2.3230   -0.6190   -0.1910 hc        1 X2C      0.075200
     37 H08A       -2.0430   -0.4960    1.5920 hc        1 X2C      0.075200
     38 HN1'       -3.3480    2.3560    3.4210 hn        1 X2C      0.362800
     39 H10        -6.5020    0.5440    0.6850 h1        1 X2C      0.076200
     40 H10A       -5.6640   -0.4950   -0.5730 h1        1 X2C      0.076200
     41 H13        -6.1530   -3.4660    3.1380 hx        1 X2C      0.145700
     42 H14        -7.8110   -1.5970    5.1220 hc        1 X2C      0.100700
     43 H15        -8.6430   -4.0430    3.2970 hc        1 X2C      0.113700
     44 H15A       -9.1190   -2.2880    3.0730 hc        1 X2C      0.113700
     45 H2'        -1.4170    1.6760    2.5090 h1        1 X2C      0.057700
     46 H2'A       -1.5170    3.1530    1.4540 h1        1 X2C      0.057700
     47 H22        -7.2820   -2.1080    7.3110 ha        1 X2C      0.135000
     48 H24        -6.2390   -6.1280    8.5030 ha        1 X2C      0.157000
     49 H25        -6.4380   -6.8840    6.1340 ha        1 X2C      0.152000
     50 H26        -7.0610   -5.2710    4.3530 ha        1 X2C      0.122000
     51 H27        -7.5950   -3.8940   10.0050 hc        1 X2C      0.059700
     52 H27A       -5.7980   -4.1320    9.9800 hc        1 X2C      0.059700
     53 H27B       -6.5070   -2.5220    9.5360 hc        1 X2C      0.059700
     54 H3'        -2.2120    1.9190   -0.3410 hc        1 X2C      0.082700
     55 H4'        -4.4710    1.5820   -0.3650 h1        1 X2C      0.075700
     56 H5'        -5.2960    2.0520    2.3230 h1        1 X2C      0.063700
     57 H5'A       -4.7630    3.3510    1.1620 h1        1 X2C      0.063700
     58 H30        -7.1290   -0.6610    2.8330 hn        1 X2C      0.452800
     59 H11        -7.1870   -1.9290    0.7500 hx        1 X2C      0.118700
     60 H32        -5.4360   -2.3800    1.0760 hx        1 X2C      0.118700
     61 H023        2.9490    0.7640   -2.3840 hn        1 X2C      0.474467
     62 H122       -5.5480   -1.1010    3.1080 hn        1 X2C      0.452800
@<TRIPOS>BOND
     1    1    2 ar  
     2    1    7 ar  
     3    2    3 1   
     4    2    4 ar  
     5    3   29 1   
     6    3   30 1   
     7    3   61 1   
     8    4    5 ar  
     9    4   31 1   
    10    5    6 ar  
    11    5    8 1   
    12    6    7 ar  
    13    6   32 1   
    14    7    9 1   
    15    8   33 1   
    16    8   34 1   
    17    8   35 1   
    18    9   26 1   
    19    9   36 1   
    20    9   37 1   
    21   10   12 1   
    22   10   27 1   
    23   11   18 1   
    24   11   28 1   
    25   11   38 1   
    26   12   13 1   
    27   12   39 1   
    28   12   40 1   
    29   13   14 1   
    30   13   59 1   
    31   13   60 1   
    32   14   15 1   
    33   14   58 1   
    34   14   62 1   
    35   15   16 1   
    36   15   17 1   
    37   15   41 1   
    38   16   17 1   
    39   16   19 1   
    40   16   42 1   
    41   17   43 1   
    42   17   44 1   
    43   18   26 1   
    44   18   45 1   
    45   18   46 1   
    46   19   20 ar  
    47   19   24 ar  
    48   20   21 ar  
    49   20   47 1   
    50   21   22 ar  
    51   21   25 1   
    52   22   23 ar  
    53   22   48 1   
    54   23   24 ar  
    55   23   49 1   
    56   24   50 1   
    57   25   51 1   
    58   25   52 1   
    59   25   53 1   
    60   26   27 1   
    61   26   54 1   
    62   27   28 1   
    63   27   55 1   
    64   28   56 1   
    65   28   57 1   
@<TRIPOS>SUBSTRUCTURE
     1 X2C         1 TEMP              0 ****  ****    0 ROOT
