@<TRIPOS>MOLECULE
X2C
   60    63     1     0     0
SMALL
bcc


@<TRIPOS>ATOM
      1 N01        -4.1770    1.0840   -0.9830 nb        1 X2C     -0.732000
      2 C02        -5.0820    2.0830   -0.7380 ca        1 X2C      0.630200
      3 N02        -6.1490    2.2690   -1.6350 nh        1 X2C     -0.922500
      4 C03        -5.0170    2.8930    0.4360 ca        1 X2C     -0.302300
      5 C04        -4.0210    2.6400    1.3760 ca        1 X2C     -0.006300
      6 C05        -3.1090    1.6050    1.1350 ca        1 X2C     -0.292300
      7 C06        -3.2240    0.8560   -0.0530 ca        1 X2C      0.450600
      8 C07        -3.9310    3.4410    2.6180 c3        1 X2C     -0.060800
      9 C08        -2.2170   -0.2340   -0.3100 c3        1 X2C     -0.112700
     10 O09        -0.5350   -2.1910   -0.7470 os        1 X2C     -0.424600
     11 N1'        -3.0400   -3.3970    1.3650 n3        1 X2C     -0.788200
     12 C10         0.3920   -3.0720   -1.3820 c3        1 X2C      0.120400
     13 C11         1.7860   -2.4740   -1.1650 c3        1 X2C      0.164800
     14 N12         2.2200   -2.5540    0.2180 n3        1 X2C     -0.792200
     15 C13         3.4030   -1.8050    0.4890 cx        1 X2C      0.137500
     16 C14         3.4220   -0.3000    0.7810 cx        1 X2C     -0.130400
     17 C15         3.7150   -1.2960    1.8750 cx        1 X2C     -0.116400
     18 C2'        -3.4010   -2.0130    1.0720 c3        1 X2C      0.141800
     19 C21         4.4780    0.5480    0.2170 ca        1 X2C     -0.037300
     20 C22         4.1500    1.8270   -0.2540 ca        1 X2C     -0.128000
     21 C23         5.1280    2.6610   -0.8030 ca        1 X2C     -0.074300
     22 C24         6.4510    2.2090   -0.8840 ca        1 X2C     -0.135000
     23 C25         6.7840    0.9400   -0.4180 ca        1 X2C     -0.123000
     24 C26         5.8060    0.1110    0.1290 ca        1 X2C     -0.138000
     25 C27         4.7710    4.0160   -1.2820 c3        1 X2C     -0.053800
     26 C3'        -2.8470   -1.6110   -0.3150 c3        1 X2C     -0.079700
     27 C4'        -1.8500   -2.7330   -0.6800 c3        1 X2C      0.117100
     28 C5'        -1.9580   -3.7750    0.4660 c3        1 X2C      0.112800
     29 HN02       -6.0490    1.8240   -2.5220 hn        1 X2C      0.399300
     30 HN0A       -6.4530    3.2150   -1.6950 hn        1 X2C      0.399300
     31 H03        -5.7480    3.6950    0.6020 ha        1 X2C      0.141000
     32 H05        -2.3150    1.3800    1.8590 ha        1 X2C      0.143000
     33 H07        -4.4120    2.8840    3.4620 hc        1 X2C      0.049367
     34 H07A       -2.8640    3.6330    2.8890 hc        1 X2C      0.049367
     35 H07B       -4.4520    4.4230    2.5050 hc        1 X2C      0.049367
     36 H08        -1.7200   -0.0610   -1.3040 hc        1 X2C      0.067200
     37 H08A       -1.4150   -0.1910    0.4730 hc        1 X2C      0.067200
     38 HN1'       -3.8320   -3.9970    1.2220 hn        1 X2C      0.346800
     39 H10         0.3100   -4.1020   -0.9480 h1        1 X2C      0.039200
     40 H10A        0.1700   -3.1110   -2.4820 h1        1 X2C      0.039200
     41 H13         4.2540   -2.1990   -0.1150 h1        1 X2C      0.093700
     42 H14         2.4400    0.2180    0.8350 hc        1 X2C      0.084700
     43 H15         2.9730   -1.4150    2.6840 hc        1 X2C      0.076700
     44 H15A        4.7500   -1.4010    2.2470 hc        1 X2C      0.076700
     45 H2'        -4.5120   -1.8610    1.1110 h1        1 X2C      0.055200
     46 H2'A       -2.9360   -1.3680    1.8690 h1        1 X2C      0.055200
     47 H22         3.1100    2.1800   -0.1920 ha        1 X2C      0.131000
     48 H24         7.2250    2.8590   -1.3170 ha        1 X2C      0.130000
     49 H25         7.8240    0.5880   -0.4830 ha        1 X2C      0.129000
     50 H26         6.0810   -0.8900    0.4940 ha        1 X2C      0.130000
     51 H27         4.8820    4.7560   -0.4490 hc        1 X2C      0.043700
     52 H27A        5.4370    4.3330   -2.1220 hc        1 X2C      0.043700
     53 H27B        3.7120    4.0490   -1.6390 hc        1 X2C      0.043700
     54 H3'        -3.6810   -1.6310   -1.0670 hc        1 X2C      0.071700
     55 H4'        -2.1180   -3.1930   -1.6680 h1        1 X2C      0.043700
     56 H5'        -1.0010   -3.7680    1.0590 h1        1 X2C      0.056200
     57 H5'A       -2.1050   -4.8060    0.0500 h1        1 X2C      0.056200
     58 H30         1.4700   -2.2920    0.8340 hn        1 X2C      0.372800
     59 H11         2.5160   -3.0630   -1.7880 h1        1 X2C      0.045200
     60 H32         1.7770   -1.4130   -1.5490 h1        1 X2C      0.045200
@<TRIPOS>BOND
     1    1    2 ar  
     2    1    7 ar  
     3    2    3 1   
     4    2    4 ar  
     5    3   29 1   
     6    3   30 1   
     7    4    5 ar  
     8    4   31 1   
     9    5    6 ar  
    10    5    8 1   
    11    6    7 ar  
    12    6   32 1   
    13    7    9 1   
    14    8   33 1   
    15    8   34 1   
    16    8   35 1   
    17    9   26 1   
    18    9   36 1   
    19    9   37 1   
    20   10   12 1   
    21   10   27 1   
    22   11   18 1   
    23   11   28 1   
    24   11   38 1   
    25   12   13 1   
    26   12   39 1   
    27   12   40 1   
    28   13   14 1   
    29   13   59 1   
    30   13   60 1   
    31   14   15 1   
    32   14   58 1   
    33   15   16 1   
    34   15   17 1   
    35   15   41 1   
    36   16   17 1   
    37   16   19 1   
    38   16   42 1   
    39   17   43 1   
    40   17   44 1   
    41   18   26 1   
    42   18   45 1   
    43   18   46 1   
    44   19   20 ar  
    45   19   24 ar  
    46   20   21 ar  
    47   20   47 1   
    48   21   22 ar  
    49   21   25 1   
    50   22   23 ar  
    51   22   48 1   
    52   23   24 ar  
    53   23   49 1   
    54   24   50 1   
    55   25   51 1   
    56   25   52 1   
    57   25   53 1   
    58   26   27 1   
    59   26   54 1   
    60   27   28 1   
    61   27   55 1   
    62   28   56 1   
    63   28   57 1   
@<TRIPOS>SUBSTRUCTURE
     1 X2C         1 TEMP              0 ****  ****    0 ROOT
