@<TRIPOS>MOLECULE
X2D
   57    60     1     0     0
SMALL
bcc


@<TRIPOS>ATOM
      1 N01        -4.6720    1.1690   -1.0920 nb        1 X2D     -0.732000
      2 C02        -5.5740    2.1770   -0.8710 ca        1 X2D      0.630200
      3 N02        -6.6110    2.3760   -1.7980 nh        1 X2D     -0.923500
      4 C03        -5.5350    2.9830    0.3070 ca        1 X2D     -0.302300
      5 C04        -4.5690    2.7160    1.2750 ca        1 X2D     -0.005300
      6 C05        -3.6610    1.6730    1.0580 ca        1 X2D     -0.292300
      7 C06        -3.7490    0.9280   -0.1350 ca        1 X2D      0.449600
      8 C07        -4.5090    3.5130    2.5220 c3        1 X2D     -0.060800
      9 C08        -2.7470   -0.1720   -0.3660 c3        1 X2D     -0.112700
     10 O09        -1.0760   -2.1470   -0.7620 os        1 X2D     -0.424600
     11 N1'        -3.6350   -3.3210    1.3000 n3        1 X2D     -0.788200
     12 C10        -0.1450   -3.0380   -1.3770 c3        1 X2D      0.120400
     13 C11         1.2500   -2.4570   -1.1260 c3        1 X2D      0.165800
     14 N12         1.6490   -2.5410    0.2670 n3        1 X2D     -0.793200
     15 C13         2.8280   -1.7990    0.5710 cx        1 X2D      0.141500
     16 C14         2.8430   -0.2980    0.8880 cx        1 X2D     -0.137400
     17 C15         3.1170   -1.3130    1.9690 cx        1 X2D     -0.114400
     18 C2'        -3.9770   -1.9350    0.9960 c3        1 X2D      0.141800
     19 C21         3.9080    0.5590    0.3560 ca        1 X2D     -0.028300
     20 C22         5.2360    0.1190    0.2860 ca        1 X2D     -0.131000
     21 C23         6.2220    0.9620   -0.2330 ca        1 X2D      0.022400
     22 CL23        7.8320    0.4160   -0.3130 cl        1 X2D     -0.099400
     23 C24         5.9030    2.2440   -0.6880 ca        1 X2D     -0.130000
     24 C25         4.5800    2.6790   -0.6170 ca        1 X2D     -0.119000
     25 C26         3.5900    1.8470   -0.1010 ca        1 X2D     -0.128000
     26 C3'        -3.3910   -1.5420   -0.3800 c3        1 X2D     -0.079700
     27 C4'        -2.3980   -2.6750   -0.7220 c3        1 X2D      0.117100
     28 C5'        -2.5400   -3.7140    0.4230 c3        1 X2D      0.112800
     29 HN02       -6.4910    1.9330   -2.6830 hn        1 X2D      0.399800
     30 HN0A       -6.9070    3.3240   -1.8630 hn        1 X2D      0.399800
     31 H03        -6.2620    3.7920    0.4540 ha        1 X2D      0.141000
     32 H05        -2.8920    1.4370    1.8040 ha        1 X2D      0.143000
     33 H07        -5.0260    2.9620    3.3480 hc        1 X2D      0.049700
     34 H07A       -3.4480    3.6880    2.8280 hc        1 X2D      0.049700
     35 H07B       -5.0100    4.5040    2.3940 hc        1 X2D      0.049700
     36 H08        -2.2260   -0.0070   -1.3480 hc        1 X2D      0.067200
     37 H08A       -1.9620   -0.1330    0.4350 hc        1 X2D      0.067200
     38 HN1'       -4.4300   -3.9140    1.1460 hn        1 X2D      0.346800
     39 H10        -0.2490   -4.0680   -0.9460 h1        1 X2D      0.039700
     40 H10A       -0.3410   -3.0730   -2.4810 h1        1 X2D      0.039700
     41 H11         1.9880   -3.0560   -1.7300 h1        1 X2D      0.045200
     42 H11A        1.2630   -1.3960   -1.5110 h1        1 X2D      0.045200
     43 HN12        0.8850   -2.2800    0.8660 hn        1 X2D      0.373800
     44 H13         3.6890   -2.1830   -0.0250 h1        1 X2D      0.095700
     45 H14         1.8610    0.2200    0.9340 hc        1 X2D      0.086700
     46 H15         2.3610   -1.4440    2.7640 hc        1 X2D      0.078200
     47 H15A        4.1450   -1.4260    2.3570 hc        1 X2D      0.078200
     48 H2'        -5.0870   -1.7730    1.0110 h1        1 X2D      0.055200
     49 H2'A       -3.5230   -1.2920    1.8000 h1        1 X2D      0.055200
     50 H22         5.5030   -0.8880    0.6410 ha        1 X2D      0.146000
     51 H24         6.6840    2.9030   -1.0950 ha        1 X2D      0.146000
     52 H25         4.3190    3.6870   -0.9720 ha        1 X2D      0.136000
     53 H26         2.5500    2.2020   -0.0510 ha        1 X2D      0.136000
     54 H3'        -4.2090   -1.5560   -1.1490 hc        1 X2D      0.071700
     55 H4'        -2.6490   -3.1350   -1.7150 h1        1 X2D      0.043700
     56 H5'        -1.5950   -3.7170    1.0340 h1        1 X2D      0.056200
     57 H5'A       -2.6920   -4.7440    0.0060 h1        1 X2D      0.056200
@<TRIPOS>BOND
     1    1    2 ar  
     2    1    7 ar  
     3    2    3 1   
     4    2    4 ar  
     5    3   29 1   
     6    3   30 1   
     7    4    5 ar  
     8    4   31 1   
     9    5    6 ar  
    10    5    8 1   
    11    6    7 ar  
    12    6   32 1   
    13    7    9 1   
    14    8   33 1   
    15    8   34 1   
    16    8   35 1   
    17    9   26 1   
    18    9   36 1   
    19    9   37 1   
    20   10   12 1   
    21   10   27 1   
    22   11   18 1   
    23   11   28 1   
    24   11   38 1   
    25   12   13 1   
    26   12   39 1   
    27   12   40 1   
    28   13   14 1   
    29   13   41 1   
    30   13   42 1   
    31   14   15 1   
    32   14   43 1   
    33   15   16 1   
    34   15   17 1   
    35   15   44 1   
    36   16   17 1   
    37   16   19 1   
    38   16   45 1   
    39   17   46 1   
    40   17   47 1   
    41   18   26 1   
    42   18   48 1   
    43   18   49 1   
    44   19   20 ar  
    45   19   25 ar  
    46   20   21 ar  
    47   20   50 1   
    48   21   22 1   
    49   21   23 ar  
    50   23   24 ar  
    51   23   51 1   
    52   24   25 ar  
    53   24   52 1   
    54   25   53 1   
    55   26   27 1   
    56   26   54 1   
    57   27   28 1   
    58   27   55 1   
    59   28   56 1   
    60   28   57 1   
@<TRIPOS>SUBSTRUCTURE
     1 X2D         1 TEMP              0 ****  ****    0 ROOT
