@<TRIPOS>MOLECULE
X2D
   59    62     1     0     0
SMALL
bcc


@<TRIPOS>ATOM
      1 N01         0.1130    0.2330   -0.6160 nb        1 X2D     -0.669000
      2 C02         1.4740    0.2630   -0.7030 ca        1 X2D      0.454200
      3 N02         2.0340    0.5220   -2.0500 n4        1 X2D     -0.819300
      4 C03         2.3530    0.0680    0.3760 ca        1 X2D     -0.207300
      5 C04         1.7810   -0.1730    1.6410 ca        1 X2D      0.011700
      6 C05         0.3900   -0.2060    1.7510 ca        1 X2D     -0.203300
      7 C06        -0.4170    0.0000    0.6030 ca        1 X2D      0.456600
      8 C07         2.6560   -0.3730    2.8170 c3        1 X2D     -0.085800
      9 C08        -1.9160   -0.0550    0.7470 c3        1 X2D     -0.119700
     10 O09        -4.5850    0.0350    1.0580 os        1 X2D     -0.458600
     11 N1'        -3.4180    2.8150    2.3500 n3        1 X2D     -0.782200
     12 C10        -5.8180   -0.3470    0.4530 c3        1 X2D      0.100400
     13 C11        -6.3180   -1.5860    1.1980 c3        1 X2D      0.102800
     14 N12        -6.6300   -1.3020    2.6310 n4        1 X2D     -0.720000
     15 C13        -7.0920   -2.5030    3.3460 cx        1 X2D     -0.026500
     16 C14        -7.8910   -2.3740    4.6450 cx        1 X2D     -0.004400
     17 C15        -8.5550   -2.8800    3.3940 cx        1 X2D     -0.095400
     18 C2'        -2.1980    2.2680    1.7710 c3        1 X2D      0.146800
     19 C21        -7.5590   -3.2620    5.7660 ca        1 X2D     -0.107300
     20 C22        -7.2260   -4.6060    5.5570 ca        1 X2D     -0.123000
     21 C23        -6.9270   -5.4270    6.6480 ca        1 X2D      0.020400
     22 CL23       -6.5200   -7.0490    6.3840 cl        1 X2D     -0.050400
     23 C24        -6.9660   -4.9180    7.9520 ca        1 X2D     -0.088000
     24 C25        -7.3030   -3.5800    8.1550 ca        1 X2D     -0.107000
     25 C26        -7.5960   -2.7530    7.0720 ca        1 X2D     -0.104000
     26 C3'        -2.5500    1.3130    0.6040 c3        1 X2D     -0.090700
     27 C4'        -4.0930    1.2880    0.5580 c3        1 X2D      0.112100
     28 C5'        -4.5380    2.4320    1.5060 c3        1 X2D      0.129800
     29 HN02        1.7710    1.4670   -2.3600 hn        1 X2D      0.474467
     30 HN0A        1.6660   -0.1620   -2.7240 hn        1 X2D      0.474467
     31 H03         3.4480    0.0970    0.2680 ha        1 X2D      0.176000
     32 H05        -0.0860   -0.3920    2.7270 ha        1 X2D      0.176000
     33 H07         3.5090   -1.0540    2.5660 hc        1 X2D      0.081033
     34 H07A        2.0900   -0.8160    3.6740 hc        1 X2D      0.081033
     35 H07B        3.0810    0.6110    3.1470 hc        1 X2D      0.081033
     36 H08        -2.3470   -0.7420   -0.0320 hc        1 X2D      0.075200
     37 H08A       -2.1670   -0.4900    1.7510 hc        1 X2D      0.075200
     38 HN1'       -3.5460    2.4930    3.2910 hn        1 X2D      0.362800
     39 H10        -6.5570    0.4970    0.5050 h1        1 X2D      0.076700
     40 H10A       -5.6480   -0.6280   -0.6220 h1        1 X2D      0.076700
     41 H11        -5.5270   -2.3900    1.1710 hx        1 X2D      0.119200
     42 H11A       -7.2520   -1.9700    0.6980 hx        1 X2D      0.119200
     43 HN12       -5.7780   -0.9480    3.0880 hn        1 X2D      0.453800
     44 H13        -6.3290   -3.3130    3.2690 hx        1 X2D      0.146700
     45 H14        -8.1750   -1.3510    4.9790 hc        1 X2D      0.102700
     46 H15        -9.3130   -2.2400    2.9040 hc        1 X2D      0.115700
     47 H15A       -8.8070   -3.9560    3.3000 hc        1 X2D      0.115700
     48 H2'        -1.5730    1.7400    2.5410 h1        1 X2D      0.058200
     49 H2'A       -1.6000    3.1370    1.3770 h1        1 X2D      0.058200
     50 H22        -7.2120   -5.0270    4.5400 ha        1 X2D      0.136000
     51 H24        -6.7400   -5.5710    8.8120 ha        1 X2D      0.172000
     52 H25        -7.3450   -3.1770    9.1800 ha        1 X2D      0.162000
     53 H26        -7.8690   -1.7010    7.2500 ha        1 X2D      0.141000
     54 H3'        -2.2030    1.7780   -0.3590 hc        1 X2D      0.083700
     55 H4'        -4.4600    1.4540   -0.4880 h1        1 X2D      0.075700
     56 H5'        -5.4320    2.1210    2.1070 h1        1 X2D      0.064200
     57 H5'A       -4.8210    3.3300    0.8880 h1        1 X2D      0.064200
     58 H023        3.0560    0.4480   -2.0100 hn        1 X2D      0.474467
     59 H122       -7.3480   -0.5690    2.6830 hn        1 X2D      0.453800
@<TRIPOS>BOND
     1    1    2 ar  
     2    1    7 ar  
     3    2    3 1   
     4    2    4 ar  
     5    3   29 1   
     6    3   30 1   
     7    3   58 1   
     8    4    5 ar  
     9    4   31 1   
    10    5    6 ar  
    11    5    8 1   
    12    6    7 ar  
    13    6   32 1   
    14    7    9 1   
    15    8   33 1   
    16    8   34 1   
    17    8   35 1   
    18    9   26 1   
    19    9   36 1   
    20    9   37 1   
    21   10   12 1   
    22   10   27 1   
    23   11   18 1   
    24   11   28 1   
    25   11   38 1   
    26   12   13 1   
    27   12   39 1   
    28   12   40 1   
    29   13   14 1   
    30   13   41 1   
    31   13   42 1   
    32   14   15 1   
    33   14   43 1   
    34   14   59 1   
    35   15   16 1   
    36   15   17 1   
    37   15   44 1   
    38   16   17 1   
    39   16   19 1   
    40   16   45 1   
    41   17   46 1   
    42   17   47 1   
    43   18   26 1   
    44   18   48 1   
    45   18   49 1   
    46   19   20 ar  
    47   19   25 ar  
    48   20   21 ar  
    49   20   50 1   
    50   21   22 1   
    51   21   23 ar  
    52   23   24 ar  
    53   23   51 1   
    54   24   25 ar  
    55   24   52 1   
    56   25   53 1   
    57   26   27 1   
    58   26   54 1   
    59   27   28 1   
    60   27   55 1   
    61   28   56 1   
    62   28   57 1   
@<TRIPOS>SUBSTRUCTURE
     1 X2D         1 TEMP              0 ****  ****    0 ROOT
