@<TRIPOS>MOLECULE
X2D
   58    61     1     0     0
SMALL
bcc


@<TRIPOS>ATOM
      1 N01        -2.5700   -0.7280    1.8970 nb        1 X2D     -0.823000
      2 C02        -1.8500   -1.8930    1.8740 ca        1 X2D      0.634200
      3 N02        -2.5120   -3.0840    1.5110 nv        1 X2D     -0.931500
      4 C03        -0.4830   -1.9390    2.2780 ca        1 X2D     -0.286300
      5 C04         0.1410   -0.7660    2.6970 ca        1 X2D      0.024700
      6 C05        -0.5960    0.4290    2.6930 ca        1 X2D     -0.269300
      7 C06        -1.9410    0.4060    2.2900 ca        1 X2D      0.450600
      8 C07         1.5590   -0.7660    3.1190 c3        1 X2D     -0.075800
      9 C08        -2.7080    1.7040    2.2820 c3        1 X2D     -0.125700
     10 O09        -5.1920    1.5060    1.1170 os        1 X2D     -0.434600
     11 N1'        -3.9700    4.2050   -0.1200 n7        1 X2D     -0.788200
     12 C10        -6.2610    0.7100    0.6430 c3        1 X2D      0.108400
     13 C11        -6.0100   -0.7770    0.9380 c3        1 X2D      0.076800
     14 N12        -5.3950   -0.9920    2.2790 ny        1 X2D     -0.749000
     15 C13        -5.7450   -2.2930    2.8550 cx        1 X2D      0.008500
     16 C14        -5.9620   -2.4450    4.3600 cx        1 X2D     -0.021400
     17 C15        -7.1230   -2.5710    3.4100 cx        1 X2D     -0.111400
     18 C2'        -2.9490    3.7820    0.8340 c3        1 X2D      0.150800
     19 C21        -5.3930   -3.6100    5.0500 ca        1 X2D     -0.085300
     20 C22        -5.4020   -4.8810    4.4640 ca        1 X2D     -0.118000
     21 C23        -4.8560   -5.9680    5.1520 ca        1 X2D      0.020400
     22 Cl23       -4.8690   -7.5030    4.4310 cl        1 X2D     -0.065400
     23 C24        -4.3050   -5.8000    6.4270 ca        1 X2D     -0.099000
     24 C25        -4.3010   -4.5330    7.0070 ca        1 X2D     -0.111000
     25 C26        -4.8380   -3.4420    6.3270 ca        1 X2D     -0.107000
     26 C3'        -2.8940    2.2340    0.8750 c3        1 X2D     -0.078700
     27 C4'        -4.1750    1.7830    0.1440 c3        1 X2D      0.108100
     28 C5'        -4.5860    3.0190   -0.6970 c3        1 X2D      0.128800
     29 HN02       -3.1690   -2.9920    0.7670 hn        1 X2D      0.401800
     30 HN0A       -1.8860   -3.8510    1.3780 hn        1 X2D      0.401800
     31 H03         0.0710   -2.8890    2.2650 ha        1 X2D      0.160000
     32 H05        -0.1220    1.3720    3.0020 ha        1 X2D      0.162000
     33 H07         1.9240   -1.8030    3.3240 hc        1 X2D      0.065700
     34 H07A        1.6940   -0.1520    4.0440 hc        1 X2D      0.065700
     35 H07B        2.1950   -0.3220    2.3100 hc        1 X2D      0.065700
     36 H08        -2.1270    2.4550    2.8850 hc        1 X2D      0.067700
     37 H08A       -3.7010    1.5750    2.7900 hc        1 X2D      0.067700
     38 HN1'       -4.6570    4.7810    0.3310 hn        1 X2D      0.365800
     39 H10        -6.4330    0.8320   -0.4590 h1        1 X2D      0.084200
     40 H10A       -7.1620    1.0750    1.2080 h1        1 X2D      0.084200
     41 H11        -6.9920   -1.3280    0.8860 hx        1 X2D      0.098200
     42 H11A       -5.3090   -1.2130    0.1730 hx        1 X2D      0.098200
     43 HN12       -4.3390   -0.9150    2.1780 hn        1 X2D      0.477800
     44 H13        -5.2070   -3.1090    2.3170 hx        1 X2D      0.144700
     45 H14        -5.9260   -1.5220    4.9820 hc        1 X2D      0.099700
     46 H15        -7.8920   -1.7760    3.4120 hc        1 X2D      0.105700
     47 H15A       -7.5640   -3.5680    3.2130 hc        1 X2D      0.105700
     48 H2'        -3.1420    4.1970    1.8610 h1        1 X2D      0.057700
     49 H2'A       -1.9630    4.1850    0.4770 h1        1 X2D      0.057700
     50 H22        -5.8420   -5.0320    3.4660 ha        1 X2D      0.138000
     51 H24        -3.8810   -6.6610    6.9680 ha        1 X2D      0.164000
     52 H25        -3.8720   -4.3940    8.0120 ha        1 X2D      0.154000
     53 H26        -4.8310   -2.4480    6.8000 ha        1 X2D      0.139000
     54 H3'        -2.0270    1.8990    0.2400 hc        1 X2D      0.077700
     55 H4'        -3.9970    0.8790   -0.4900 h1        1 X2D      0.055700
     56 H5'        -5.7030    3.1060   -0.7500 h1        1 X2D      0.063200
     57 H5'A       -4.1850    2.9000   -1.7410 h1        1 X2D      0.063200
     58 H122       -5.6980   -0.2370    2.9040 hn        1 X2D      0.477800
@<TRIPOS>BOND
     1    1    2 ar  
     2    1    7 ar  
     3    2    3 1   
     4    2    4 ar  
     5    3   29 1   
     6    3   30 1   
     7    4    5 ar  
     8    4   31 1   
     9    5    6 ar  
    10    5    8 1   
    11    6    7 ar  
    12    6   32 1   
    13    7    9 1   
    14    8   33 1   
    15    8   34 1   
    16    8   35 1   
    17    9   26 1   
    18    9   36 1   
    19    9   37 1   
    20   10   12 1   
    21   10   27 1   
    22   11   18 1   
    23   11   28 1   
    24   11   38 1   
    25   12   13 1   
    26   12   39 1   
    27   12   40 1   
    28   13   14 1   
    29   13   41 1   
    30   13   42 1   
    31   14   15 1   
    32   14   43 1   
    33   14   58 1   
    34   15   16 1   
    35   15   17 1   
    36   15   44 1   
    37   16   17 1   
    38   16   19 1   
    39   16   45 1   
    40   17   46 1   
    41   17   47 1   
    42   18   26 1   
    43   18   48 1   
    44   18   49 1   
    45   19   20 ar  
    46   19   25 ar  
    47   20   21 ar  
    48   20   50 1   
    49   21   22 1   
    50   21   23 ar  
    51   23   24 ar  
    52   23   51 1   
    53   24   25 ar  
    54   24   52 1   
    55   25   53 1   
    56   26   27 1   
    57   26   54 1   
    58   27   28 1   
    59   27   55 1   
    60   28   56 1   
    61   28   57 1   
@<TRIPOS>SUBSTRUCTURE
     1 X2D         1 TEMP              0 ****  ****    0 ROOT
