@<TRIPOS>MOLECULE
X2D
   57    55     1     0     0
SMALL
bcc


@<TRIPOS>ATOM
      1 N01         3.4310    0.8140   -0.0480 n1        1 X2D     -0.214000
      2 C02         4.7610    0.5940   -0.2650 c1        1 X2D      0.109000
      3 N02         5.2190    0.1980   -1.5630 n3        1 X2D     -0.323000
      4 C03         5.6720    0.7460    0.7780 c1        1 X2D     -0.235000
      5 C04         5.2340    1.1160    2.0210 c1        1 X2D      0.003000
      6 C05         3.8980    1.3360    2.2370 c1        1 X2D     -0.224000
      7 C06         2.9910    1.1840    1.1940 c1        1 X2D      0.027000
      8 C07         6.2130    1.1640    3.1910 c3        1 X2D     -0.187000
      9 C08         1.4880    1.3500    1.4570 c3        1 X2D     -0.099000
     10 O09        -1.0890    1.3230    1.4080 os        1 X2D     -0.272000
     11 N1'         0.1120    4.1920    0.9870 n3        1 X2D     -0.266000
     12 C10        -2.4780    0.9890    1.3930 c3        1 X2D     -0.063000
     13 C11        -2.6730   -0.4210    1.9800 c3        1 X2D     -0.086000
     14 N12        -3.6580   -1.1450    1.1890 n3        1 X2D     -0.286000
     15 C13        -3.0060   -1.7730    0.0650 cx        1 X2D     -0.054000
     16 C14        -3.8420   -1.8950   -1.2000 cx        1 X2D     -0.128000
     17 C15        -2.7230   -0.8690   -1.1250 cx        1 X2D     -0.245000
     18 C2'         1.1970    3.3640    0.1620 c3        1 X2D     -0.094000
     19 C21        -3.5580   -3.1250   -2.0720 c2        1 X2D     -0.031000
     20 C22        -4.4950   -3.5370   -3.0100 c2        1 X2D     -0.120000
     21 C23        -4.1850   -4.5600   -3.8980 c1        1 X2D     -0.061000
     22 CL23       -5.3260   -5.0110   -5.1380 cl        1 X2D     -0.025000
     23 C24        -2.9410   -5.1690   -3.8470 c2        1 X2D     -0.130000
     24 C25        -2.0050   -4.7580   -2.9110 c1        1 X2D     -0.120000
     25 C26        -2.3130   -3.7360   -2.0220 c1        1 X2D     -0.131000
     26 C3'         0.8100    2.0790    0.2160 c3        1 X2D     -0.119000
     27 C4'        -0.7110    2.1290    0.3950 c3        1 X2D      0.000000
     28 C5'        -1.0470    3.6260    0.7360 c3        1 X2D     -0.123000
     29 HN02        4.6140   -0.0220   -2.2140 hn        1 X2D      0.195500
     30 HN0A        6.1150    0.1950   -1.7510 hn        1 X2D      0.195500
     31 H03         6.6280    0.5880    0.6220 ha        1 X2D      0.142000
     32 H05         3.5830    1.6010    3.1270 ha        1 X2D      0.145000
     33 H07         6.5920    2.0620    3.2630 hc        1 X2D      0.089667
     34 H07A        5.7390    0.9400    4.0240 hc        1 X2D      0.089667
     35 H07B        6.9370    0.5130    3.0400 hc        1 X2D      0.089667
     36 H08         1.0770    0.4660    1.5820 hc        1 X2D      0.109500
     37 H08A        1.3550    1.8900    2.2660 hc        1 X2D      0.109500
     38 HN1'        0.0990    5.0620    0.6900 hn        1 X2D      0.141000
     39 H10        -2.9760    1.6390    1.9310 h1        1 X2D      0.087000
     40 H10A       -2.8080    1.0070    0.4710 h1        1 X2D      0.087000
     41 H11        -1.8130   -0.9070    1.9620 h1        1 X2D      0.104500
     42 H11A       -2.9880   -0.3480    2.9060 h1        1 X2D      0.104500
     43 HN12       -4.2950   -0.5610    0.8860 hn        1 X2D      0.161000
     44 H13        -2.3550   -2.4940    0.2160 h1        1 X2D      0.141000
     45 H14        -4.7550   -1.5350   -1.1450 hc        1 X2D      0.130000
     46 H15        -1.9150   -1.0810   -1.6390 hc        1 X2D      0.112500
     47 H15A       -3.0070    0.0620   -1.0270 hc        1 X2D      0.112500
     48 H2'         1.2180    3.6720   -0.7730 h1        1 X2D      0.094000
     49 H2'A        2.0840    3.4680    0.5730 h1        1 X2D      0.094000
     50 H22        -5.3740   -3.1100   -3.0440 ha        1 X2D      0.146000
     51 H24        -2.7230   -5.8890   -4.4730 ha        1 X2D      0.145000
     52 H25        -1.1260   -5.1890   -2.8750 ha        1 X2D      0.144000
     53 H26        -1.6540   -3.4460   -1.3630 ha        1 X2D      0.149000
     54 H3'         1.0410    1.6170   -0.6220 hc        1 X2D      0.105000
     55 H4'        -1.1600    1.8620   -0.4370 h1        1 X2D      0.087000
     56 H5'        -1.6290    3.6730    1.5290 h1        1 X2D      0.094000
     57 H5'A       -1.4810    4.0620   -0.0340 h1        1 X2D      0.094000
@<TRIPOS>BOND
     1    1    7 1   
     2    2    3 1   
     3    2    4 1   
     4    3   29 1   
     5    3   30 1   
     6    4   31 1   
     7    5    6 1   
     8    5    8 1   
     9    6   32 1   
    10    7    9 1   
    11    8   33 1   
    12    8   34 1   
    13    8   35 1   
    14    9   26 1   
    15    9   36 1   
    16    9   37 1   
    17   10   12 1   
    18   10   27 1   
    19   11   18 1   
    20   11   28 1   
    21   11   38 1   
    22   12   13 1   
    23   12   39 1   
    24   12   40 1   
    25   13   14 1   
    26   13   41 1   
    27   13   42 1   
    28   14   15 1   
    29   14   43 1   
    30   15   16 1   
    31   15   17 1   
    32   15   44 1   
    33   16   17 1   
    34   16   19 1   
    35   16   45 1   
    36   17   46 1   
    37   17   47 1   
    38   18   26 1   
    39   18   48 1   
    40   18   49 1   
    41   19   20 1   
    42   19   25 1   
    43   20   21 1   
    44   20   50 1   
    45   21   23 1   
    46   23   24 1   
    47   23   51 1   
    48   24   52 1   
    49   25   53 1   
    50   26   27 1   
    51   26   54 1   
    52   27   28 1   
    53   27   55 1   
    54   28   56 1   
    55   28   57 1   
@<TRIPOS>SUBSTRUCTURE
     1 X2D         1 TEMP              0 ****  ****    0 ROOT
