@<TRIPOS>MOLECULE
X2D
   58    61     1     0     0
SMALL
bcc


@<TRIPOS>ATOM
      1 N01        -2.6640   -0.7020    2.6300 nb        1 X2D     -0.825000
      2 C02        -1.9500   -1.8710    2.6520 ca        1 X2D      0.639200
      3 N02        -2.6440   -3.0840    2.8240 nh        1 X2D     -0.935500
      4 C03        -0.5420   -1.8930    2.4250 ca        1 X2D     -0.290300
      5 C04         0.1270   -0.6960    2.1790 ca        1 X2D      0.026700
      6 C05        -0.6100    0.4980    2.1700 ca        1 X2D     -0.277300
      7 C06        -1.9960    0.4530    2.3940 ca        1 X2D      0.458600
      8 C07         1.5890   -0.6730    1.9510 c3        1 X2D     -0.075800
      9 C08        -2.7530    1.7560    2.3860 c3        1 X2D     -0.129700
     10 O09        -5.1240    1.4680    1.0380 os        1 X2D     -0.436600
     11 N1'        -3.9830    4.2760   -0.0050 n3        1 X2D     -0.788200
     12 C10        -6.0890    0.6010    0.4750 c3        1 X2D      0.107400
     13 C11        -5.8090   -0.8510    0.8890 c3        1 X2D      0.079800
     14 N12        -5.4750   -0.9700    2.3370 n4        1 X2D     -0.755000
     15 C13        -5.8620   -2.2730    2.8870 cx        1 X2D      0.005500
     16 C14        -5.9350   -2.4770    4.3980 cx        1 X2D     -0.035400
     17 C15        -7.1920   -2.4880    3.5700 cx        1 X2D     -0.105400
     18 C2'        -3.0010    3.8710    0.9980 c3        1 X2D      0.150800
     19 C21        -5.3810   -3.7040    4.9860 ca        1 X2D     -0.098300
     20 C22        -5.4960   -4.9400    4.3390 ca        1 X2D     -0.126000
     21 C23        -4.9740   -6.0910    4.9370 ca        1 X2D      0.018400
     22 CL23       -5.1150   -7.5810    4.1430 cl        1 X2D     -0.056400
     23 C24        -4.3430   -6.0200    6.1840 ca        1 X2D     -0.100000
     24 C25        -4.2340   -4.7880    6.8260 ca        1 X2D     -0.112000
     25 C26        -4.7460   -3.6340    6.2340 ca        1 X2D     -0.112000
     26 C3'        -2.8610    2.3280    0.9880 c3        1 X2D     -0.083700
     27 C4'        -4.0590    1.8370    0.1510 c3        1 X2D      0.107100
     28 C5'        -4.4830    3.0820   -0.6710 c3        1 X2D      0.128800
     29 HN02       -2.0380   -3.8590    2.9940 hn        1 X2D      0.406300
     30 HN0A       -3.4200   -3.0530    3.4540 hn        1 X2D      0.406300
     31 H03         0.0110   -2.8440    2.4380 ha        1 X2D      0.160000
     32 H05        -0.1100    1.4610    1.9940 ha        1 X2D      0.161000
     33 H07         2.1110   -0.3330    2.8820 hc        1 X2D      0.065700
     34 H07A        1.8490    0.0370    1.1270 hc        1 X2D      0.065700
     35 H07B        1.9750   -1.6870    1.6830 hc        1 X2D      0.065700
     36 H08        -2.1790    2.4760    3.0340 hc        1 X2D      0.070700
     37 H08A       -3.7730    1.6460    2.8410 hc        1 X2D      0.070700
     38 HN1'       -4.7330    4.7870    0.4220 hn        1 X2D      0.365800
     39 H10        -7.0740    0.9480    0.8940 h1        1 X2D      0.083700
     40 H10A       -6.1200    0.6530   -0.6450 h1        1 X2D      0.083700
     41 H11        -4.9350   -1.2600    0.3080 hx        1 X2D      0.102200
     42 H11A       -6.7190   -1.4730    0.6620 hx        1 X2D      0.102200
     43 HN12       -4.4210   -0.8300    2.4670 hn        1 X2D      0.478300
     44 H13        -5.4440   -3.0940    2.2570 hx        1 X2D      0.144700
     45 H14        -5.7760   -1.5860    5.0480 hc        1 X2D      0.103700
     46 H15        -7.7150   -3.4460    3.3810 hc        1 X2D      0.107700
     47 H15A       -7.9030   -1.6490    3.6830 hc        1 X2D      0.107700
     48 H2'        -2.0180    4.3400    0.7190 h1        1 X2D      0.057700
     49 H2'A       -3.2800    4.2350    2.0240 h1        1 X2D      0.057700
     50 H22        -6.0070   -5.0150    3.3670 ha        1 X2D      0.143000
     51 H24        -3.9420   -6.9310    6.6580 ha        1 X2D      0.167000
     52 H25        -3.7460   -4.7270    7.8120 ha        1 X2D      0.157000
     53 H26        -4.6610   -2.6700    6.7590 ha        1 X2D      0.143000
     54 H3'        -1.9310    2.0630    0.4110 hc        1 X2D      0.076700
     55 H4'        -3.7860    0.9720   -0.5040 h1        1 X2D      0.058700
     56 H5'        -5.5960    3.1060   -0.8030 h1        1 X2D      0.064200
     57 H5'A       -4.0020    3.0310   -1.6860 h1        1 X2D      0.064200
     58 H122       -5.9470   -0.2180    2.8490 hn        1 X2D      0.478300
@<TRIPOS>BOND
     1    1    2 ar  
     2    1    7 ar  
     3    2    3 1   
     4    2    4 ar  
     5    3   29 1   
     6    3   30 1   
     7    4    5 ar  
     8    4   31 1   
     9    5    6 ar  
    10    5    8 1   
    11    6    7 ar  
    12    6   32 1   
    13    7    9 1   
    14    8   33 1   
    15    8   34 1   
    16    8   35 1   
    17    9   26 1   
    18    9   36 1   
    19    9   37 1   
    20   10   12 1   
    21   10   27 1   
    22   11   18 1   
    23   11   28 1   
    24   11   38 1   
    25   12   13 1   
    26   12   39 1   
    27   12   40 1   
    28   13   14 1   
    29   13   41 1   
    30   13   42 1   
    31   14   15 1   
    32   14   43 1   
    33   14   58 1   
    34   15   16 1   
    35   15   17 1   
    36   15   44 1   
    37   16   17 1   
    38   16   19 1   
    39   16   45 1   
    40   17   46 1   
    41   17   47 1   
    42   18   26 1   
    43   18   48 1   
    44   18   49 1   
    45   19   20 ar  
    46   19   25 ar  
    47   20   21 ar  
    48   20   50 1   
    49   21   22 1   
    50   21   23 ar  
    51   23   24 ar  
    52   23   51 1   
    53   24   25 ar  
    54   24   52 1   
    55   25   53 1   
    56   26   27 1   
    57   26   54 1   
    58   27   28 1   
    59   27   55 1   
    60   28   56 1   
    61   28   57 1   
@<TRIPOS>SUBSTRUCTURE
     1 X2D         1 TEMP              0 ****  ****    0 ROOT
