@<TRIPOS>MOLECULE
X2E
   59    61     1     0     0
SMALL
bcc


@<TRIPOS>ATOM
      1 N01         4.0970   -0.6050    1.0870 nb        1 X2E     -0.734000
      2 C02         5.2360    0.1560    1.0520 ca        1 X2E      0.628200
      3 N02         6.4770   -0.4690    1.2690 nh        1 X2E     -0.922500
      4 C03         5.2090    1.5460    0.7310 ca        1 X2E     -0.302300
      5 C04         3.9890    2.1420    0.4150 ca        1 X2E     -0.006300
      6 C05         2.8290    1.3590    0.4300 ca        1 X2E     -0.290300
      7 C06         2.9280   -0.0050    0.7690 ca        1 X2E      0.450600
      8 C07         3.9200    3.5770    0.0570 c3        1 X2E     -0.061800
      9 C08         1.6630   -0.8200    0.8160 c3        1 X2E     -0.113700
     10 O09        -0.5380   -2.2400    0.7980 os        1 X2E     -0.422600
     11 N1'         0.8850   -2.5210   -2.3580 n3        1 X2E     -0.790200
     12 C10        -1.5970   -3.0960    1.2280 c3        1 X2E      0.120400
     13 C11        -2.7790   -2.1900    1.5890 c3        1 X2E      0.161800
     14 N11        -3.3890   -1.5780    0.4270 n3        1 X2E     -0.824200
     15 C13        -4.3120   -0.4940    0.7550 c3        1 X2E      0.181500
     16 C14        -4.6830    0.3310   -0.4940 c3        1 X2E     -0.045100
     17 C15        -5.6070   -1.0100    1.3850 c3        1 X2E     -0.091100
     18 C2'        -0.0500   -3.1400   -1.4260 c3        1 X2E      0.112800
     19 C21        -3.5170    1.0690   -1.0510 ca        1 X2E     -0.060300
     20 C22        -2.7350    0.5000   -2.0630 ca        1 X2E     -0.141000
     21 C23        -1.6480    1.1950   -2.5910 ca        1 X2E     -0.098000
     22 C24        -1.3250    2.4660   -2.1230 ca        1 X2E     -0.171000
     23 C25        -2.1090    3.0410   -1.1060 ca        1 X2E      0.122900
     24 F25        -1.8060    4.2770   -0.6400 f         1 X2E     -0.144900
     25 C26        -3.2050    2.3430   -0.5690 ca        1 X2E     -0.166000
     26 C3'         0.4480   -2.9210    0.0290 c3        1 X2E      0.117100
     27 C4'         1.7030   -2.0280   -0.0940 c3        1 X2E     -0.078700
     28 C5'         1.7640   -1.6440   -1.5900 c3        1 X2E      0.141800
     29 HN02        6.4360   -1.3770    1.6760 hn        1 X2E      0.397800
     30 HN0A        7.1480    0.1290    1.6990 hn        1 X2E      0.397800
     31 H03         6.1350    2.1360    0.7220 ha        1 X2E      0.141000
     32 H05         1.8540    1.8010    0.1850 ha        1 X2E      0.146000
     33 H07         3.9280    3.6890   -1.0570 hc        1 X2E      0.049700
     34 H07A        2.9790    4.0380    0.4480 hc        1 X2E      0.049700
     35 H07B        4.7910    4.1400    0.4720 hc        1 X2E      0.049700
     36 H08         1.4890   -1.1680    1.8710 hc        1 X2E      0.068700
     37 H08A        0.7920   -0.1690    0.5360 hc        1 X2E      0.068700
     38 HN1'        1.4250   -3.2280   -2.8230 hn        1 X2E      0.345800
     39 H10        -1.8710   -3.8260    0.4230 h1        1 X2E      0.039200
     40 H10A       -1.2580   -3.6550    2.1410 h1        1 X2E      0.039200
     41 H11        -3.5590   -2.8290    2.0930 h1        1 X2E      0.039700
     42 H11A       -2.4190   -1.4280    2.3420 h1        1 X2E      0.039700
     43 HN11       -2.6750   -1.2380   -0.1940 hn        1 X2E      0.374800
     44 H13        -3.8380    0.2240    1.4990 h1        1 X2E      0.021700
     45 H14        -5.1170   -0.3470   -1.2760 hc        1 X2E      0.059700
     46 H14A       -5.4830    1.0610   -0.1970 hc        1 X2E      0.059700
     47 H15        -6.2730   -0.1440    1.6170 hc        1 X2E      0.038367
     48 H15A       -6.1410   -1.6990    0.6900 hc        1 X2E      0.038367
     49 H15B       -5.3940   -1.5560    2.3350 hc        1 X2E      0.038367
     50 H2'        -1.0470   -2.6320   -1.5510 h1        1 X2E      0.055200
     51 H2'A       -0.1830   -4.2330   -1.6370 h1        1 X2E      0.055200
     52 H22        -2.9800   -0.5040   -2.4450 ha        1 X2E      0.144000
     53 H23        -1.0350    0.7340   -3.3810 ha        1 X2E      0.145000
     54 H24        -0.4720    3.0220   -2.5360 ha        1 X2E      0.146000
     55 H26        -3.8080    2.8050    0.2260 ha        1 X2E      0.146000
     56 H3'         0.7010   -3.8970    0.5200 h1        1 X2E      0.043700
     57 H4'         2.5970   -2.6580    0.1630 hc        1 X2E      0.072700
     58 H5'         2.8200   -1.6900   -1.9660 h1        1 X2E      0.056200
     59 H5'A        1.3920   -0.5910   -1.7290 h1        1 X2E      0.056200
@<TRIPOS>BOND
     1    1    2 ar  
     2    1    7 ar  
     3    2    3 1   
     4    2    4 ar  
     5    3   29 1   
     6    3   30 1   
     7    4    5 ar  
     8    4   31 1   
     9    5    6 ar  
    10    5    8 1   
    11    6    7 ar  
    12    6   32 1   
    13    7    9 1   
    14    8   33 1   
    15    8   34 1   
    16    8   35 1   
    17    9   27 1   
    18    9   36 1   
    19    9   37 1   
    20   10   12 1   
    21   10   26 1   
    22   11   18 1   
    23   11   28 1   
    24   11   38 1   
    25   12   13 1   
    26   12   39 1   
    27   12   40 1   
    28   13   14 1   
    29   13   41 1   
    30   13   42 1   
    31   14   15 1   
    32   14   43 1   
    33   15   16 1   
    34   15   17 1   
    35   15   44 1   
    36   16   19 1   
    37   16   45 1   
    38   16   46 1   
    39   17   47 1   
    40   17   48 1   
    41   17   49 1   
    42   18   26 1   
    43   18   50 1   
    44   18   51 1   
    45   19   20 ar  
    46   19   25 ar  
    47   20   21 ar  
    48   20   52 1   
    49   21   22 ar  
    50   21   53 1   
    51   22   23 ar  
    52   22   54 1   
    53   23   24 1   
    54   23   25 ar  
    55   25   55 1   
    56   26   27 1   
    57   26   56 1   
    58   27   28 1   
    59   27   57 1   
    60   28   58 1   
    61   28   59 1   
@<TRIPOS>SUBSTRUCTURE
     1 X2E         1 TEMP              0 ****  ****    0 ROOT
