@<TRIPOS>MOLECULE
X2E
   60    62     1     0     0
SMALL
bcc


@<TRIPOS>ATOM
      1 N01        -0.6440   -0.6590    1.9270 nb        1 X2E     -0.747000
      2 C02         0.6730   -0.8850    2.2300 ca        1 X2E      0.634200
      3 N02         1.1840   -2.1860    2.0990 nh        1 X2E     -0.928500
      4 C03         1.5160    0.1440    2.7530 ca        1 X2E     -0.293300
      5 C04         0.9810    1.4090    2.9780 ca        1 X2E      0.005700
      6 C05        -0.3710    1.6350    2.6800 ca        1 X2E     -0.291300
      7 C06        -1.1380    0.5780    2.1620 ca        1 X2E      0.433600
      8 C07         1.8250    2.5050    3.5060 c3        1 X2E     -0.067800
      9 C08        -2.5920    0.8270    1.8550 c3        1 X2E     -0.107700
     10 O09        -5.1300    0.9190    1.2320 os        1 X2E     -0.435600
     11 N1'        -3.2910    2.9550   -0.7850 n3        1 X2E     -0.782200
     12 C10        -6.5260    0.7970    1.0420 c3        1 X2E      0.103400
     13 C11        -6.9660   -0.6450    1.3320 c3        1 X2E      0.070800
     14 N11        -6.5340   -1.0990    2.6830 n4        1 X2E     -0.757000
     15 C13        -7.1070   -2.4420    3.0630 c3        1 X2E      0.129500
     16 C14        -6.3440   -3.0390    4.2550 c3        1 X2E     -0.057100
     17 C15        -8.5880   -2.3560    3.4000 c3        1 X2E     -0.131100
     18 C2'        -4.5470    2.2220   -0.7780 c3        1 X2E      0.123800
     19 C21        -4.8770   -3.1050    4.0260 ca        1 X2E     -0.137300
     20 C22        -4.0020   -2.4260    4.8800 ca        1 X2E     -0.143000
     21 C23        -2.6220   -2.5290    4.6970 ca        1 X2E     -0.089000
     22 C24        -2.0980   -3.2990    3.6640 ca        1 X2E     -0.120000
     23 C25        -2.9780   -3.9880    2.8050 ca        1 X2E      0.144900
     24 F25        -2.4880   -4.7440    1.7970 f         1 X2E     -0.122900
     25 C26        -4.3690   -3.8950    2.9890 ca        1 X2E     -0.180000
     26 C3'        -4.3670    0.9020    0.0170 c3        1 X2E      0.104100
     27 C4'        -2.8660    0.8200    0.3640 c3        1 X2E     -0.084700
     28 C5'        -2.2390    2.0450   -0.3460 c3        1 X2E      0.142800
     29 HN02        2.1710   -2.2170    1.9670 hn        1 X2E      0.407800
     30 HN0A        0.6770   -2.7960    1.4960 hn        1 X2E      0.407800
     31 H03         2.5710   -0.0620    2.9830 ha        1 X2E      0.152000
     32 H05        -0.8190    2.6240    2.8470 ha        1 X2E      0.144000
     33 H07         2.2160    3.1230    2.6570 hc        1 X2E      0.057367
     34 H07A        1.2330    3.1720    4.1800 hc        1 X2E      0.057367
     35 H07B        2.6970    2.1040    4.0780 hc        1 X2E      0.057367
     36 H08        -2.8990    1.8140    2.2910 hc        1 X2E      0.048200
     37 H08A       -3.2180    0.0350    2.3490 hc        1 X2E      0.048200
     38 HN1'       -3.3440    3.7530   -0.1790 hn        1 X2E      0.360800
     39 H10        -6.8490    1.0570   -0.0010 h1        1 X2E      0.087200
     40 H10A       -6.9960    1.5150    1.7680 h1        1 X2E      0.087200
     41 H11        -8.0880   -0.7100    1.2680 hx        1 X2E      0.106700
     42 H11A       -6.5110   -1.3440    0.5730 hx        1 X2E      0.106700
     43 HN11       -5.5010   -1.1570    2.6980 hn        1 X2E      0.459800
     44 H13        -6.9580   -3.1110    2.1620 hx        1 X2E      0.106700
     45 H14        -6.7450   -4.0800    4.4100 hc        1 X2E      0.090200
     46 H14A       -6.5740   -2.4540    5.1860 hc        1 X2E      0.090200
     47 H15        -8.7750   -1.6730    4.2640 hc        1 X2E      0.075700
     48 H15A       -9.1940   -2.0140    2.5260 hc        1 X2E      0.075700
     49 H15B       -8.9420   -3.3800    3.6830 hc        1 X2E      0.075700
     50 H2'        -4.8010    1.9760   -1.8460 h1        1 X2E      0.060700
     51 H2'A       -5.3850    2.8330   -0.3460 h1        1 X2E      0.060700
     52 H22        -4.3950   -1.8280    5.7160 ha        1 X2E      0.141000
     53 H23        -1.9380   -1.9980    5.3780 ha        1 X2E      0.160000
     54 H24        -1.0100   -3.3710    3.5050 ha        1 X2E      0.180000
     55 H26        -5.0400   -4.4690    2.3340 ha        1 X2E      0.146000
     56 H3'        -4.6870    0.0180   -0.5960 h1        1 X2E      0.047700
     57 H4'        -2.4500   -0.1220   -0.0840 hc        1 X2E      0.087700
     58 H5'        -1.6890    1.7010   -1.2650 h1        1 X2E      0.068700
     59 H5'A       -1.5010    2.5590    0.3280 h1        1 X2E      0.068700
     60 H112       -6.8160   -0.4020    3.3790 hn        1 X2E      0.459800
@<TRIPOS>BOND
     1    1    2 ar  
     2    1    7 ar  
     3    2    3 1   
     4    2    4 ar  
     5    3   29 1   
     6    3   30 1   
     7    4    5 ar  
     8    4   31 1   
     9    5    6 ar  
    10    5    8 1   
    11    6    7 ar  
    12    6   32 1   
    13    7    9 1   
    14    8   33 1   
    15    8   34 1   
    16    8   35 1   
    17    9   27 1   
    18    9   36 1   
    19    9   37 1   
    20   10   12 1   
    21   10   26 1   
    22   11   18 1   
    23   11   28 1   
    24   11   38 1   
    25   12   13 1   
    26   12   39 1   
    27   12   40 1   
    28   13   14 1   
    29   13   41 1   
    30   13   42 1   
    31   14   15 1   
    32   14   43 1   
    33   14   60 1   
    34   15   16 1   
    35   15   17 1   
    36   15   44 1   
    37   16   19 1   
    38   16   45 1   
    39   16   46 1   
    40   17   47 1   
    41   17   48 1   
    42   17   49 1   
    43   18   26 1   
    44   18   50 1   
    45   18   51 1   
    46   19   20 ar  
    47   19   25 ar  
    48   20   21 ar  
    49   20   52 1   
    50   21   22 ar  
    51   21   53 1   
    52   22   23 ar  
    53   22   54 1   
    54   23   24 1   
    55   23   25 ar  
    56   25   55 1   
    57   26   27 1   
    58   26   56 1   
    59   27   28 1   
    60   27   57 1   
    61   28   58 1   
    62   28   59 1   
@<TRIPOS>SUBSTRUCTURE
     1 X2E         1 TEMP              0 ****  ****    0 ROOT
