@<TRIPOS>MOLECULE
X2E
   60    62     1     0     0
SMALL
bcc


@<TRIPOS>ATOM
      1 N01        -0.6460   -0.6620    1.9130 nb        1 X2E     -0.747000
      2 C02         0.6700   -0.9120    2.2010 ca        1 X2E      0.634200
      3 N02         1.1720   -2.2080    2.0040 nv        1 X2E     -0.928500
      4 C03         1.5210    0.0840    2.7730 ca        1 X2E     -0.293300
      5 C04         0.9950    1.3400    3.0610 ca        1 X2E      0.005700
      6 C05        -0.3560    1.5900    2.7790 ca        1 X2E     -0.291300
      7 C06        -1.1310    0.5650    2.2100 ca        1 X2E      0.433600
      8 C07         1.8470    2.4030    3.6420 c3        1 X2E     -0.067800
      9 C08        -2.5840    0.8380    1.9200 c3        1 X2E     -0.107700
     10 O09        -5.1230    0.9770    1.3090 os        1 X2E     -0.435600
     11 N1'        -3.2750    3.0990   -0.6080 n7        1 X2E     -0.782200
     12 C10        -6.5200    0.8740    1.1160 c3        1 X2E      0.103400
     13 C11        -6.9680   -0.5790    1.3340 c3        1 X2E      0.070800
     14 N11        -6.5360   -1.1030    2.6590 ny        1 X2E     -0.757000
     15 C13        -7.1170   -2.4600    2.9720 c3        1 X2E      0.129500
     16 C14        -6.3560   -3.1210    4.1310 c3        1 X2E     -0.057100
     17 C15        -8.5970   -2.3830    3.3150 c3        1 X2E     -0.131100
     18 C2'        -4.5360    2.3760   -0.6350 c3        1 X2E      0.123800
     19 C21        -4.8890   -3.1840    3.8970 ca        1 X2E     -0.137300
     20 C22        -4.0090   -2.5540    4.7820 ca        1 X2E     -0.143000
     21 C23        -2.6300   -2.6560    4.5930 ca        1 X2E     -0.089000
     22 C24        -2.1120   -3.3760    3.5220 ca        1 X2E     -0.120000
     23 C25        -2.9980   -4.0160    2.6310 ca        1 X2E      0.144900
     24 F25        -2.5130   -4.7240    1.5860 f         1 X2E     -0.122900
     25 C26        -4.3870   -3.9240    2.8220 ca        1 X2E     -0.180000
     26 C3'        -4.3630    1.0160    0.0920 c3        1 X2E      0.104100
     27 C4'        -2.8610    0.9070    0.4310 c3        1 X2E     -0.084700
     28 C5'        -2.2280    2.1620   -0.2190 c3        1 X2E      0.142800
     29 HN02        0.6600   -2.7840    1.3720 hn        1 X2E      0.407800
     30 HN0A        2.1580   -2.2400    1.8680 hn        1 X2E      0.407800
     31 H03         2.5750   -0.1400    2.9900 ha        1 X2E      0.152000
     32 H05        -0.7960    2.5710    2.9960 ha        1 X2E      0.144000
     33 H07         1.2620    3.0390    4.3500 hc        1 X2E      0.057367
     34 H07A        2.7180    1.9670    4.1910 hc        1 X2E      0.057367
     35 H07B        2.2410    3.0590    2.8240 hc        1 X2E      0.057367
     36 H08        -3.2150    0.0270    2.3750 hc        1 X2E      0.048200
     37 H08A       -2.8840    1.8040    2.4060 hc        1 X2E      0.048200
     38 HN1'       -3.3210    3.8660    0.0370 hn        1 X2E      0.360800
     39 H10        -6.8440    1.1880    0.0880 h1        1 X2E      0.087200
     40 H10A       -6.9840    1.5570    1.8790 h1        1 X2E      0.087200
     41 H11        -8.0910   -0.6330    1.2690 hx        1 X2E      0.106700
     42 H11A       -6.5190   -1.2410    0.5400 hx        1 X2E      0.106700
     43 HN11       -5.5040   -1.1680    2.6690 hn        1 X2E      0.459800
     44 H13        -6.9730   -3.0840    2.0380 hx        1 X2E      0.106700
     45 H14        -6.7630   -4.1660    4.2340 hc        1 X2E      0.090200
     46 H14A       -6.5820   -2.5830    5.0910 hc        1 X2E      0.090200
     47 H15        -8.9560   -3.4180    3.5480 hc        1 X2E      0.075700
     48 H15A       -8.7790   -1.7430    4.2120 hc        1 X2E      0.075700
     49 H15B       -9.2020   -1.9940    2.4600 hc        1 X2E      0.075700
     50 H2'        -4.7940    2.1850   -1.7130 h1        1 X2E      0.060200
     51 H2'A       -5.3690    2.9690   -0.1710 h1        1 X2E      0.060200
     52 H22        -4.3980   -1.9960    5.6480 ha        1 X2E      0.141000
     53 H23        -1.9420   -2.1630    5.2990 ha        1 X2E      0.160000
     54 H24        -1.0240   -3.4460    3.3580 ha        1 X2E      0.180000
     55 H26        -5.0620   -4.4610    2.1390 ha        1 X2E      0.146000
     56 H3'        -4.6900    0.1660   -0.5630 h1        1 X2E      0.047700
     57 H4'        -2.4530   -0.0140   -0.0640 hc        1 X2E      0.087700
     58 H5'        -1.6820    1.8600   -1.1550 h1        1 X2E      0.068700
     59 H5'A       -1.4850    2.6370    0.4780 h1        1 X2E      0.068700
     60 H112       -6.8130   -0.4410    3.3910 hn        1 X2E      0.459800
@<TRIPOS>BOND
     1    1    2 ar  
     2    1    7 ar  
     3    2    3 1   
     4    2    4 ar  
     5    3   29 1   
     6    3   30 1   
     7    4    5 ar  
     8    4   31 1   
     9    5    6 ar  
    10    5    8 1   
    11    6    7 ar  
    12    6   32 1   
    13    7    9 1   
    14    8   33 1   
    15    8   34 1   
    16    8   35 1   
    17    9   27 1   
    18    9   36 1   
    19    9   37 1   
    20   10   12 1   
    21   10   26 1   
    22   11   18 1   
    23   11   28 1   
    24   11   38 1   
    25   12   13 1   
    26   12   39 1   
    27   12   40 1   
    28   13   14 1   
    29   13   41 1   
    30   13   42 1   
    31   14   15 1   
    32   14   43 1   
    33   14   60 1   
    34   15   16 1   
    35   15   17 1   
    36   15   44 1   
    37   16   19 1   
    38   16   45 1   
    39   16   46 1   
    40   17   47 1   
    41   17   48 1   
    42   17   49 1   
    43   18   26 1   
    44   18   50 1   
    45   18   51 1   
    46   19   20 ar  
    47   19   25 ar  
    48   20   21 ar  
    49   20   52 1   
    50   21   22 ar  
    51   21   53 1   
    52   22   23 ar  
    53   22   54 1   
    54   23   24 1   
    55   23   25 ar  
    56   25   55 1   
    57   26   27 1   
    58   26   56 1   
    59   27   28 1   
    60   27   57 1   
    61   28   58 1   
    62   28   59 1   
@<TRIPOS>SUBSTRUCTURE
     1 X2E         1 TEMP              0 ****  ****    0 ROOT
