@<TRIPOS>MOLECULE
X2E
   61    63     1     0     0
SMALL
bcc


@<TRIPOS>ATOM
      1 N01         0.1770   -0.0980   -0.5100 nb        1 X2E     -0.670000
      2 C02         1.5390   -0.0830   -0.4450 ca        1 X2E      0.450200
      3 N02         2.2480    0.2150   -1.7120 n4        1 X2E     -0.818300
      4 C03         2.2910   -0.3330    0.7160 ca        1 X2E     -0.207300
      5 C04         1.5810   -0.6190    1.8980 ca        1 X2E      0.007700
      6 C05         0.1870   -0.6400    1.8530 ca        1 X2E     -0.200300
      7 C06        -0.4860   -0.3780    0.6310 ca        1 X2E      0.454600
      8 C07         2.3200   -0.8980    3.1490 c3        1 X2E     -0.084800
      9 C08        -1.9910   -0.4420    0.6050 c3        1 X2E     -0.120700
     10 O09        -4.6570   -0.3910    0.5510 os        1 X2E     -0.447600
     11 N1'        -3.8180    2.3730    2.1110 n3        1 X2E     -0.807200
     12 C10        -5.9390   -0.6530   -0.0150 c3        1 X2E      0.101400
     13 C11        -6.5650   -1.7730    0.8220 c3        1 X2E      0.098800
     14 N11        -6.7340   -1.3900    2.2510 n4        1 X2E     -0.767000
     15 C13        -7.0080   -2.5750    3.1470 c3        1 X2E      0.134500
     16 C14        -6.9580   -2.1710    4.6270 c3        1 X2E     -0.065100
     17 C15        -8.3520   -3.2190    2.8410 c3        1 X2E     -0.134100
     18 C2'        -4.7680    1.9940    1.0760 c3        1 X2E      0.129800
     19 C21        -5.7940   -1.3240    4.9990 ca        1 X2E     -0.113300
     20 C22        -5.9710   -0.2930    5.9290 ca        1 X2E     -0.119000
     21 C23        -4.8870    0.4920    6.3270 ca        1 X2E     -0.077000
     22 C24        -3.6210    0.2760    5.7940 ca        1 X2E     -0.131000
     23 C25        -3.4420   -0.7580    4.8550 ca        1 X2E      0.135900
     24 F25        -2.2220   -0.9740    4.3060 f         1 X2E     -0.152900
     25 C26        -4.5220   -1.5710    4.4710 ca        1 X2E     -0.202000
     26 C3'        -4.1340    0.8930    0.1890 c3        1 X2E      0.127100
     27 C4'        -2.6270    0.9290    0.5250 c3        1 X2E     -0.080700
     28 C5'        -2.5450    1.7110    1.8560 c3        1 X2E      0.147800
     29 HN02        1.9530    1.1310   -2.0720 hn        1 X2E      0.473467
     30 HN0A        3.2580    0.2230   -1.5390 hn        1 X2E      0.473467
     31 H03         3.3920   -0.3140    0.7310 ha        1 X2E      0.175000
     32 H05        -0.4010   -0.8570    2.7620 ha        1 X2E      0.187000
     33 H07         2.7780   -1.9200    3.1010 hc        1 X2E      0.080700
     34 H07A        1.6420   -0.8600    4.0380 hc        1 X2E      0.080700
     35 H07B        3.1430   -0.1540    3.2990 hc        1 X2E      0.080700
     36 H08        -2.3290   -1.0540   -0.2760 hc        1 X2E      0.081200
     37 H08A       -2.3440   -0.9700    1.5340 hc        1 X2E      0.081200
     38 HN1'       -3.7110    3.3690    2.1560 hn        1 X2E      0.382800
     39 H10        -5.8120   -1.0240   -1.0680 h1        1 X2E      0.077700
     40 H10A       -6.5790    0.2690   -0.0170 h1        1 X2E      0.077700
     41 H11        -7.5730   -2.0390    0.3920 hx        1 X2E      0.114700
     42 H11A       -5.8960   -2.6810    0.7800 hx        1 X2E      0.114700
     43 HN11       -7.5010   -0.7170    2.3400 hn        1 X2E      0.461800
     44 H13        -6.1800   -3.3190    2.9390 hx        1 X2E      0.103700
     45 H14        -6.9190   -3.1290    5.2210 hc        1 X2E      0.098700
     46 H14A       -7.9170   -1.6530    4.9050 hc        1 X2E      0.098700
     47 H15        -8.3820   -3.6290    1.8020 hc        1 X2E      0.080033
     48 H15A       -8.5040   -4.0710    3.5530 hc        1 X2E      0.080033
     49 H15B       -9.1970   -2.5010    2.9760 hc        1 X2E      0.080033
     50 H2'        -5.0830    2.8620    0.4350 h1        1 X2E      0.049700
     51 H2'A       -5.6860    1.5920    1.5880 h1        1 X2E      0.049700
     52 H22        -6.9660   -0.1050    6.3650 ha        1 X2E      0.157000
     53 H23        -5.0360    1.2910    7.0740 ha        1 X2E      0.168000
     54 H24        -2.7630    0.8950    6.1000 ha        1 X2E      0.168000
     55 H26        -4.3400   -2.4160    3.7910 ha        1 X2E      0.138000
     56 H3'        -4.3160    1.0780   -0.9010 h1        1 X2E      0.072700
     57 H4'        -2.1260    1.5260   -0.2860 hc        1 X2E      0.076700
     58 H5'        -1.6910    2.4410    1.8270 h1        1 X2E      0.055700
     59 H5'A       -2.3610    0.9990    2.7110 h1        1 X2E      0.055700
     60 H023        2.0250   -0.5030   -2.4130 hn        1 X2E      0.473467
     61 H112       -5.8640   -0.9280    2.5720 hn        1 X2E      0.461800
@<TRIPOS>BOND
     1    1    2 ar  
     2    1    7 ar  
     3    2    3 1   
     4    2    4 ar  
     5    3   29 1   
     6    3   30 1   
     7    3   60 1   
     8    4    5 ar  
     9    4   31 1   
    10    5    6 ar  
    11    5    8 1   
    12    6    7 ar  
    13    6   32 1   
    14    7    9 1   
    15    8   33 1   
    16    8   34 1   
    17    8   35 1   
    18    9   27 1   
    19    9   36 1   
    20    9   37 1   
    21   10   12 1   
    22   10   26 1   
    23   11   18 1   
    24   11   28 1   
    25   11   38 1   
    26   12   13 1   
    27   12   39 1   
    28   12   40 1   
    29   13   14 1   
    30   13   41 1   
    31   13   42 1   
    32   14   15 1   
    33   14   43 1   
    34   14   61 1   
    35   15   16 1   
    36   15   17 1   
    37   15   44 1   
    38   16   19 1   
    39   16   45 1   
    40   16   46 1   
    41   17   47 1   
    42   17   48 1   
    43   17   49 1   
    44   18   26 1   
    45   18   50 1   
    46   18   51 1   
    47   19   20 ar  
    48   19   25 ar  
    49   20   21 ar  
    50   20   52 1   
    51   21   22 ar  
    52   21   53 1   
    53   22   23 ar  
    54   22   54 1   
    55   23   24 1   
    56   23   25 ar  
    57   25   55 1   
    58   26   27 1   
    59   26   56 1   
    60   27   28 1   
    61   27   57 1   
    62   28   58 1   
    63   28   59 1   
@<TRIPOS>SUBSTRUCTURE
     1 X2E         1 TEMP              0 ****  ****    0 ROOT
