@<TRIPOS>MOLECULE
X2F
   19    19     1     0     0
SMALL
bcc


@<TRIPOS>ATOM
      1 C1         -1.1090   -0.3050   -1.2840 c3        1 X2F      0.306900
      2 C2          0.4070   -0.3050   -1.2840 c3        1 X2F      0.125600
      3 C3          0.9720   -0.3050    0.0900 c3        1 X2F      0.075100
      4 C4          0.3960    0.7790    0.9370 c3        1 X2F      0.123100
      5 C5         -1.1260    0.7760    0.9260 c3        1 X2F      0.130400
      6 O1         -1.5550   -1.5250   -0.8190 oh        1 X2F     -0.612800
      7 O3          2.4090   -0.1230    0.0060 oh        1 X2F     -0.602800
      8 O4          0.8500    0.6040    2.2840 oh        1 X2F     -0.591800
      9 O5         -1.6780    0.7710   -0.4340 os        1 X2F     -0.442600
     10 F2          0.8500   -1.4220   -1.9450 f         1 X2F     -0.226300
     11 H1         -1.4240   -0.1830   -2.2000 h2        1 X2F      0.084700
     12 H2          0.7230    0.4880   -1.7560 h1        1 X2F      0.077700
     13 H3          0.7860   -1.1670    0.5090 h1        1 X2F      0.081700
     14 H4          0.7130    1.6410    0.6050 h1        1 X2F      0.057700
     15 H51        -1.4460    1.5700    1.3930 h1        1 X2F      0.073700
     16 H52        -1.4430   -0.0180    1.3970 h1        1 X2F      0.073700
     17 HO1        -2.2330   -1.8040   -1.3200 ho        1 X2F      0.423000
     18 HO3         2.8180   -0.8630    0.2770 ho        1 X2F      0.420000
     19 HO4         1.0890    1.3900    2.6200 ho        1 X2F      0.424000
@<TRIPOS>BOND
     1    1    2 1   
     2    1    6 1   
     3    1    9 1   
     4    1   11 1   
     5    2    3 1   
     6    2   10 1   
     7    2   12 1   
     8    3    4 1   
     9    3    7 1   
    10    3   13 1   
    11    4    5 1   
    12    4    8 1   
    13    4   14 1   
    14    5    9 1   
    15    5   15 1   
    16    5   16 1   
    17    6   17 1   
    18    7   18 1   
    19    8   19 1   
@<TRIPOS>SUBSTRUCTURE
     1 X2F         1 TEMP              0 ****  ****    0 ROOT
