@<TRIPOS>MOLECULE
X2F
   19    19     1     0     0
SMALL
bcc


@<TRIPOS>ATOM
      1 C1         -0.7760    0.2330   -1.4300 c3        1 X2F      0.306900
      2 C2          0.6360    0.4940   -0.8510 c3        1 X2F      0.125600
      3 C3          0.7570   -0.1850    0.5310 c3        1 X2F      0.075100
      4 C4         -0.3900    0.3060    1.4320 c3        1 X2F      0.123100
      5 C5         -1.7290    0.0040    0.7540 c3        1 X2F      0.130400
      6 O1         -0.9240   -1.1460   -1.6550 oh        1 X2F     -0.612800
      7 O3          1.9630    0.1870    1.1730 oh        1 X2F     -0.602800
      8 O4         -0.3890   -0.3840    2.6670 oh        1 X2F     -0.591800
      9 O5         -1.8000    0.6110   -0.5320 os        1 X2F     -0.442600
     10 F2          1.6250    0.0490   -1.7080 f         1 X2F     -0.226300
     11 H1         -0.9570    0.8440   -2.3580 h2        1 X2F      0.084700
     12 H2          0.7510    1.6100   -0.7240 h1        1 X2F      0.077700
     13 H3          0.7080   -1.3020    0.4080 h1        1 X2F      0.081700
     14 H4         -0.2740    1.4110    1.6130 h1        1 X2F      0.057700
     15 H51        -1.8750   -1.1030    0.6640 h1        1 X2F      0.073700
     16 H52        -2.5770    0.4670    1.3250 h1        1 X2F      0.073700
     17 HO1        -1.8090   -1.2850   -2.0190 ho        1 X2F      0.423000
     18 HO3         2.6840   -0.1270    0.6120 ho        1 X2F      0.420000
     19 HO4         0.4940   -0.2670    3.0430 ho        1 X2F      0.424000
@<TRIPOS>BOND
     1    1    2 1   
     2    1    6 1   
     3    1    9 1   
     4    1   11 1   
     5    2    3 1   
     6    2   10 1   
     7    2   12 1   
     8    3    4 1   
     9    3    7 1   
    10    3   13 1   
    11    4    5 1   
    12    4    8 1   
    13    4   14 1   
    14    5    9 1   
    15    5   15 1   
    16    5   16 1   
    17    6   17 1   
    18    7   18 1   
    19    8   19 1   
@<TRIPOS>SUBSTRUCTURE
     1 X2F         1 TEMP              0 ****  ****    0 ROOT
