@<TRIPOS>MOLECULE
X2K
   34    36     1     0     0
SMALL
bcc


@<TRIPOS>ATOM
      1 CAB         0.2260    0.9040   -0.4380 c3        1 X2K     -0.032800
      2 CAN         1.5600    0.3830   -0.1370 cc        1 X2K     -0.088300
      3 CAH         2.1660    0.3080    1.1460 cc        1 X2K     -0.212000
      4 CAL         3.4520   -0.2580    0.9750 cd        1 X2K     -0.076600
      5 CAA         4.4580   -0.5350    2.0160 c3        1 X2K     -0.038800
      6 NAJ         3.6390   -0.5270   -0.3700 na        1 X2K     -0.132100
      7 CAO         2.4950   -0.1440   -1.0780 cd        1 X2K     -0.152100
      8 CAE         2.2690   -0.2470   -2.4830 cf        1 X2K      0.056800
      9 CAQ         3.0350   -0.7130   -3.4880 cc        1 X2K     -0.176400
     10 CAS         2.6160   -0.7350   -4.8990 ca        1 X2K     -0.059800
     11 CAI         1.4500   -0.3350   -5.5140 ca        1 X2K     -0.138000
     12 CAM         1.3260   -0.4760   -6.9240 ca        1 X2K      0.108600
     13 NAC         0.1850    0.0150   -7.5780 nv        1 X2K     -0.810200
     14 CAF         2.3910   -1.0330   -7.6610 ca        1 X2K     -0.164000
     15 CAG         3.5770   -1.4420   -7.0460 ca        1 X2K     -0.124000
     16 CAR         3.6930   -1.2970   -5.6700 ca        1 X2K      0.013600
     17 NAK         4.7550   -1.6310   -4.8100 ns        1 X2K     -0.471100
     18 CAP         4.4210   -1.2920   -3.4850 c         1 X2K      0.723700
     19 OAD         5.2110   -1.4830   -2.5440 o         1 X2K     -0.657500
     20 HAB1       -0.4110    0.1140   -0.9110 hc        1 X2K      0.043367
     21 HAB2       -0.2810    1.2510    0.4970 hc        1 X2K      0.043367
     22 HAB3        0.2890    1.7700   -1.1450 hc        1 X2K      0.043367
     23 HAH         1.7310    0.6250    2.0890 ha        1 X2K      0.154000
     24 HAA1        5.4040    0.0300    1.8190 hc        1 X2K      0.053700
     25 HAA2        4.0560   -0.2230    3.0110 hc        1 X2K      0.053700
     26 HAA3        4.7020   -1.6270    2.0560 hc        1 X2K      0.053700
     27 HAJ         4.4550   -0.9260   -0.7720 hn        1 X2K      0.333700
     28 HAE         1.2640    0.1380   -2.7650 ha        1 X2K      0.140000
     29 HAI         0.6280    0.0980   -4.9250 ha        1 X2K      0.135000
     30 HAC1        0.0170   -0.4120   -8.4630 hn        1 X2K      0.383300
     31 HAC2       -0.6290    0.0340   -7.0030 hn        1 X2K      0.383300
     32 HAF         2.3030   -1.1470   -8.7530 ha        1 X2K      0.134000
     33 HAG         4.3900   -1.8680   -7.6490 ha        1 X2K      0.138000
     34 HAK         5.6230   -1.9940   -5.1030 hn        1 X2K      0.340500
@<TRIPOS>BOND
     1    1    2 1   
     2    1   20 1   
     3    1   21 1   
     4    1   22 1   
     5    2    3 1   
     6    2    7 2   
     7    3    4 2   
     8    3   23 1   
     9    4    5 1   
    10    4    6 1   
    11    5   24 1   
    12    5   25 1   
    13    5   26 1   
    14    6    7 1   
    15    6   27 1   
    16    7    8 1   
    17    8    9 2   
    18    8   28 1   
    19    9   10 1   
    20    9   18 1   
    21   10   11 ar  
    22   10   16 ar  
    23   11   12 ar  
    24   11   29 1   
    25   12   13 1   
    26   12   14 ar  
    27   13   30 1   
    28   13   31 1   
    29   14   15 ar  
    30   14   32 1   
    31   15   16 ar  
    32   15   33 1   
    33   16   17 1   
    34   17   18 1   
    35   17   34 1   
    36   18   19 2   
@<TRIPOS>SUBSTRUCTURE
     1 X2K         1 TEMP              0 ****  ****    0 ROOT
