@<TRIPOS>MOLECULE
X2K
   34    36     1     0     0
SMALL
bcc


@<TRIPOS>ATOM
      1 CAB         0.2040    0.8530   -0.4310 c3        1 X2K     -0.032800
      2 CAN         1.5460    0.3510   -0.1330 cc        1 X2K     -0.088300
      3 CAH         2.1530    0.2800    1.1500 cc        1 X2K     -0.212000
      4 CAL         3.4480   -0.2650    0.9760 cd        1 X2K     -0.076600
      5 CAA         4.4580   -0.5310    2.0160 c3        1 X2K     -0.038800
      6 NAJ         3.6400   -0.5240   -0.3700 na        1 X2K     -0.132100
      7 CAO         2.4900   -0.1560   -1.0770 cd        1 X2K     -0.152100
      8 CAE         2.2670   -0.2550   -2.4820 cf        1 X2K      0.056800
      9 CAQ         3.0400   -0.7030   -3.4890 cc        1 X2K     -0.176400
     10 CAS         2.6210   -0.7250   -4.9000 ca        1 X2K     -0.059800
     11 CAI         1.4490   -0.3400   -5.5140 ca        1 X2K     -0.138000
     12 CAM         1.3280   -0.4760   -6.9240 ca        1 X2K      0.108600
     13 NAC         0.1790    0.0000   -7.5760 nh        1 X2K     -0.810200
     14 CAF         2.4020   -1.0120   -7.6640 ca        1 X2K     -0.164000
     15 CAG         3.5940   -1.4050   -7.0510 ca        1 X2K     -0.124000
     16 CAR         3.7070   -1.2650   -5.6740 ca        1 X2K      0.013600
     17 NAK         4.7750   -1.5870   -4.8160 n         1 X2K     -0.471100
     18 CAP         4.4350   -1.2600   -3.4890 c         1 X2K      0.723700
     19 OAD         5.2270   -1.4430   -2.5490 o         1 X2K     -0.657500
     20 HAB1        0.2530    1.7230   -1.1340 hc        1 X2K      0.043367
     21 HAB2       -0.4200    0.0550   -0.9090 hc        1 X2K      0.043367
     22 HAB3       -0.3090    1.1860    0.5050 hc        1 X2K      0.043367
     23 HAH         1.7130    0.5840    2.0940 ha        1 X2K      0.154000
     24 HAA1        4.7240   -1.6180    2.0470 hc        1 X2K      0.053700
     25 HAA2        4.0490   -0.2350    3.0130 hc        1 X2K      0.053700
     26 HAA3        5.3930    0.0540    1.8250 hc        1 X2K      0.053700
     27 HAJ         4.4630   -0.9070   -0.7740 hn        1 X2K      0.333700
     28 HAE         1.2550    0.1150   -2.7630 ha        1 X2K      0.140000
     29 HAI         0.6200    0.0760   -4.9230 ha        1 X2K      0.135000
     30 HAC1       -0.6350    0.0020   -7.0010 hn        1 X2K      0.383300
     31 HAC2        0.0180   -0.4250   -8.4630 hn        1 X2K      0.383300
     32 HAF         2.3160   -1.1210   -8.7570 ha        1 X2K      0.134000
     33 HAG         4.4140   -1.8150   -7.6550 ha        1 X2K      0.138000
     34 HAK         5.6480   -1.9340   -5.1100 hn        1 X2K      0.340500
@<TRIPOS>BOND
     1    1    2 1   
     2    1   20 1   
     3    1   21 1   
     4    1   22 1   
     5    2    3 1   
     6    2    7 2   
     7    3    4 2   
     8    3   23 1   
     9    4    5 1   
    10    4    6 1   
    11    5   24 1   
    12    5   25 1   
    13    5   26 1   
    14    6    7 1   
    15    6   27 1   
    16    7    8 1   
    17    8    9 2   
    18    8   28 1   
    19    9   10 1   
    20    9   18 1   
    21   10   11 ar  
    22   10   16 ar  
    23   11   12 ar  
    24   11   29 1   
    25   12   13 1   
    26   12   14 ar  
    27   13   30 1   
    28   13   31 1   
    29   14   15 ar  
    30   14   32 1   
    31   15   16 ar  
    32   15   33 1   
    33   16   17 1   
    34   17   18 1   
    35   17   34 1   
    36   18   19 2   
@<TRIPOS>SUBSTRUCTURE
     1 X2K         1 TEMP              0 ****  ****    0 ROOT
