@<TRIPOS>MOLECULE
X2K
   34    29     1     0     0
SMALL
bcc


@<TRIPOS>ATOM
      1 CAB        -1.9090   -0.6910    2.7730 c3        1 X2K     -0.158000
      2 CAN        -0.5710    0.0130    2.8390 c2        1 X2K     -0.081000
      3 CAH         0.1570    0.2400    3.9640 c1        1 X2K     -0.212000
      4 CAL         1.2840    0.9460    3.6050 c1        1 X2K     -0.045000
      5 CAA         2.3520    1.4560    4.5490 c2        1 X2K     -0.164000
      6 NAJ         1.2420    1.1510    2.2570 n2        1 X2K     -0.131000
      7 CAO         0.1010    0.5780    1.7780 c1        1 X2K     -0.116000
      8 CAE        -0.3830    0.6260    0.3450 c1        1 X2K      0.045000
      9 CAQ         0.1460   -0.2070   -0.5730 c1        1 X2K     -0.169000
     10 CAS        -0.2240   -0.2730   -2.0100 c1        1 X2K     -0.048000
     11 CAI        -1.1480    0.4420   -2.7710 c2        1 X2K     -0.138000
     12 CAM        -1.2940    0.1690   -4.1290 c1        1 X2K      0.027000
     13 NAC        -2.1730    0.9470   -4.9230 n2        1 X2K     -0.319000
     14 CAF        -0.5120   -0.8250   -4.7320 c2        1 X2K     -0.164000
     15 CAG         0.4120   -1.5420   -3.9740 c1        1 X2K     -0.124000
     16 CAR         0.5590   -1.2690   -2.6140 c1        1 X2K      0.021000
     17 NAK         1.4500   -1.8610   -1.5650 n         1 X2K     -0.325000
     18 CAP         1.1820   -1.1980   -0.3320 c2        1 X2K      0.362000
     19 OAD         1.6880   -1.4550    0.7410 o         1 X2K     -0.382000
     20 HAB1       -2.6070   -0.0450    2.5330 hc        1 X2K      0.082667
     21 HAB2       -1.8730   -1.3990    2.0950 hc        1 X2K      0.082667
     22 HAB3       -2.1150   -1.0850    3.6470 hc        1 X2K      0.082667
     23 HAH        -0.0940   -0.0180    4.8710 DU        1 X2K      0.219000
     24 HAA1        2.9580    0.7220    4.7840 ha        1 X2K      0.093000
     25 HAA2        1.9290    1.8030    5.3630 ha        1 X2K      0.093000
     26 HAA3        2.8590    2.1720    4.1130 ha        1 X2K      0.093000
     27 HAJ         1.8680    1.5930    1.7630 DU        1 X2K      0.219000
     28 HAE        -1.0700    1.2670    0.0830 ha        1 X2K      0.140000
     29 HAI        -1.7030    1.1260   -2.3490 ha        1 X2K      0.135000
     30 HAC1       -2.3520    0.6980   -5.7840 hn        1 X2K      0.178500
     31 HAC2       -2.5610    1.6970   -4.5730 hn        1 X2K      0.178500
     32 HAF        -0.6140   -1.0170   -5.6840 ha        1 X2K      0.134000
     33 HAG         0.9570   -2.2340   -4.3940 ha        1 X2K      0.138000
     34 HAK         2.0590   -2.5270   -1.6940 hn        1 X2K      0.254000
@<TRIPOS>BOND
     1    1    2 1   
     2    1   20 1   
     3    1   21 1   
     4    1   22 1   
     5    2    3 1   
     6    2    7 1   
     7    3    4 1   
     8    4    6 1   
     9    5   24 1   
    10    5   25 1   
    11    5   26 1   
    12    6    7 1   
    13    8    9 1   
    14    8   28 1   
    15    9   18 1   
    16   10   11 1   
    17   10   16 1   
    18   11   12 1   
    19   11   29 1   
    20   12   14 1   
    21   13   30 1   
    22   13   31 1   
    23   14   15 1   
    24   14   32 1   
    25   15   33 1   
    26   16   17 1   
    27   17   18 1   
    28   17   34 1   
    29   18   19 1   
@<TRIPOS>SUBSTRUCTURE
     1 X2K         1 TEMP              0 ****  ****    0 ROOT
