@<TRIPOS>MOLECULE
X2K
   34    36     1     0     0
SMALL
bcc


@<TRIPOS>ATOM
      1 CAB         2.5170    3.0140    0.0730 c3        1 X2K     -0.032800
      2 CAN         2.9060    1.6060   -0.0080 cc        1 X2K     -0.088300
      3 CAH         4.2340    1.0990   -0.0540 cc        1 X2K     -0.212000
      4 CAL         4.1460   -0.3120   -0.1290 cd        1 X2K     -0.076600
      5 CAA         5.2570   -1.2780   -0.1970 c3        1 X2K     -0.038800
      6 NAJ         2.8100   -0.6700   -0.1300 na        1 X2K     -0.132100
      7 CAO         2.0240    0.4840   -0.0560 cd        1 X2K     -0.152100
      8 CAE         0.6000    0.5650   -0.0320 cf        1 X2K      0.056800
      9 CAQ        -0.3580   -0.3810   -0.0700 cc        1 X2K     -0.176400
     10 CAS        -1.8010   -0.0920   -0.0330 ca        1 X2K     -0.059800
     11 CAI        -2.4960    1.0950    0.0450 ca        1 X2K     -0.138000
     12 CAM        -3.9170    1.0680    0.0580 ca        1 X2K      0.108600
     13 NAC        -4.6400    2.2710    0.0400 nh        1 X2K     -0.810200
     14 CAF        -4.5870   -0.1720    0.0040 ca        1 X2K     -0.164000
     15 CAG        -3.8920   -1.3810   -0.0750 ca        1 X2K     -0.124000
     16 CAR        -2.5030   -1.3460   -0.0930 ca        1 X2K      0.013600
     17 NAK        -1.5720   -2.3980   -0.1560 n         1 X2K     -0.471100
     18 CAP        -0.2630   -1.8780   -0.1570 c         1 X2K      0.723700
     19 OAD         0.7330   -2.6180   -0.2190 o         1 X2K     -0.657500
     20 HAB1        1.8930    3.3040   -0.8110 hc        1 X2K      0.043367
     21 HAB2        1.9180    3.2070    1.0000 hc        1 X2K      0.043367
     22 HAB3        3.4210    3.6720    0.0960 hc        1 X2K      0.043367
     23 HAH         5.1510    1.6800   -0.0350 ha        1 X2K      0.154000
     24 HAA1        5.2300   -1.9810    0.6730 hc        1 X2K      0.053700
     25 HAA2        5.2050   -1.8820   -1.1380 hc        1 X2K      0.053700
     26 HAA3        6.2290   -0.7260   -0.1810 hc        1 X2K      0.053700
     27 HAJ         2.4600   -1.5990   -0.1770 hn        1 X2K      0.333700
     28 HAE         0.2500    1.6200    0.0290 ha        1 X2K      0.140000
     29 HAI        -1.9590    2.0540    0.0870 ha        1 X2K      0.135000
     30 HAC1       -4.1500    3.0380    0.4460 hn        1 X2K      0.383300
     31 HAC2       -5.5700    2.1840    0.3900 hn        1 X2K      0.383300
     32 HAF        -5.6880   -0.2030    0.0150 ha        1 X2K      0.134000
     33 HAG        -4.4420   -2.3300   -0.1210 ha        1 X2K      0.138000
     34 HAK        -1.8040   -3.3510   -0.2450 hn        1 X2K      0.340500
@<TRIPOS>BOND
     1    1    2 1   
     2    1   20 1   
     3    1   21 1   
     4    1   22 1   
     5    2    3 1   
     6    2    7 2   
     7    3    4 2   
     8    3   23 1   
     9    4    5 1   
    10    4    6 1   
    11    5   24 1   
    12    5   25 1   
    13    5   26 1   
    14    6    7 1   
    15    6   27 1   
    16    7    8 1   
    17    8    9 2   
    18    8   28 1   
    19    9   10 1   
    20    9   18 1   
    21   10   11 ar  
    22   10   16 ar  
    23   11   12 ar  
    24   11   29 1   
    25   12   13 1   
    26   12   14 ar  
    27   13   30 1   
    28   13   31 1   
    29   14   15 ar  
    30   14   32 1   
    31   15   16 ar  
    32   15   33 1   
    33   16   17 1   
    34   17   18 1   
    35   17   34 1   
    36   18   19 2   
@<TRIPOS>SUBSTRUCTURE
     1 X2K         1 TEMP              0 ****  ****    0 ROOT
