@<TRIPOS>MOLECULE
X2K
   35    37     1     0     0
SMALL
bcc


@<TRIPOS>ATOM
      1 CAB         0.2130    0.8720   -0.4550 c3        1 X2K     -0.047800
      2 CAN         1.5500    0.3650   -0.1440 cc        1 X2K     -0.033300
      3 CAH         2.1450    0.2910    1.1330 cc        1 X2K     -0.215000
      4 CAL         3.4480   -0.2650    0.9670 cd        1 X2K     -0.011600
      5 CAA         4.4400   -0.5310    2.0250 c3        1 X2K     -0.058800
      6 NAJ         3.6500   -0.5250   -0.3680 na        1 X2K     -0.127100
      7 CAO         2.5040   -0.1520   -1.0940 cd        1 X2K     -0.200100
      8 CAE         2.2830   -0.2460   -2.4810 cf        1 X2K      0.123800
      9 CAQ         3.0610   -0.7000   -3.5000 cc        1 X2K     -0.257400
     10 CAS         2.6500   -0.7190   -4.9040 ca        1 X2K     -0.045800
     11 CAI         1.4920   -0.3280   -5.5340 ca        1 X2K     -0.087000
     12 CAM         1.4110   -0.4810   -6.9400 ca        1 X2K     -0.137400
     13 NAC         0.1830   -0.0680   -7.6150 n4        1 X2K     -0.687000
     14 CAF         2.4700   -1.0150   -7.6910 ca        1 X2K     -0.060000
     15 CAG         3.6470   -1.4150   -7.0650 ca        1 X2K     -0.164000
     16 CAR         3.7510   -1.2730   -5.6780 ca        1 X2K      0.122600
     17 NAK         4.7950   -1.5880   -4.8280 n         1 X2K     -0.456100
     18 CAP         4.4390   -1.2620   -3.4790 c         1 X2K      0.734700
     19 OAD         5.2310   -1.4640   -2.5520 o         1 X2K     -0.603500
     20 HAB1       -0.4100    0.0750   -0.9350 hc        1 X2K      0.053367
     21 HAB2        0.2740    1.7430   -1.1570 hc        1 X2K      0.053367
     22 HAB3       -0.3070    1.2090    0.4770 hc        1 X2K      0.053367
     23 HAH         1.7080    0.5960    2.0800 ha        1 X2K      0.172000
     24 HAA1        5.3820    0.0470    1.8430 hc        1 X2K      0.070033
     25 HAA2        4.0190   -0.2260    3.0140 hc        1 X2K      0.070033
     26 HAA3        4.6970   -1.6200    2.0660 hc        1 X2K      0.070033
     27 HAJ         4.4740   -0.9160   -0.7630 hn        1 X2K      0.336700
     28 HAE         1.2750    0.1290   -2.7700 ha        1 X2K      0.133000
     29 HAI         0.6550    0.0920   -4.9550 ha        1 X2K      0.148000
     30 HAC1       -0.6100   -0.6030   -7.2440 hn        1 X2K      0.456133
     31 HAC2        0.0200    0.9310   -7.4500 hn        1 X2K      0.456133
     32 HAF         2.3930   -1.1300   -8.7860 ha        1 X2K      0.150000
     33 HAG         4.4740   -1.8330   -7.6600 ha        1 X2K      0.173000
     34 HAK         5.6610   -1.9800   -5.1020 hn        1 X2K      0.360500
     35 HAC3        0.2620   -0.2350   -8.6230 hn        1 X2K      0.456133
@<TRIPOS>BOND
     1    1    2 1   
     2    1   20 1   
     3    1   21 1   
     4    1   22 1   
     5    2    3 1   
     6    2    7 2   
     7    3    4 2   
     8    3   23 1   
     9    4    5 1   
    10    4    6 1   
    11    5   24 1   
    12    5   25 1   
    13    5   26 1   
    14    6    7 1   
    15    6   27 1   
    16    7    8 1   
    17    8    9 2   
    18    8   28 1   
    19    9   10 1   
    20    9   18 1   
    21   10   11 ar  
    22   10   16 ar  
    23   11   12 ar  
    24   11   29 1   
    25   12   13 1   
    26   12   14 ar  
    27   13   30 1   
    28   13   31 1   
    29   13   35 1   
    30   14   15 ar  
    31   14   32 1   
    32   15   16 ar  
    33   15   33 1   
    34   16   17 1   
    35   17   18 1   
    36   17   34 1   
    37   18   19 2   
@<TRIPOS>SUBSTRUCTURE
     1 X2K         1 TEMP              0 ****  ****    0 ROOT
