@<TRIPOS>MOLECULE
X2L
   34    36     1     0     0
SMALL
bcc


@<TRIPOS>ATOM
      1 CAH        -2.1890   -1.6590   -0.4780 ca        1 X2L     -0.058500
      2 CAO        -3.5740   -1.6500   -0.4990 ca        1 X2L     -0.190000
      3 CAM        -4.2630   -0.5620    0.0740 ca        1 X2L      0.144100
      4 OAB        -5.6380   -0.6490    0.0090 os        1 X2L     -0.325900
      5 CAP        -3.5600    0.4970    0.6580 ca        1 X2L     -0.190000
      6 CAI        -2.1660    0.4750    0.6600 ca        1 X2L     -0.058500
      7 CAQ        -1.4630   -0.5930    0.0920 ca        1 X2L     -0.127800
      8 CAF        -0.0180   -0.6850    0.1010 ce        1 X2L      0.014800
      9 CAS         0.9140    0.2770    0.0230 cd        1 X2L     -0.133400
     10 CAU         2.3680    0.0380    0.0420 ca        1 X2L     -0.076800
     11 CAK         3.1020   -1.1200    0.1760 ca        1 X2L     -0.130000
     12 CAN         4.5220   -1.0460    0.1590 ca        1 X2L      0.102600
     13 CAG         5.1480    0.2060   -0.0070 ca        1 X2L     -0.157000
     14 CAJ         4.4120    1.3850   -0.1420 ca        1 X2L     -0.131000
     15 CAT         3.0250    1.3080   -0.1190 ca        1 X2L      0.024600
     16 CAA        -6.3640    0.4530    0.5440 c3        1 X2L      0.112700
     17 NAL         2.0600    2.3230   -0.2360 n         1 X2L     -0.480100
     18 CAR         0.7650    1.7690   -0.1420 c         1 X2L      0.713700
     19 NAB         5.2850   -2.2020    0.3920 nh        1 X2L     -0.809200
     20 OAA        -0.2560    2.4650   -0.2000 o         1 X2L     -0.614500
     21 HAH        -1.6470   -2.5090   -0.9220 ha        1 X2L      0.146500
     22 HAO        -4.1440   -2.4720   -0.9530 ha        1 X2L      0.147000
     23 HAP        -4.0870    1.3490    1.1090 ha        1 X2L      0.147000
     24 HAA1       -7.4320    0.1730    0.3620 h1        1 X2L      0.046367
     25 HAA2       -6.1650    0.5600    1.6390 h1        1 X2L      0.046367
     26 HAA3       -6.1050    1.3960    0.0050 h1        1 X2L      0.046367
     27 HAI        -1.6160    1.3180    1.1120 ha        1 X2L      0.146500
     28 HAF         0.3550   -1.7310    0.1670 ha        1 X2L      0.128000
     29 HAK         2.5970   -2.0880    0.3040 ha        1 X2L      0.136000
     30 HAG         6.2470    0.2730   -0.0230 ha        1 X2L      0.134000
     31 HAB1        4.8240   -3.0450    0.1260 hn        1 X2L      0.382800
     32 HAB2        6.2130   -2.1460    0.0310 hn        1 X2L      0.382800
     33 HAJ         4.9300    2.3460   -0.2640 ha        1 X2L      0.139000
     34 HAL         2.2620    3.2820   -0.3350 hn        1 X2L      0.340500
@<TRIPOS>BOND
     1    1    2 ar  
     2    1    7 ar  
     3    1   21 1   
     4    2    3 ar  
     5    2   22 1   
     6    3    4 1   
     7    3    5 ar  
     8    4   16 1   
     9    5    6 ar  
    10    5   23 1   
    11    6    7 ar  
    12    6   27 1   
    13    7    8 1   
    14    8    9 2   
    15    8   28 1   
    16    9   10 1   
    17    9   18 1   
    18   10   11 ar  
    19   10   15 ar  
    20   11   12 ar  
    21   11   29 1   
    22   12   13 ar  
    23   12   19 1   
    24   13   14 ar  
    25   13   30 1   
    26   14   15 ar  
    27   14   33 1   
    28   15   17 1   
    29   16   24 1   
    30   16   25 1   
    31   16   26 1   
    32   17   18 1   
    33   17   34 1   
    34   18   20 2   
    35   19   31 1   
    36   19   32 1   
@<TRIPOS>SUBSTRUCTURE
     1 X2L         1 TEMP              0 ****  ****    0 ROOT
