@<TRIPOS>MOLECULE
X2L
   35    37     1     0     0
SMALL
bcc


@<TRIPOS>ATOM
      1 CAH        -0.1530    0.2180    0.2830 ca        1 X2L     -0.038000
      2 CAO         1.2070    0.3350    0.0690 ca        1 X2L     -0.195500
      3 CAM         2.0950    0.1670    1.1570 ca        1 X2L      0.184100
      4 OAB         3.4220    0.3060    0.8440 os        1 X2L     -0.311900
      5 CAP         1.5990   -0.1100    2.4390 ca        1 X2L     -0.195500
      6 CAI         0.2270   -0.2380    2.6320 ca        1 X2L     -0.038000
      7 CAQ        -0.6700   -0.0860    1.5650 ca        1 X2L     -0.176800
      8 CAF        -2.0990   -0.1800    1.7020 ce        1 X2L      0.095800
      9 CAS        -2.8620   -0.8670    2.5770 cd        1 X2L     -0.200400
     10 CAU        -4.3300   -0.8370    2.6020 ca        1 X2L     -0.072800
     11 CAK        -5.2480   -0.1330    1.8610 ca        1 X2L     -0.068000
     12 CAN        -6.6240   -0.3310    2.1360 ca        1 X2L     -0.148400
     13 CAG        -7.0580   -1.2180    3.1350 ca        1 X2L     -0.047000
     14 CAJ        -6.1380   -1.9360    3.8920 ca        1 X2L     -0.171000
     15 CAT        -4.7720   -1.7560    3.6390 ca        1 X2L      0.137600
     16 CAA         4.3550    0.1240    1.9090 c3        1 X2L      0.107700
     17 NAL        -3.6750   -2.3340    4.2430 n         1 X2L     -0.462100
     18 CAR        -2.4660   -1.8340    3.6490 c         1 X2L      0.722700
     19 NAB        -7.6060    0.4130    1.3530 n4        1 X2L     -0.685000
     20 OAA        -1.3640   -2.2200    4.0340 o         1 X2L     -0.547500
     21 HAH        -0.8450    0.3510   -0.5640 ha        1 X2L      0.146000
     22 HAO         1.6150    0.5560   -0.9280 ha        1 X2L      0.160000
     23 HAP         2.2800   -0.2340    3.2930 ha        1 X2L      0.160000
     24 HAA1        4.1960    0.8930    2.7030 h1        1 X2L      0.056700
     25 HAA2        5.3450    0.2690    1.4060 h1        1 X2L      0.056700
     26 HAA3        4.2710   -0.9070    2.3310 h1        1 X2L      0.056700
     27 HAI        -0.1480   -0.4520    3.6460 ha        1 X2L      0.146000
     28 HAF        -2.6520    0.4080    0.9360 ha        1 X2L      0.121000
     29 HAK        -4.9160    0.5660    1.0770 ha        1 X2L      0.151000
     30 HAG        -8.1330   -1.3650    3.3390 ha        1 X2L      0.151000
     31 HAB1       -7.5230    0.1570    0.3630 hn        1 X2L      0.457133
     32 HAB2       -7.4350    1.4200    1.4540 hn        1 X2L      0.457133
     33 HAJ        -6.4860   -2.6290    4.6730 ha        1 X2L      0.175000
     34 HAL        -3.7070   -3.0020    4.9730 hn        1 X2L      0.361500
     35 HAB3       -8.5540    0.1980    1.6790 hn        1 X2L      0.457133
@<TRIPOS>BOND
     1    1    2 ar  
     2    1    7 ar  
     3    1   21 1   
     4    2    3 ar  
     5    2   22 1   
     6    3    4 1   
     7    3    5 ar  
     8    4   16 1   
     9    5    6 ar  
    10    5   23 1   
    11    6    7 ar  
    12    6   27 1   
    13    7    8 1   
    14    8    9 2   
    15    8   28 1   
    16    9   10 1   
    17    9   18 1   
    18   10   11 ar  
    19   10   15 ar  
    20   11   12 ar  
    21   11   29 1   
    22   12   13 ar  
    23   12   19 1   
    24   13   14 ar  
    25   13   30 1   
    26   14   15 ar  
    27   14   33 1   
    28   15   17 1   
    29   16   24 1   
    30   16   25 1   
    31   16   26 1   
    32   17   18 1   
    33   17   34 1   
    34   18   20 2   
    35   19   31 1   
    36   19   32 1   
    37   19   35 1   
@<TRIPOS>SUBSTRUCTURE
     1 X2L         1 TEMP              0 ****  ****    0 ROOT
