@<TRIPOS>MOLECULE
X2L
   34    36     1     0     0
SMALL
bcc


@<TRIPOS>ATOM
      1 CAH        -0.1360    0.1130    0.2480 ca        1 X2L     -0.058500
      2 CAO         1.2300    0.2020    0.0380 ca        1 X2L     -0.190000
      3 CAM         2.1030    0.1100    1.1420 ca        1 X2L      0.144100
      4 OAB         3.4420    0.2160    0.8320 os        1 X2L     -0.325900
      5 CAP         1.5970   -0.0690    2.4340 ca        1 X2L     -0.190000
      6 CAI         0.2190   -0.1660    2.6240 ca        1 X2L     -0.058500
      7 CAQ        -0.6630   -0.0820    1.5410 ca        1 X2L     -0.127800
      8 CAF        -2.1030   -0.1390    1.6840 ce        1 X2L      0.014800
      9 CAS        -2.8630   -0.8220    2.5530 cd        1 X2L     -0.133400
     10 CAU        -4.3350   -0.7880    2.5850 ca        1 X2L     -0.076800
     11 CAK        -5.2490   -0.0810    1.8360 ca        1 X2L     -0.130000
     12 CAN        -6.6370   -0.2500    2.0950 ca        1 X2L      0.102600
     13 CAG        -7.0490   -1.1460    3.1030 ca        1 X2L     -0.157000
     14 CAJ        -6.1290   -1.8660    3.8690 ca        1 X2L     -0.131000
     15 CAT        -4.7740   -1.6920    3.6150 ca        1 X2L      0.024600
     16 CAA         4.3520    0.0860    1.9200 c3        1 X2L      0.112700
     17 NAL        -3.6560   -2.2870    4.2240 n         1 X2L     -0.480100
     18 CAR        -2.4710   -1.7920    3.6400 c         1 X2L      0.713700
     19 NAB        -7.5780    0.5350    1.4090 nh        1 X2L     -0.809200
     20 OAA        -1.3480   -2.1520    4.0180 o         1 X2L     -0.614500
     21 HAH        -0.8200    0.1890   -0.6120 ha        1 X2L      0.146500
     22 HAO         1.6470    0.3420   -0.9690 ha        1 X2L      0.147000
     23 HAP         2.2670   -0.1410    3.3020 ha        1 X2L      0.147000
     24 HAA1        4.2420   -0.9120    2.4090 h1        1 X2L      0.046367
     25 HAA2        4.1960    0.9060    2.6620 h1        1 X2L      0.046367
     26 HAA3        5.3550    0.1800    1.4320 h1        1 X2L      0.046367
     27 HAI        -0.1730   -0.3180    3.6430 ha        1 X2L      0.146500
     28 HAF        -2.6430    0.4790    0.9340 ha        1 X2L      0.128000
     29 HAK        -4.9100    0.6150    1.0540 ha        1 X2L      0.136000
     30 HAG        -8.1210   -1.2850    3.3090 ha        1 X2L      0.134000
     31 HAB1       -8.4900    0.1330    1.3840 hn        1 X2L      0.382800
     32 HAB2       -7.2690    0.8310    0.5080 hn        1 X2L      0.382800
     33 HAJ        -6.4820   -2.5530    4.6500 ha        1 X2L      0.139000
     34 HAL        -3.6980   -2.9270    4.9710 hn        1 X2L      0.340500
@<TRIPOS>BOND
     1    1    2 ar  
     2    1    7 ar  
     3    1   21 1   
     4    2    3 ar  
     5    2   22 1   
     6    3    4 1   
     7    3    5 ar  
     8    4   16 1   
     9    5    6 ar  
    10    5   23 1   
    11    6    7 ar  
    12    6   27 1   
    13    7    8 1   
    14    8    9 2   
    15    8   28 1   
    16    9   10 1   
    17    9   18 1   
    18   10   11 ar  
    19   10   15 ar  
    20   11   12 ar  
    21   11   29 1   
    22   12   13 ar  
    23   12   19 1   
    24   13   14 ar  
    25   13   30 1   
    26   14   15 ar  
    27   14   33 1   
    28   15   17 1   
    29   16   24 1   
    30   16   25 1   
    31   16   26 1   
    32   17   18 1   
    33   17   34 1   
    34   18   20 2   
    35   19   31 1   
    36   19   32 1   
@<TRIPOS>SUBSTRUCTURE
     1 X2L         1 TEMP              0 ****  ****    0 ROOT
