@<TRIPOS>MOLECULE
X2L
   34    30     1     0     0
SMALL
bcc


@<TRIPOS>ATOM
      1 CAH         2.0310   -0.5030   -1.3010 c1        1 X2L     -0.047000
      2 CAO         3.4410   -0.5240   -1.3510 c1        1 X2L     -0.164000
      3 CAM         4.1850   -0.5600   -0.1620 c1        1 X2L      0.098000
      4 OAB         5.6500   -0.5530   -0.2130 o         1 X2L     -0.207000
      5 CAP         3.5240   -0.5750    1.0820 c2        1 X2L     -0.215000
      6 CAI         2.1160   -0.5550    1.1330 c1        1 X2L     -0.072000
      7 CAQ         1.3700   -0.5180   -0.0590 c1        1 X2L     -0.114000
      8 CAF        -0.1670   -0.6280   -0.0090 c2        1 X2L      0.001000
      9 CAS        -0.9400    0.5130   -0.0400 c1        1 X2L     -0.125000
     10 CAU        -2.4230    0.5680    0.0640 c1        1 X2L     -0.065000
     11 CAK        -3.3890   -0.4230    0.1930 c2        1 X2L     -0.130000
     12 CAN        -4.7430   -0.0730    0.2700 c1        1 X2L      0.020000
     13 CAG        -5.1250    1.2780    0.2180 c1        1 X2L     -0.143500
     14 CAJ        -4.1640    2.2660    0.0900 c1        1 X2L     -0.143500
     15 CAT        -2.8110    1.9220    0.0120 c1        1 X2L      0.033000
     16 CAA         6.2450   -1.8820   -0.2860 c3        1 X2L     -0.077000
     17 NAL        -1.5720    2.7610   -0.1280 n         1 X2L     -0.334000
     18 CAR        -0.4450    1.8900   -0.1190 c2        1 X2L      0.351000
     19 NAB        -5.7790   -0.9670    0.5480 n3        1 X2L     -0.318000
     20 OAA         0.7070    2.2220   -0.2300 o         1 X2L     -0.335000
     21 HAH         1.5120   -0.4780   -2.1310 ha        1 X2L      0.162000
     22 HAO         3.9050   -0.5120   -2.2250 ha        1 X2L      0.155000
     23 HAP         4.0440   -0.6000    1.9120 ha        1 X2L      0.138000
     24 HAA1        6.2880   -2.2690    0.6120 h1        1 X2L      0.085000
     25 HAA2        7.1580   -1.8150   -0.6600 h1        1 X2L      0.085000
     26 HAA3        5.7050   -2.4470   -0.8550 h1        1 X2L      0.085000
     27 HAI         1.6640   -0.5650    1.9830 ha        1 X2L      0.130000
     28 HAF        -0.5900   -1.5000   -0.0380 ha        1 X2L      0.128000
     29 HAK        -3.1230   -1.3650    0.2290 ha        1 X2L      0.136000
     30 HAG        -6.0790    1.5230    0.2730 ha        1 X2L      0.136500
     31 HAB1       -5.5950   -1.8550    0.6770 hn        1 X2L      0.177500
     32 HAB2       -6.6250   -0.6650    0.6290 hn        1 X2L      0.177500
     33 HAJ        -4.4310    3.2060    0.0540 ha        1 X2L      0.136500
     34 HAL        -1.5440    3.6810   -0.1720 hn        1 X2L      0.254000
@<TRIPOS>BOND
     1    1    7 1   
     2    1   21 1   
     3    2    3 1   
     4    2   22 1   
     5    3    5 1   
     6    4   16 1   
     7    5    6 1   
     8    5   23 1   
     9    6   27 1   
    10    7    8 1   
    11    8    9 1   
    12    8   28 1   
    13    9   18 1   
    14   10   11 1   
    15   10   15 1   
    16   11   12 1   
    17   11   29 1   
    18   12   19 1   
    19   13   14 1   
    20   13   30 1   
    21   14   33 1   
    22   15   17 1   
    23   16   24 1   
    24   16   25 1   
    25   16   26 1   
    26   17   18 1   
    27   17   34 1   
    28   18   20 1   
    29   19   31 1   
    30   19   32 1   
@<TRIPOS>SUBSTRUCTURE
     1 X2L         1 TEMP              0 ****  ****    0 ROOT
