@<TRIPOS>MOLECULE
X2L
   34    36     1     0     0
SMALL
bcc


@<TRIPOS>ATOM
      1 CAH        -0.1380    0.1060    0.2440 ca        1 X2L     -0.058500
      2 CAO         1.2290    0.1920    0.0330 ca        1 X2L     -0.190000
      3 CAM         2.1020    0.1030    1.1360 ca        1 X2L      0.144100
      4 OAB         3.4420    0.2070    0.8240 os        1 X2L     -0.325900
      5 CAP         1.5970   -0.0710    2.4290 ca        1 X2L     -0.190000
      6 CAI         0.2200   -0.1670    2.6200 ca        1 X2L     -0.058500
      7 CAQ        -0.6630   -0.0850    1.5380 ca        1 X2L     -0.127800
      8 CAF        -2.1030   -0.1400    1.6830 ce        1 X2L      0.014800
      9 CAS        -2.8630   -0.8210    2.5550 cd        1 X2L     -0.133400
     10 CAU        -4.3350   -0.7850    2.5890 ca        1 X2L     -0.076800
     11 CAK        -5.2490   -0.0790    1.8390 ca        1 X2L     -0.130000
     12 CAN        -6.6370   -0.2460    2.1000 ca        1 X2L      0.102600
     13 CAG        -7.0480   -1.1390    3.1110 ca        1 X2L     -0.157000
     14 CAJ        -6.1280   -1.8580    3.8770 ca        1 X2L     -0.131000
     15 CAT        -4.7730   -1.6860    3.6210 ca        1 X2L      0.024600
     16 CAA         4.3520    0.0810    1.9120 c3        1 X2L      0.112700
     17 NAL        -3.6550   -2.2800    4.2310 ns        1 X2L     -0.480100
     18 CAR        -2.4700   -1.7870    3.6440 c         1 X2L      0.713700
     19 NAB        -7.5780    0.5370    1.4120 nv        1 X2L     -0.809200
     20 OAA        -1.3470   -2.1480    4.0210 o         1 X2L     -0.614500
     21 HAH        -0.8230    0.1790   -0.6150 ha        1 X2L      0.146500
     22 HAO         1.6440    0.3300   -0.9750 ha        1 X2L      0.147000
     23 HAP         2.2680   -0.1410    3.2960 ha        1 X2L      0.147000
     24 HAA1        4.1970    0.9040    2.6510 h1        1 X2L      0.046367
     25 HAA2        4.2430   -0.9150    2.4040 h1        1 X2L      0.046367
     26 HAA3        5.3540    0.1730    1.4220 h1        1 X2L      0.046367
     27 HAI        -0.1720   -0.3150    3.6400 ha        1 X2L      0.146500
     28 HAF        -2.6440    0.4750    0.9320 ha        1 X2L      0.128000
     29 HAK        -4.9110    0.6140    1.0540 ha        1 X2L      0.136000
     30 HAG        -8.1210   -1.2770    3.3190 ha        1 X2L      0.134000
     31 HAB1       -8.4910    0.1360    1.3900 hn        1 X2L      0.382800
     32 HAB2       -7.2700    0.8310    0.5110 hn        1 X2L      0.382800
     33 HAJ        -6.4810   -2.5420    4.6610 ha        1 X2L      0.139000
     34 HAL        -3.6960   -2.9190    4.9800 hn        1 X2L      0.340500
@<TRIPOS>BOND
     1    1    2 ar  
     2    1    7 ar  
     3    1   21 1   
     4    2    3 ar  
     5    2   22 1   
     6    3    4 1   
     7    3    5 ar  
     8    4   16 1   
     9    5    6 ar  
    10    5   23 1   
    11    6    7 ar  
    12    6   27 1   
    13    7    8 1   
    14    8    9 2   
    15    8   28 1   
    16    9   10 1   
    17    9   18 1   
    18   10   11 ar  
    19   10   15 ar  
    20   11   12 ar  
    21   11   29 1   
    22   12   13 ar  
    23   12   19 1   
    24   13   14 ar  
    25   13   30 1   
    26   14   15 ar  
    27   14   33 1   
    28   15   17 1   
    29   16   24 1   
    30   16   25 1   
    31   16   26 1   
    32   17   18 1   
    33   17   34 1   
    34   18   20 2   
    35   19   31 1   
    36   19   32 1   
@<TRIPOS>SUBSTRUCTURE
     1 X2L         1 TEMP              0 ****  ****    0 ROOT
