@<TRIPOS>MOLECULE
X2M
   32    34     1     0     0
SMALL
bcc


@<TRIPOS>ATOM
      1 C3         -0.2370   -0.5950    0.2910 c         1 X2M      0.724700
      2 C5          1.1790   -0.1440    0.0810 cc        1 X2M     -0.175400
      3 C6          0.6690   -0.2290    2.3780 ca        1 X2M      0.054600
      4 C7          1.7140    0.0760    1.4330 ca        1 X2M     -0.095800
      5 C8          2.9510    0.4910    1.8880 ca        1 X2M     -0.084000
      6 C9          3.1620    0.6080    3.2690 ca        1 X2M     -0.159000
      7 C10         2.1490    0.3120    4.1760 ca        1 X2M     -0.099000
      8 C11         0.8850   -0.1110    3.7470 ca        1 X2M     -0.164000
      9 C19         1.8880    0.0460   -1.0480 cf        1 X2M      0.055800
     10 C21         1.5510   -0.1110   -2.4250 cd        1 X2M     -0.153100
     11 O4         -1.1150   -0.9070   -0.5300 o         1 X2M     -0.651500
     12 N1         -0.4830   -0.6250    1.6810 n         1 X2M     -0.475100
     13 C26         2.4380    0.1380   -3.5160 cc        1 X2M     -0.086300
     14 C25         1.7210   -0.1360   -4.7130 cc        1 X2M     -0.212000
     15 C24         0.4170   -0.5450   -4.3410 cd        1 X2M     -0.075600
     16 N22         0.3270   -0.5260   -2.9600 na        1 X2M     -0.133100
     17 CAB         3.8270    0.5900   -3.4210 c3        1 X2M     -0.033800
     18 CAA        -0.6900   -0.9340   -5.2320 c3        1 X2M     -0.038800
     19 H1         -1.3350   -0.8860    2.1000 hn        1 X2M      0.341500
     20 H19         2.9390    0.3900   -0.9190 ha        1 X2M      0.141000
     21 H11         0.0950   -0.3410    4.4750 ha        1 X2M      0.139000
     22 H8          3.7620    0.7290    1.1840 ha        1 X2M      0.134000
     23 H9          4.1450    0.9380    3.6370 ha        1 X2M      0.134000
     24 H10         2.3380    0.4110    5.2560 ha        1 X2M      0.133000
     25 H22        -0.4780   -0.7670   -2.4300 hn        1 X2M      0.332700
     26 H25         2.0950   -0.0500   -5.7280 ha        1 X2M      0.154000
     27 HAB1        3.8860    1.5800   -2.9010 hc        1 X2M      0.043367
     28 HAB2        4.4430   -0.1440   -2.8420 hc        1 X2M      0.043367
     29 HAB3        4.2760    0.7000   -4.4390 hc        1 X2M      0.043367
     30 HAA1       -1.5740   -0.2620   -5.0890 hc        1 X2M      0.053700
     31 HAA2       -0.3530   -0.8590   -6.2950 hc        1 X2M      0.053700
     32 HAA3       -1.0130   -1.9870   -5.0330 hc        1 X2M      0.053700
@<TRIPOS>BOND
     1    1    2 1   
     2    1   11 2   
     3    1   12 1   
     4    2    4 1   
     5    2    9 2   
     6    3    4 ar  
     7    3    8 ar  
     8    3   12 1   
     9    4    5 ar  
    10    5    6 ar  
    11    5   22 1   
    12    6    7 ar  
    13    6   23 1   
    14    7    8 ar  
    15    7   24 1   
    16    8   21 1   
    17    9   10 1   
    18    9   20 1   
    19   10   13 2   
    20   10   16 1   
    21   12   19 1   
    22   13   14 1   
    23   13   17 1   
    24   14   15 2   
    25   14   26 1   
    26   15   16 1   
    27   15   18 1   
    28   16   25 1   
    29   17   27 1   
    30   17   28 1   
    31   17   29 1   
    32   18   30 1   
    33   18   31 1   
    34   18   32 1   
@<TRIPOS>SUBSTRUCTURE
     1 X2M         1 TEMP              0 ****  ****    0 ROOT
