@<TRIPOS>MOLECULE
X2M
   32    34     1     0     0
SMALL
bcc


@<TRIPOS>ATOM
      1 C3         -0.7400    1.6510   -0.1870 c         1 X2M      0.724700
      2 C5         -0.6690    0.1570   -0.0590 cc        1 X2M     -0.175400
      3 C6         -2.9090    0.8790   -0.1070 ca        1 X2M      0.054600
      4 C7         -2.0700   -0.2890   -0.0120 ca        1 X2M     -0.095800
      5 C8         -2.6440   -1.5400    0.0990 ca        1 X2M     -0.084000
      6 C9         -4.0430   -1.6460    0.1170 ca        1 X2M     -0.159000
      7 C10        -4.8480   -0.5150    0.0240 ca        1 X2M     -0.099000
      8 C11        -4.2960    0.7680   -0.0890 ca        1 X2M     -0.164000
      9 C19         0.3880   -0.6750    0.0060 cf        1 X2M      0.055800
     10 C21         1.7940   -0.4380   -0.0230 cd        1 X2M     -0.153100
     11 O4          0.1660    2.4980   -0.2650 o         1 X2M     -0.651500
     12 N1         -2.1010    2.0220   -0.2100 n         1 X2M     -0.475100
     13 C26         2.7950   -1.4540    0.0580 cc        1 X2M     -0.086300
     14 C25         4.0580   -0.8050   -0.0050 cc        1 X2M     -0.212000
     15 C24         3.8150    0.5850   -0.1230 cd        1 X2M     -0.075600
     16 N22         2.4470    0.7930   -0.1330 na        1 X2M     -0.133100
     17 CAB         2.5630   -2.8930    0.1830 c3        1 X2M     -0.033800
     18 CAA         4.8120    1.6660   -0.2220 c3        1 X2M     -0.038800
     19 H1         -2.4360    2.9460   -0.2880 hn        1 X2M      0.341500
     20 H19         0.1560   -1.7600    0.1010 ha        1 X2M      0.141000
     21 H11        -4.9440    1.6510   -0.1610 ha        1 X2M      0.139000
     22 H8         -2.0220   -2.4440    0.1730 ha        1 X2M      0.134000
     23 H9         -4.5050   -2.6400    0.2050 ha        1 X2M      0.134000
     24 H10        -5.9430   -0.6220    0.0400 ha        1 X2M      0.133000
     25 H22         1.9980    1.6760   -0.2060 hn        1 X2M      0.332700
     26 H25         5.0340   -1.2790    0.0290 ha        1 X2M      0.154000
     27 HAB1        1.9770   -3.2770   -0.6900 hc        1 X2M      0.043367
     28 HAB2        3.5350   -3.4460    0.2250 hc        1 X2M      0.043367
     29 HAB3        1.9880   -3.1220    1.1160 hc        1 X2M      0.043367
     30 HAA1        4.6960    2.2320   -1.1810 hc        1 X2M      0.053700
     31 HAA2        4.7060    2.3870    0.6270 hc        1 X2M      0.053700
     32 HAA3        5.8390    1.2260   -0.1900 hc        1 X2M      0.053700
@<TRIPOS>BOND
     1    1    2 1   
     2    1   11 2   
     3    1   12 1   
     4    2    4 1   
     5    2    9 2   
     6    3    4 ar  
     7    3    8 ar  
     8    3   12 1   
     9    4    5 ar  
    10    5    6 ar  
    11    5   22 1   
    12    6    7 ar  
    13    6   23 1   
    14    7    8 ar  
    15    7   24 1   
    16    8   21 1   
    17    9   10 1   
    18    9   20 1   
    19   10   13 2   
    20   10   16 1   
    21   12   19 1   
    22   13   14 1   
    23   13   17 1   
    24   14   15 2   
    25   14   26 1   
    26   15   16 1   
    27   15   18 1   
    28   16   25 1   
    29   17   27 1   
    30   17   28 1   
    31   17   29 1   
    32   18   30 1   
    33   18   31 1   
    34   18   32 1   
@<TRIPOS>SUBSTRUCTURE
     1 X2M         1 TEMP              0 ****  ****    0 ROOT
