@<TRIPOS>MOLECULE
X2M
   32    25     1     0     0
SMALL
bcc


@<TRIPOS>ATOM
      1 C3         -1.4140    0.2220    0.9460 c1        1 X2M      0.363000
      2 C5          0.0400    0.2250    0.9120 c1        1 X2M     -0.126000
      3 C6         -0.5890    0.2490    3.1640 c1        1 X2M      0.062000
      4 C7          0.5290    0.2420    2.3160 c1        1 X2M     -0.126000
      5 C8          1.8140    0.2230    2.8570 c1        1 X2M     -0.020000
      6 C9          1.9880    0.2110    4.2400 c1        1 X2M     -0.129000
      7 C10         0.8720    0.2190    5.0870 c1        1 X2M     -0.129000
      8 C11        -0.4130    0.2380    4.5480 c1        1 X2M     -0.164000
      9 C19         0.8060    0.1400   -0.1930 c1        1 X2M     -0.020000
     10 C21         0.1590    0.0310   -1.5560 c1        1 X2M     -0.080500
     11 O4         -2.1500    0.2580   -0.0190 o         1 X2M     -0.376000
     12 N1         -1.8210    0.2370    2.3120 n3        1 X2M     -0.329000
     13 C26         0.3430   -1.0150   -2.4330 c1        1 X2M     -0.145500
     14 C25        -0.2180   -0.6700   -3.6210 c1        1 X2M     -0.145500
     15 C24        -0.7530    0.5920   -3.4860 c1        1 X2M     -0.080500
     16 N22        -0.5180    1.0170   -2.2120 n2        1 X2M     -0.132000
     17 CAB         0.9930   -2.3430   -2.1100 c2        1 X2M     -0.161500
     18 CAA        -1.4920    1.3630   -4.5580 c2        1 X2M     -0.161500
     19 H1         -2.6810    0.2390    2.6140 hn        1 X2M      0.255000
     20 H19         1.7790    0.1500   -0.1140 ha        1 X2M      0.137500
     21 H11        -1.1900    0.2430    5.1380 ha        1 X2M      0.139000
     22 H8          2.5920    0.2170    2.2680 ha        1 X2M      0.137500
     23 H9          2.8880    0.1980    4.6180 ha        1 X2M      0.133500
     24 H10         0.9940    0.2110    6.0550 ha        1 X2M      0.133500
     25 H22        -0.7680    1.8200   -1.8590 DU        1 X2M      0.218500
     26 H25        -0.2380   -1.2190   -4.4280 DU        1 X2M      0.218500
     27 HAB1        1.9550   -2.2110   -1.9740 ha        1 X2M      0.087833
     28 HAB2        0.8510   -2.9660   -2.8530 ha        1 X2M      0.087833
     29 HAB3        0.5950   -2.7110   -1.2930 ha        1 X2M      0.087833
     30 HAA1       -1.9120    0.7350   -5.1820 ha        1 X2M      0.087833
     31 HAA2       -2.1830    1.9210   -4.1420 ha        1 X2M      0.087833
     32 HAA3       -0.8610    1.9340   -5.0440 ha        1 X2M      0.087833
@<TRIPOS>BOND
     1    1   11 1   
     2    1   12 1   
     3    2    4 1   
     4    2    9 1   
     5    3    8 1   
     6    3   12 1   
     7    4    5 1   
     8    5   22 1   
     9    6    7 1   
    10    6   23 1   
    11    7   24 1   
    12    8   21 1   
    13    9   20 1   
    14   10   13 1   
    15   10   16 1   
    16   12   19 1   
    17   13   14 1   
    18   14   15 1   
    19   15   16 1   
    20   17   27 1   
    21   17   28 1   
    22   17   29 1   
    23   18   30 1   
    24   18   31 1   
    25   18   32 1   
@<TRIPOS>SUBSTRUCTURE
     1 X2M         1 TEMP              0 ****  ****    0 ROOT
