@<TRIPOS>MOLECULE
X2M
   32    34     1     0     0
SMALL
bcc


@<TRIPOS>ATOM
      1 C3         -0.2170   -0.6420    0.2990 c         1 X2M      0.724700
      2 C5          1.1850   -0.1500    0.0820 cc        1 X2M     -0.175400
      3 C6          0.6860   -0.2460    2.3810 ca        1 X2M      0.054600
      4 C7          1.7180    0.0880    1.4320 ca        1 X2M     -0.095800
      5 C8          2.9440    0.5410    1.8810 ca        1 X2M     -0.084000
      6 C9          3.1570    0.6660    3.2610 ca        1 X2M     -0.159000
      7 C10         2.1570    0.3420    4.1730 ca        1 X2M     -0.099000
      8 C11         0.9040   -0.1200    3.7500 ca        1 X2M     -0.164000
      9 C19         1.8830    0.0590   -1.0500 cf        1 X2M      0.055800
     10 C21         1.5450   -0.1100   -2.4250 cd        1 X2M     -0.153100
     11 O4         -1.0880   -0.9810   -0.5190 o         1 X2M     -0.651500
     12 N1         -0.4560   -0.6780    1.6890 n         1 X2M     -0.475100
     13 C26         2.4200    0.1630   -3.5210 cc        1 X2M     -0.086300
     14 C25         1.7070   -0.1340   -4.7140 cc        1 X2M     -0.212000
     15 C24         0.4170   -0.5800   -4.3360 cd        1 X2M     -0.075600
     16 N22         0.3320   -0.5610   -2.9550 na        1 X2M     -0.133100
     17 CAB         3.7950    0.6560   -3.4310 c3        1 X2M     -0.033800
     18 CAA        -0.6820   -1.0030   -5.2220 c3        1 X2M     -0.038800
     19 H1         -1.2990   -0.9630    2.1120 hn        1 X2M      0.341500
     20 H19         2.9240    0.4340   -0.9260 ha        1 X2M      0.141000
     21 H11         0.1240   -0.3720    4.4810 ha        1 X2M      0.139000
     22 H8          3.7440    0.8010    1.1730 ha        1 X2M      0.134000
     23 H9          4.1310    1.0260    3.6240 ha        1 X2M      0.134000
     24 H10         2.3470    0.4480    5.2520 ha        1 X2M      0.133000
     25 H22        -0.4630   -0.8260   -2.4220 hn        1 X2M      0.332700
     26 H25         2.0740   -0.0380   -5.7300 ha        1 X2M      0.154000
     27 HAB1        4.2370    0.7770   -4.4520 hc        1 X2M      0.043367
     28 HAB2        4.4360   -0.0580   -2.8530 hc        1 X2M      0.043367
     29 HAB3        3.8270    1.6490   -2.9140 hc        1 X2M      0.043367
     30 HAA1       -1.5830   -0.3550   -5.0790 hc        1 X2M      0.053700
     31 HAA2       -0.9750   -2.0630   -5.0180 hc        1 X2M      0.053700
     32 HAA3       -0.3500   -0.9230   -6.2870 hc        1 X2M      0.053700
@<TRIPOS>BOND
     1    1    2 1   
     2    1   11 2   
     3    1   12 1   
     4    2    4 1   
     5    2    9 2   
     6    3    4 ar  
     7    3    8 ar  
     8    3   12 1   
     9    4    5 ar  
    10    5    6 ar  
    11    5   22 1   
    12    6    7 ar  
    13    6   23 1   
    14    7    8 ar  
    15    7   24 1   
    16    8   21 1   
    17    9   10 1   
    18    9   20 1   
    19   10   13 2   
    20   10   16 1   
    21   12   19 1   
    22   13   14 1   
    23   13   17 1   
    24   14   15 2   
    25   14   26 1   
    26   15   16 1   
    27   15   18 1   
    28   16   25 1   
    29   17   27 1   
    30   17   28 1   
    31   17   29 1   
    32   18   30 1   
    33   18   31 1   
    34   18   32 1   
@<TRIPOS>SUBSTRUCTURE
     1 X2M         1 TEMP              0 ****  ****    0 ROOT
