@<TRIPOS>MOLECULE
X2M
   32    34     1     0     0
SMALL
bcc


@<TRIPOS>ATOM
      1 C3         -0.2280   -0.6170    0.2940 c         1 X2M      0.724700
      2 C5          1.1810   -0.1470    0.0820 cc        1 X2M     -0.175400
      3 C6          0.6760   -0.2360    2.3790 ca        1 X2M      0.054600
      4 C7          1.7150    0.0830    1.4330 ca        1 X2M     -0.095800
      5 C8          2.9460    0.5170    1.8850 ca        1 X2M     -0.084000
      6 C9          3.1580    0.6380    3.2660 ca        1 X2M     -0.159000
      7 C10         2.1500    0.3290    4.1750 ca        1 X2M     -0.099000
      8 C11         0.8910   -0.1130    3.7480 ca        1 X2M     -0.164000
      9 C19         1.8860    0.0520   -1.0490 cf        1 X2M      0.055800
     10 C21         1.5490   -0.1120   -2.4250 cd        1 X2M     -0.153100
     11 O4         -1.1020   -0.9430   -0.5260 o         1 X2M     -0.651500
     12 N1         -0.4710   -0.6500    1.6840 ns        1 X2M     -0.475100
     13 C26         2.4310    0.1490   -3.5180 cc        1 X2M     -0.086300
     14 C25         1.7160   -0.1360   -4.7130 cc        1 X2M     -0.212000
     15 C24         0.4190   -0.5640   -4.3390 cd        1 X2M     -0.075600
     16 N22         0.3310   -0.5440   -2.9580 na        1 X2M     -0.133100
     17 CAB         3.8130    0.6220   -3.4250 c3        1 X2M     -0.033800
     18 CAA        -0.6840   -0.9700   -5.2280 c3        1 X2M     -0.038800
     19 H1         -1.3190   -0.9220    2.1050 hn        1 X2M      0.341500
     20 H19         2.9320    0.4110   -0.9220 ha        1 X2M      0.141000
     21 H11         0.1060   -0.3530    4.4770 ha        1 X2M      0.139000
     22 H8          3.7520    0.7650    1.1800 ha        1 X2M      0.134000
     23 H9          4.1360    0.9830    3.6310 ha        1 X2M      0.134000
     24 H10         2.3390    0.4320    5.2540 ha        1 X2M      0.133000
     25 H22        -0.4700   -0.7970   -2.4270 hn        1 X2M      0.332700
     26 H25         2.0870   -0.0460   -5.7290 ha        1 X2M      0.154000
     27 HAB1        4.2590    0.7370   -4.4440 hc        1 X2M      0.043367
     28 HAB2        4.4410   -0.1020   -2.8460 hc        1 X2M      0.043367
     29 HAB3        3.8580    1.6140   -2.9070 hc        1 X2M      0.043367
     30 HAA1       -1.5780   -0.3120   -5.0840 hc        1 X2M      0.053700
     31 HAA2       -0.9900   -2.0280   -5.0280 hc        1 X2M      0.053700
     32 HAA3       -0.3500   -0.8910   -6.2920 hc        1 X2M      0.053700
@<TRIPOS>BOND
     1    1    2 1   
     2    1   11 2   
     3    1   12 1   
     4    2    4 1   
     5    2    9 2   
     6    3    4 ar  
     7    3    8 ar  
     8    3   12 1   
     9    4    5 ar  
    10    5    6 ar  
    11    5   22 1   
    12    6    7 ar  
    13    6   23 1   
    14    7    8 ar  
    15    7   24 1   
    16    8   21 1   
    17    9   10 1   
    18    9   20 1   
    19   10   13 2   
    20   10   16 1   
    21   12   19 1   
    22   13   14 1   
    23   13   17 1   
    24   14   15 2   
    25   14   26 1   
    26   15   16 1   
    27   15   18 1   
    28   16   25 1   
    29   17   27 1   
    30   17   28 1   
    31   17   29 1   
    32   18   30 1   
    33   18   31 1   
    34   18   32 1   
@<TRIPOS>SUBSTRUCTURE
     1 X2M         1 TEMP              0 ****  ****    0 ROOT
