@<TRIPOS>MOLECULE
X2O
   49    50     1     0     0
SMALL
bcc


@<TRIPOS>ATOM
      1 CAL         0.1570    0.7050   -0.0780 ca        1 X2O     -0.114750
      2 CAH         1.5440    0.7980   -0.1880 ca        1 X2O     -0.132250
      3 CAF         2.3600    0.4400    0.8840 ca        1 X2O     -0.121500
      4 CAI         1.7800   -0.0080    2.0710 ca        1 X2O     -0.132250
      5 CAM         0.3950   -0.1020    2.1830 ca        1 X2O     -0.114750
      6 CAT        -0.4340    0.2460    1.1070 ca        1 X2O     -0.084300
      7 CAX        -1.9290    0.1660    1.2430 c3        1 X2O      0.211700
      8 SAR        -2.3610   -1.5560    1.7980 ss        1 X2O     -0.433200
      9 CB         -2.3360   -1.6820    3.5700 c3        1 X2O     -0.009300
     10 CA         -3.3030   -2.7680    3.9850 c3        1 X2O     -0.066500
     11 C          -3.4570   -2.6950    5.5900 c         1 X2O      0.938600
     12 OXT        -2.4500   -3.0440    6.2240 o         1 X2O     -0.754300
     13 O          -4.5810   -2.2900    5.9840 o         1 X2O     -0.754300
     14 N          -4.6490   -2.6200    3.3540 n4        1 X2O     -0.838600
     15 CAW        -2.3920    1.2310    2.2440 c3        1 X2O     -0.061700
     16 CAB        -3.8670    1.1560    2.5920 c3        1 X2O     -0.100100
     17 CAP        -1.9980    2.6400    1.8090 c3        1 X2O     -0.077400
     18 CAA        -2.0920    3.6160    2.9540 c3        1 X2O     -0.096100
     19 CAU        -2.6220    0.0930   -0.0840 ca        1 X2O     -0.084300
     20 CAN        -2.2270   -0.9330   -0.9660 ca        1 X2O     -0.114750
     21 CAJ        -2.8550   -1.0970   -2.1960 ca        1 X2O     -0.132250
     22 CAG        -3.8860   -0.2360   -2.5760 ca        1 X2O     -0.121500
     23 CAK        -4.2820    0.7830   -1.7140 ca        1 X2O     -0.132250
     24 CAO        -3.6590    0.9450   -0.4760 ca        1 X2O     -0.114750
     25 HAL        -0.4740    0.9970   -0.9320 ha        1 X2O      0.143750
     26 HAH         1.9920    1.1560   -1.1270 ha        1 X2O      0.136750
     27 HAF         3.4530    0.5110    0.7950 ha        1 X2O      0.135000
     28 HAI         2.4170   -0.2910    2.9230 ha        1 X2O      0.136750
     29 HAM        -0.0460   -0.4620    3.1260 ha        1 X2O      0.143750
     30 HAW        -1.8050    1.0240    3.1910 hc        1 X2O      0.061700
     31 HB1C       -1.3250   -1.9810    3.9460 h1        1 X2O      0.100700
     32 HB2C       -2.6070   -0.7080    4.0470 h1        1 X2O      0.100700
     33 HA         -2.8960   -3.7820    3.7200 hx        1 X2O      0.099700
     34 HN1        -4.5860   -2.0380    2.5090 hn        1 X2O      0.449800
     35 HN2        -5.0280   -3.5340    3.1250 hn        1 X2O      0.449800
     36 HAB1       -4.3340    0.2340    2.1650 hc        1 X2O      0.041033
     37 HAB2       -3.9990    1.1380    3.7020 hc        1 X2O      0.041033
     38 HAB3       -4.4260    2.0430    2.2050 hc        1 X2O      0.041033
     39 HAP1       -2.6520    2.9870    0.9670 hc        1 X2O      0.050700
     40 HAP2       -0.9440    2.6270    1.4210 hc        1 X2O      0.050700
     41 HAA1       -1.8360    4.6450    2.6020 hc        1 X2O      0.038033
     42 HAA2       -1.3830    3.3380    3.7720 hc        1 X2O      0.038033
     43 HAA3       -3.1260    3.6350    3.3780 hc        1 X2O      0.038033
     44 HAN        -1.4060   -1.6100   -0.6720 ha        1 X2O      0.143750
     45 HAO        -4.0000    1.7580    0.1820 ha        1 X2O      0.143750
     46 HAJ        -2.5340   -1.9040   -2.8700 ha        1 X2O      0.136750
     47 HAG        -4.3800   -0.3610   -3.5510 ha        1 X2O      0.135000
     48 HAK        -5.0900    1.4700   -2.0070 ha        1 X2O      0.136750
     49 HN3        -5.2600   -2.1730    4.0700 hn        1 X2O      0.449800
@<TRIPOS>BOND
     1    1    2 ar  
     2    1    6 ar  
     3    1   25 1   
     4    2    3 ar  
     5    2   26 1   
     6    3    4 ar  
     7    3   27 1   
     8    4    5 ar  
     9    4   28 1   
    10    5    6 ar  
    11    5   29 1   
    12    6    7 1   
    13    7    8 1   
    14    7   15 1   
    15    7   19 1   
    16    8    9 1   
    17    9   10 1   
    18    9   31 1   
    19    9   32 1   
    20   10   11 1   
    21   10   14 1   
    22   10   33 1   
    23   11   12 1   
    24   11   13 1   
    25   14   34 1   
    26   14   35 1   
    27   14   49 1   
    28   15   16 1   
    29   15   17 1   
    30   15   30 1   
    31   16   36 1   
    32   16   37 1   
    33   16   38 1   
    34   17   18 1   
    35   17   39 1   
    36   17   40 1   
    37   18   41 1   
    38   18   42 1   
    39   18   43 1   
    40   19   20 ar  
    41   19   24 ar  
    42   20   21 ar  
    43   20   44 1   
    44   21   22 ar  
    45   21   46 1   
    46   22   23 ar  
    47   22   47 1   
    48   23   24 ar  
    49   23   48 1   
    50   24   45 1   
@<TRIPOS>SUBSTRUCTURE
     1 X2O         1 TEMP              0 ****  ****    0 ROOT
