@<TRIPOS>MOLECULE
X2O
   49    50     1     0     0
SMALL
bcc


@<TRIPOS>ATOM
      1 CAL         0.1570    0.7090   -0.0760 ca        1 X2O     -0.114750
      2 CAH         1.5430    0.8030   -0.1860 ca        1 X2O     -0.132250
      3 CAF         2.3590    0.4450    0.8860 ca        1 X2O     -0.121500
      4 CAI         1.7800   -0.0050    2.0720 ca        1 X2O     -0.132250
      5 CAM         0.3950   -0.1000    2.1840 ca        1 X2O     -0.114750
      6 CAT        -0.4350    0.2480    1.1080 ca        1 X2O     -0.084300
      7 CAX        -1.9290    0.1660    1.2430 c3        1 X2O      0.211700
      8 SAR        -2.3600   -1.5570    1.7960 ss        1 X2O     -0.433200
      9 CB         -2.3360   -1.6850    3.5680 c3        1 X2O     -0.009300
     10 CA         -3.3010   -2.7730    3.9810 c3        1 X2O     -0.066500
     11 C          -3.4560   -2.7010    5.5870 c         1 X2O      0.938600
     12 OXT        -2.4490   -3.0490    6.2210 o         1 X2O     -0.754300
     13 O          -4.5800   -2.2990    5.9800 o         1 X2O     -0.754300
     14 N          -4.6470   -2.6250    3.3500 nz        1 X2O     -0.838600
     15 CAW        -2.3940    1.2300    2.2450 c3        1 X2O     -0.061700
     16 CAB        -3.8690    1.1530    2.5920 c3        1 X2O     -0.100100
     17 CAP        -2.0010    2.6400    1.8120 c3        1 X2O     -0.077400
     18 CAA        -2.0970    3.6150    2.9590 c3        1 X2O     -0.096100
     19 CAU        -2.6220    0.0940   -0.0840 ca        1 X2O     -0.084300
     20 CAN        -2.2250   -0.9300   -0.9670 ca        1 X2O     -0.114750
     21 CAJ        -2.8530   -1.0930   -2.1980 ca        1 X2O     -0.132250
     22 CAG        -3.8850   -0.2330   -2.5770 ca        1 X2O     -0.121500
     23 CAK        -4.2820    0.7850   -1.7140 ca        1 X2O     -0.132250
     24 CAO        -3.6590    0.9460   -0.4750 ca        1 X2O     -0.114750
     25 HAL        -0.4740    1.0020   -0.9300 ha        1 X2O      0.143750
     26 HAH         1.9920    1.1630   -1.1240 ha        1 X2O      0.136750
     27 HAF         3.4530    0.5180    0.7980 ha        1 X2O      0.135000
     28 HAI         2.4160   -0.2870    2.9250 ha        1 X2O      0.136750
     29 HAM        -0.0470   -0.4610    3.1260 ha        1 X2O      0.143750
     30 HAW        -1.8070    1.0230    3.1930 hc        1 X2O      0.061700
     31 HB1C       -2.6080   -0.7120    4.0460 h1        1 X2O      0.100700
     32 HB2C       -1.3240   -1.9830    3.9440 h1        1 X2O      0.100700
     33 HA         -2.8930   -3.7850    3.7150 hx        1 X2O      0.099700
     34 HN1        -4.5840   -2.0420    2.5060 hn        1 X2O      0.449800
     35 HN2        -5.0250   -3.5390    3.1190 hn        1 X2O      0.449800
     36 HAB1       -4.3350    0.2310    2.1640 hc        1 X2O      0.041033
     37 HAB2       -4.0020    1.1340    3.7030 hc        1 X2O      0.041033
     38 HAB3       -4.4290    2.0400    2.2050 hc        1 X2O      0.041033
     39 HAP1       -0.9470    2.6280    1.4250 hc        1 X2O      0.050700
     40 HAP2       -2.6540    2.9870    0.9700 hc        1 X2O      0.050700
     41 HAA1       -1.3880    3.3360    3.7760 hc        1 X2O      0.038033
     42 HAA2       -1.8410    4.6440    2.6080 hc        1 X2O      0.038033
     43 HAA3       -3.1300    3.6310    3.3820 hc        1 X2O      0.038033
     44 HAN        -1.4040   -1.6070   -0.6740 ha        1 X2O      0.143750
     45 HAO        -4.0020    1.7580    0.1830 ha        1 X2O      0.143750
     46 HAJ        -2.5310   -1.9000   -2.8730 ha        1 X2O      0.136750
     47 HAG        -4.3780   -0.3570   -3.5520 ha        1 X2O      0.135000
     48 HAK        -5.0910    1.4710   -2.0070 ha        1 X2O      0.136750
     49 HN3        -5.2590   -2.1800    4.0660 hn        1 X2O      0.449800
@<TRIPOS>BOND
     1    1    2 ar  
     2    1    6 ar  
     3    1   25 1   
     4    2    3 ar  
     5    2   26 1   
     6    3    4 ar  
     7    3   27 1   
     8    4    5 ar  
     9    4   28 1   
    10    5    6 ar  
    11    5   29 1   
    12    6    7 1   
    13    7    8 1   
    14    7   15 1   
    15    7   19 1   
    16    8    9 1   
    17    9   10 1   
    18    9   31 1   
    19    9   32 1   
    20   10   11 1   
    21   10   14 1   
    22   10   33 1   
    23   11   12 1   
    24   11   13 1   
    25   14   34 1   
    26   14   35 1   
    27   14   49 1   
    28   15   16 1   
    29   15   17 1   
    30   15   30 1   
    31   16   36 1   
    32   16   37 1   
    33   16   38 1   
    34   17   18 1   
    35   17   39 1   
    36   17   40 1   
    37   18   41 1   
    38   18   42 1   
    39   18   43 1   
    40   19   20 ar  
    41   19   24 ar  
    42   20   21 ar  
    43   20   44 1   
    44   21   22 ar  
    45   21   46 1   
    46   22   23 ar  
    47   22   47 1   
    48   23   24 ar  
    49   23   48 1   
    50   24   45 1   
@<TRIPOS>SUBSTRUCTURE
     1 X2O         1 TEMP              0 ****  ****    0 ROOT
