@<TRIPOS>MOLECULE
X2O
   48    49     1     0     0
SMALL
bcc


@<TRIPOS>ATOM
      1 CAL         1.3660   -1.8950   -1.1390 ca        1 X2O     -0.119750
      2 CAH         1.1620   -3.2580   -1.3370 ca        1 X2O     -0.143250
      3 CAF         0.1990   -3.9380   -0.5920 ca        1 X2O     -0.145500
      4 CAI        -0.5640   -3.2390    0.3410 ca        1 X2O     -0.143250
      5 CAM        -0.3640   -1.8730    0.5420 ca        1 X2O     -0.119750
      6 CAT         0.6170   -1.1840   -0.1880 ca        1 X2O     -0.053300
      7 CAX         0.8380    0.2910   -0.0090 c3        1 X2O      0.166700
      8 SAR        -0.2140    1.0620   -1.3050 ss        1 X2O     -0.396200
      9 CB         -1.8300    1.4260   -0.6460 c3        1 X2O      0.047700
     10 CA         -2.7950    0.2490   -0.5380 c3        1 X2O      0.015500
     11 C          -3.4020    0.2300    0.9060 c         1 X2O      0.885600
     12 OXT        -2.6150   -0.0180    1.8670 o         1 X2O     -0.841300
     13 O          -4.6370    0.4450    1.0420 o         1 X2O     -0.841300
     14 N          -3.7990    0.2560   -1.5960 n3        1 X2O     -0.880800
     15 CAW         0.4650    0.8030    1.3910 c3        1 X2O     -0.093700
     16 CAB         0.7270    2.2910    1.5240 c3        1 X2O     -0.089100
     17 CAP         1.1880    0.0510    2.5040 c3        1 X2O     -0.067400
     18 CAA         0.4350    0.1570    3.8070 c3        1 X2O     -0.100100
     19 CAU         2.2540    0.6880   -0.3310 ca        1 X2O     -0.053300
     20 CAN         2.5470    1.8370   -1.0770 ca        1 X2O     -0.119750
     21 CAJ         3.8700    2.1960   -1.3370 ca        1 X2O     -0.143250
     22 CAG         4.9200    1.4190   -0.8510 ca        1 X2O     -0.145500
     23 CAK         4.6400    0.2780   -0.1000 ca        1 X2O     -0.143250
     24 CAO         3.3200   -0.0850    0.1580 ca        1 X2O     -0.119750
     25 HAL         2.1170   -1.3690   -1.7490 ha        1 X2O      0.160250
     26 HAH         1.7580   -3.7950   -2.0880 ha        1 X2O      0.120500
     27 HAF         0.0360   -5.0130   -0.7480 ha        1 X2O      0.114500
     28 HAI        -1.3410   -3.7580    0.9200 ha        1 X2O      0.120500
     29 HAM        -1.0140   -1.3360    1.2670 ha        1 X2O      0.160250
     30 HAW        -0.6510    0.6260    1.5320 hc        1 X2O      0.140700
     31 HB1C       -1.7280    1.9110    0.3560 h1        1 X2O      0.072200
     32 HB2C       -2.1930    2.1970   -1.3720 h1        1 X2O      0.072200
     33 HA         -2.2030   -0.7070   -0.6500 h1        1 X2O      0.065700
     34 HN1        -4.3480   -0.5800   -1.4950 hn        1 X2O      0.332300
     35 HN2        -4.4240    1.0260   -1.4280 hn        1 X2O      0.332300
     36 HAB1        0.2740    2.8460    0.6660 hc        1 X2O      0.033033
     37 HAB2        0.2750    2.6660    2.4740 hc        1 X2O      0.033033
     38 HAB3        1.8230    2.5060    1.5400 hc        1 X2O      0.033033
     39 HAP1        1.2800   -1.0330    2.2280 hc        1 X2O      0.031700
     40 HAP2        2.2290    0.4510    2.6220 hc        1 X2O      0.031700
     41 HAA1        0.9060   -0.4960    4.5800 hc        1 X2O      0.037700
     42 HAA2        0.4410    1.2090    4.1840 hc        1 X2O      0.037700
     43 HAA3       -0.6310   -0.1570    3.6640 hc        1 X2O      0.037700
     44 HAN         1.7220    2.4640   -1.4590 ha        1 X2O      0.160250
     45 HAO         3.1030   -0.9880    0.7500 ha        1 X2O      0.160250
     46 HAJ         4.0810    3.0980   -1.9290 ha        1 X2O      0.120500
     47 HAG         5.9610    1.7040   -1.0570 ha        1 X2O      0.114500
     48 HAK         5.4620   -0.3390    0.2910 ha        1 X2O      0.120500
@<TRIPOS>BOND
     1    1    2 ar  
     2    1    6 ar  
     3    1   25 1   
     4    2    3 ar  
     5    2   26 1   
     6    3    4 ar  
     7    3   27 1   
     8    4    5 ar  
     9    4   28 1   
    10    5    6 ar  
    11    5   29 1   
    12    6    7 1   
    13    7    8 1   
    14    7   15 1   
    15    7   19 1   
    16    8    9 1   
    17    9   10 1   
    18    9   31 1   
    19    9   32 1   
    20   10   11 1   
    21   10   14 1   
    22   10   33 1   
    23   11   12 1   
    24   11   13 1   
    25   14   34 1   
    26   14   35 1   
    27   15   16 1   
    28   15   17 1   
    29   15   30 1   
    30   16   36 1   
    31   16   37 1   
    32   16   38 1   
    33   17   18 1   
    34   17   39 1   
    35   17   40 1   
    36   18   41 1   
    37   18   42 1   
    38   18   43 1   
    39   19   20 ar  
    40   19   24 ar  
    41   20   21 ar  
    42   20   44 1   
    43   21   22 ar  
    44   21   46 1   
    45   22   23 ar  
    46   22   47 1   
    47   23   24 ar  
    48   23   48 1   
    49   24   45 1   
@<TRIPOS>SUBSTRUCTURE
     1 X2O         1 TEMP              0 ****  ****    0 ROOT
