@<TRIPOS>MOLECULE
X2O
   49    50     1     0     0
SMALL
bcc


@<TRIPOS>ATOM
      1 CAL         0.1540    0.6930   -0.0860 ca        1 X2O     -0.114750
      2 CAH         1.5420    0.7740   -0.2020 ca        1 X2O     -0.132250
      3 CAF         2.3590    0.4050    0.8650 ca        1 X2O     -0.121500
      4 CAI         1.7810   -0.0440    2.0520 ca        1 X2O     -0.132250
      5 CAM         0.3960   -0.1260    2.1710 ca        1 X2O     -0.114750
      6 CAT        -0.4350    0.2330    1.1000 ca        1 X2O     -0.084300
      7 CAX        -1.9300    0.1660    1.2420 c3        1 X2O      0.211700
      8 SAR        -2.3740   -1.5550    1.7910 ss        1 X2O     -0.433200
      9 CB         -2.3410   -1.6900    3.5620 c3        1 X2O     -0.009300
     10 CA         -3.3170   -2.7690    3.9770 c3        1 X2O     -0.066500
     11 C          -3.4620   -2.7010    5.5840 c         1 X2O      0.938600
     12 OXT        -2.4550   -3.0620    6.2120 o         1 X2O     -0.754300
     13 O          -4.5800   -2.2880    5.9850 o         1 X2O     -0.754300
     14 N          -4.6640   -2.6050    3.3540 n4        1 X2O     -0.838600
     15 CAW        -2.3800    1.2300    2.2510 c3        1 X2O     -0.061700
     16 CAB        -3.8540    1.1650    2.6050 c3        1 X2O     -0.100100
     17 CAP        -1.9750    2.6380    1.8200 c3        1 X2O     -0.077400
     18 CAA        -2.0550    3.6090    2.9710 c3        1 X2O     -0.096100
     19 CAU        -2.6300    0.1050   -0.0810 ca        1 X2O     -0.084300
     20 CAN        -2.2470   -0.9200   -0.9700 ca        1 X2O     -0.114750
     21 CAJ        -2.8830   -1.0720   -2.1990 ca        1 X2O     -0.132250
     22 CAG        -3.9080   -0.2010   -2.5700 ca        1 X2O     -0.121500
     23 CAK        -4.2910    0.8180   -1.7010 ca        1 X2O     -0.132250
     24 CAO        -3.6610    0.9680   -0.4640 ca        1 X2O     -0.114750
     25 HAL        -0.4780    0.9950   -0.9350 ha        1 X2O      0.143750
     26 HAH         1.9890    1.1330   -1.1410 ha        1 X2O      0.136750
     27 HAF         3.4530    0.4670    0.7720 ha        1 X2O      0.135000
     28 HAI         2.4190   -0.3360    2.9000 ha        1 X2O      0.136750
     29 HAM        -0.0440   -0.4870    3.1130 ha        1 X2O      0.143750
     30 HAW        -1.7900    1.0140    3.1940 hc        1 X2O      0.061700
     31 HB1C       -1.3310   -2.0010    3.9320 h1        1 X2O      0.100700
     32 HB2C       -2.6010   -0.7160    4.0450 h1        1 X2O      0.100700
     33 HA         -2.9210   -3.7850    3.7060 hx        1 X2O      0.099700
     34 HN1        -5.0530   -3.5140    3.1230 hn        1 X2O      0.449800
     35 HN2        -4.6000   -2.0200    2.5110 hn        1 X2O      0.449800
     36 HAB1       -4.3300    0.2510    2.1750 hc        1 X2O      0.041033
     37 HAB2       -3.9800    1.1420    3.7160 hc        1 X2O      0.041033
     38 HAB3       -4.4060    2.0600    2.2250 hc        1 X2O      0.041033
     39 HAP1       -2.6300    2.9940    0.9830 hc        1 X2O      0.050700
     40 HAP2       -0.9230    2.6170    1.4260 hc        1 X2O      0.050700
     41 HAA1       -1.7920    4.6370    2.6210 hc        1 X2O      0.038033
     42 HAA2       -3.0860    3.6340    3.4000 hc        1 X2O      0.038033
     43 HAA3       -1.3450    3.3210    3.7830 hc        1 X2O      0.038033
     44 HAN        -1.4310   -1.6050   -0.6840 ha        1 X2O      0.143750
     45 HAO        -3.9930    1.7800    0.1990 ha        1 X2O      0.143750
     46 HAJ        -2.5710   -1.8790   -2.8780 ha        1 X2O      0.136750
     47 HAG        -4.4070   -0.3170   -3.5430 ha        1 X2O      0.135000
     48 HAK        -5.0950    1.5120   -1.9870 ha        1 X2O      0.136750
     49 HN3        -5.2680   -2.1550    4.0750 hn        1 X2O      0.449800
@<TRIPOS>BOND
     1    1    2 ar  
     2    1    6 ar  
     3    1   25 1   
     4    2    3 ar  
     5    2   26 1   
     6    3    4 ar  
     7    3   27 1   
     8    4    5 ar  
     9    4   28 1   
    10    5    6 ar  
    11    5   29 1   
    12    6    7 1   
    13    7    8 1   
    14    7   15 1   
    15    7   19 1   
    16    8    9 1   
    17    9   10 1   
    18    9   31 1   
    19    9   32 1   
    20   10   11 1   
    21   10   14 1   
    22   10   33 1   
    23   11   12 1   
    24   11   13 1   
    25   14   34 1   
    26   14   35 1   
    27   14   49 1   
    28   15   16 1   
    29   15   17 1   
    30   15   30 1   
    31   16   36 1   
    32   16   37 1   
    33   16   38 1   
    34   17   18 1   
    35   17   39 1   
    36   17   40 1   
    37   18   41 1   
    38   18   42 1   
    39   18   43 1   
    40   19   20 ar  
    41   19   24 ar  
    42   20   21 ar  
    43   20   44 1   
    44   21   22 ar  
    45   21   46 1   
    46   22   23 ar  
    47   22   47 1   
    48   23   24 ar  
    49   23   48 1   
    50   24   45 1   
@<TRIPOS>SUBSTRUCTURE
     1 X2O         1 TEMP              0 ****  ****    0 ROOT
