@<TRIPOS>MOLECULE
X2P
   60    65     1     0     0
SMALL
bcc


@<TRIPOS>ATOM
      1 N1          0.0780    0.0670    0.1270 n         1 X2P     -0.342000
      2 C4          3.6300    0.2030   -1.2330 c3        1 X2P     -0.057200
      3 C5          1.4820    0.1260    0.0380 cc        1 X2P     -0.090600
      4 C6         -0.7140    0.0030   -1.0020 c         1 X2P      0.665700
      5 C7          0.0190   -0.0060   -2.3060 cc        1 X2P      0.110900
      6 C8         -0.3570    0.1810    1.5560 c3        1 X2P      0.315800
      7 C10         1.0120   -0.2310    3.6850 c3        1 X2P      0.056000
      8 C13        -1.3300   -0.9790    1.9700 c3        1 X2P     -0.102400
      9 C15        -2.4720    1.1130    2.4770 cx        1 X2P     -0.112700
     10 C17        -1.4410    1.9590    3.1700 cx        1 X2P     -0.106400
     11 C20         5.5430   -2.2370   -5.5280 ca        1 X2P     -0.098000
     12 C21         5.6590   -3.5090   -6.0750 ca        1 X2P     -0.164000
     13 C22         4.5250   -4.1560   -6.6030 ca        1 X2P      0.136900
     14 C24         3.1760   -2.2200   -6.0240 ca        1 X2P     -0.085000
     15 F           4.6600   -5.3950   -7.1280 f         1 X2P     -0.125900
     16 C23         3.2730   -3.5010   -6.5740 ca        1 X2P     -0.024600
     17 CL          1.8790   -4.2380   -7.1990 cl        1 X2P     -0.064400
     18 C19         4.3060   -1.5880   -5.5000 ca        1 X2P     -0.127300
     19 N           3.4730   -0.0870   -3.6920 n         1 X2P     -0.469800
     20 C1          2.0880    0.0850   -3.6910 c         1 X2P      0.718700
     21 O4          1.4780    0.2880   -4.7570 o         1 X2P     -0.614500
     22 C2          1.3890    0.0650   -2.3760 cd        1 X2P     -0.157200
     23 O          -0.7360   -0.0960   -3.4310 oh        1 X2P     -0.435100
     24 O1         -1.9610   -0.0600   -0.9760 o         1 X2P     -0.639500
     25 C16        -1.1790    1.4740    1.7710 cx        1 X2P     -0.137700
     26 C14        -2.4770   -0.3640    2.7680 c3        1 X2P     -0.056400
     27 N2          0.9260    0.1980    2.3160 n         1 X2P     -0.466800
     28 C11         1.7210   -1.5870    3.9300 c3        1 X2P      0.124100
     29 O3          3.0510   -1.3670    4.3690 oh        1 X2P     -0.603800
     30 C12         1.0210   -2.3550    5.0370 c3        1 X2P     -0.094100
     31 C9          2.0220    0.1370    1.4400 c         1 X2P      0.716700
     32 O2          3.2150    0.1030    1.7750 o         1 X2P     -0.613500
     33 C3          2.1520    0.1280   -1.1530 cd        1 X2P     -0.012200
     34 C           4.1540   -0.4960   -2.4870 c3        1 X2P      0.098000
     35 H1          4.1030   -0.2730   -0.3310 hc        1 X2P      0.086700
     36 H2          3.9360    1.2860   -1.2380 hc        1 X2P      0.086700
     37 H3          1.5860    0.5630    4.2480 h1        1 X2P      0.074700
     38 H4         -0.0300   -0.2860    4.1100 h1        1 X2P      0.074700
     39 H5         -0.7980   -1.7670    2.5580 hc        1 X2P      0.072200
     40 H6         -1.7430   -1.4620    1.0460 hc        1 X2P      0.072200
     41 H7         -3.4380    1.5510    2.1820 hc        1 X2P      0.100700
     42 H8         -0.8760    1.5540    4.0260 hc        1 X2P      0.078200
     43 H9         -1.6490    3.0380    3.3000 hc        1 X2P      0.078200
     44 H10         6.4360   -1.7400   -5.1180 ha        1 X2P      0.138000
     45 H11         6.6300   -4.0240   -6.1040 ha        1 X2P      0.153000
     46 H12         2.2030   -1.6960   -6.0020 ha        1 X2P      0.178000
     47 H13         5.2170    0.2350   -4.7920 h1        1 X2P      0.073200
     48 H14         3.6440    0.4430   -5.7050 h1        1 X2P      0.073200
     49 H15        -1.6780   -0.1150   -3.1710 ho        1 X2P      0.453000
     50 H16        -1.1390    2.2060    0.9490 hc        1 X2P      0.107700
     51 H17        -2.3440   -0.5520    3.8640 hc        1 X2P      0.056200
     52 H18        -3.4500   -0.8240    2.4590 hc        1 X2P      0.056200
     53 H19         1.7340   -2.2060    2.9880 h1        1 X2P      0.035700
     54 H20         3.5170   -0.9080    3.6560 ho        1 X2P      0.427000
     55 H21         0.9590   -1.7360    5.9630 hc        1 X2P      0.048033
     56 H22         1.5980   -3.2820    5.2730 hc        1 X2P      0.048033
     57 H23        -0.0080   -2.6350    4.7090 hc        1 X2P      0.048033
     58 H24         4.0570   -1.6130   -2.3510 h1        1 X2P      0.049700
     59 H25         5.2500   -0.2580   -2.5960 h1        1 X2P      0.049700
     60 C18         4.1850   -0.1950   -4.9440 c3        1 X2P      0.141300
@<TRIPOS>BOND
     1    1    3 1   
     2    1    4 1   
     3    1    6 1   
     4    2   33 1   
     5    2   34 1   
     6    2   35 1   
     7    2   36 1   
     8    3   31 1   
     9    3   33 2   
    10    4    5 1   
    11    4   24 2   
    12    5   22 2   
    13    5   23 1   
    14    6    8 1   
    15    6   25 1   
    16    6   27 1   
    17    7   27 1   
    18    7   28 1   
    19    7   37 1   
    20    7   38 1   
    21    8   26 1   
    22    8   39 1   
    23    8   40 1   
    24    9   10 1   
    25    9   25 1   
    26    9   26 1   
    27    9   41 1   
    28   10   25 1   
    29   10   42 1   
    30   10   43 1   
    31   11   12 ar  
    32   11   18 ar  
    33   11   44 1   
    34   12   13 ar  
    35   12   45 1   
    36   13   15 1   
    37   13   16 ar  
    38   14   16 ar  
    39   14   18 ar  
    40   14   46 1   
    41   16   17 1   
    42   18   60 1   
    43   19   20 1   
    44   19   34 1   
    45   19   60 1   
    46   20   21 2   
    47   20   22 1   
    48   22   33 1   
    49   23   49 1   
    50   25   50 1   
    51   26   51 1   
    52   26   52 1   
    53   27   31 1   
    54   28   29 1   
    55   28   30 1   
    56   28   53 1   
    57   29   54 1   
    58   30   55 1   
    59   30   56 1   
    60   30   57 1   
    61   31   32 2   
    62   34   58 1   
    63   34   59 1   
    64   47   60 1   
    65   48   60 1   
@<TRIPOS>SUBSTRUCTURE
     1 X2P         1 TEMP              0 ****  ****    0 ROOT
