@<TRIPOS>MOLECULE
X2P
   60    63     1     0     0
SMALL
bcc


@<TRIPOS>ATOM
      1 N1          0.1900   -0.2520    0.2070 n         1 X2P     -0.361000
      2 C4          3.6010    0.6730   -1.1920 c3        1 X2P     -0.071900
      3 C5          1.5210    0.1820    0.0850 cc        1 X2P     -0.065600
      4 C6         -0.5740   -0.6200   -0.8960 c         1 X2P      0.706700
      5 C7          0.1730   -0.5940   -2.1950 cc        1 X2P      0.112900
      6 C8         -0.3080   -0.0170    1.6020 c3        1 X2P      0.313800
      7 C10         1.0490    0.3340    3.7490 c3        1 X2P      0.056000
      8 C13        -0.9340   -1.3160    2.2220 c3        1 X2P     -0.100400
      9 C15        -2.6250    0.4290    2.3900 cx        1 X2P     -0.111700
     10 C17        -1.8920    1.6360    2.9040 cx        1 X2P     -0.106400
     11 C20         4.4740   -3.2870   -5.7300 c3        1 X2P      0.011700
     12 C21         3.9070   -4.3430   -6.5080 c1        1 X2P     -0.146100
     13 C22         3.4470   -5.2390   -7.1520 c1        1 X2P     -0.018900
     14 C24         4.3480   -1.4070   -7.3040 c1        1 X2P     -0.119100
     15 F           2.9450   -6.2110   -7.8460 f         1 X2P      0.002900
     16 C23         4.7420   -0.9880   -8.3540 c1        1 X2P     -0.094100
     17 Cl          5.2670   -0.4270   -9.7510 cl        1 X2P      0.082100
     18 C19         3.8530   -1.9230   -6.0580 c3        1 X2P      0.022400
     19 N           3.3840   -1.1070   -3.7140 n         1 X2P     -0.288400
     20 C1          2.1910   -0.3100   -3.5950 c         1 X2P      0.623300
     21 O4          1.7230    0.2790   -4.5820 o         1 X2P     -0.538100
     22 C2          1.5040   -0.2670   -2.2760 cd        1 X2P     -0.224200
     23 O          -0.6270   -0.9560   -3.2320 oh        1 X2P     -0.449100
     24 O1         -1.7590   -0.9710   -0.8040 o         1 X2P     -0.578500
     25 C16        -1.4640    1.0100    1.6060 cx        1 X2P     -0.139700
     26 C14        -2.2260   -0.9180    2.9310 c3        1 X2P     -0.056400
     27 N2          0.8940    0.4840    2.3280 n         1 X2P     -0.465800
     28 C11         2.0990   -0.7070    4.2130 c3        1 X2P      0.124100
     29 O3          3.2960   -0.0500    4.5930 oh        1 X2P     -0.602800
     30 C12         1.6010   -1.4470    5.4410 c3        1 X2P     -0.094100
     31 C9          1.9930    0.5800    1.4600 c         1 X2P      0.713700
     32 O2          3.1340    0.9380    1.7800 o         1 X2P     -0.606500
     33 C3          2.2080    0.1860   -1.0980 cd        1 X2P     -0.028200
     34 C           3.7830   -2.0150   -2.8480 c1        1 X2P     -0.052500
     35 H1          3.7540    1.2450   -2.1410 hc        1 X2P      0.067700
     36 H2          3.8500    1.3460   -0.3310 hc        1 X2P      0.067700
     37 H3          1.3590    1.3400    4.1590 h1        1 X2P      0.075200
     38 H4          0.0500    0.0610    4.1920 h1        1 X2P      0.075200
     39 H5         -0.2210   -1.8190    2.9210 hc        1 X2P      0.072200
     40 H6         -1.1740   -2.0380    1.3990 hc        1 X2P      0.072200
     41 H7         -2.0740   -0.8710    4.0390 hc        1 X2P      0.056200
     42 H8         -2.3980    2.6190    2.8490 hc        1 X2P      0.078200
     43 H9         -1.2620    1.5600    3.8060 hc        1 X2P      0.078200
     44 H10         4.3210   -3.5080   -4.6320 hc        1 X2P      0.086200
     45 H11         5.5850   -3.2450   -5.9070 hc        1 X2P      0.086200
     46 H12         2.7320   -2.0380   -6.1480 hc        1 X2P      0.083700
     47 H13         3.9780    0.1320   -5.3200 h1        1 X2P      0.085200
     48 H14         5.2590   -1.0060   -4.6570 h1        1 X2P      0.085200
     49 H15        -0.1910   -0.7240   -4.0720 ho        1 X2P      0.449000
     50 H16        -1.6080    1.5680    0.6670 hc        1 X2P      0.106700
     51 H17        -3.6660    0.5210    2.0420 hc        1 X2P      0.101700
     52 H18        -3.0250   -1.6770    2.7290 hc        1 X2P      0.056200
     53 H19         2.3210   -1.4440    3.3890 h1        1 X2P      0.036700
     54 H20         3.6500    0.3840    3.8040 ho        1 X2P      0.427000
     55 H21         1.3360   -0.7260    6.2500 hc        1 X2P      0.048033
     56 H22         0.7040   -2.0550    5.1770 hc        1 X2P      0.048033
     57 H23         2.4050   -2.1220    5.8220 hc        1 X2P      0.048033
     58 H24         4.3180   -0.1880   -1.1690 hc        1 X2P      0.067700
     59 H25         3.1600   -2.1590   -1.9410 ha        1 X2P      0.006500
     60 C18         4.1720   -0.9100   -4.9350 c3        1 X2P      0.085000
@<TRIPOS>BOND
     1    1    3 1   
     2    1    4 1   
     3    1    6 1   
     4    2   33 1   
     5    2   35 1   
     6    2   36 1   
     7    2   58 1   
     8    3   31 1   
     9    3   33 2   
    10    4    5 1   
    11    4   24 2   
    12    5   22 2   
    13    5   23 1   
    14    6    8 1   
    15    6   25 1   
    16    6   27 1   
    17    7   27 1   
    18    7   28 1   
    19    7   37 1   
    20    7   38 1   
    21    8   26 1   
    22    8   39 1   
    23    8   40 1   
    24    9   10 1   
    25    9   25 1   
    26    9   26 1   
    27    9   51 1   
    28   10   25 1   
    29   10   42 1   
    30   10   43 1   
    31   11   12 1   
    32   11   18 1   
    33   11   44 1   
    34   11   45 1   
    35   12   13 3   
    36   13   15 1   
    37   14   16 3   
    38   14   18 1   
    39   16   17 1   
    40   18   46 1   
    41   18   60 1   
    42   19   20 1   
    43   19   34 3   
    44   19   60 1   
    45   20   21 2   
    46   20   22 1   
    47   22   33 1   
    48   23   49 1   
    49   25   50 1   
    50   26   41 1   
    51   26   52 1   
    52   27   31 1   
    53   28   29 1   
    54   28   30 1   
    55   28   53 1   
    56   29   54 1   
    57   30   55 1   
    58   30   56 1   
    59   30   57 1   
    60   31   32 2   
    61   34   59 1   
    62   47   60 1   
    63   48   60 1   
@<TRIPOS>SUBSTRUCTURE
     1 X2P         1 TEMP              0 ****  ****    0 ROOT
