@<TRIPOS>MOLECULE
X2W
   26    25     1     0     0
SMALL
bcc


@<TRIPOS>ATOM
      1 CA          2.4390    0.4030   -0.3470 c3        1 X2W     -0.038300
      2 CB          1.0080    0.8690   -0.0290 c3        1 X2W     -0.063400
      3 CG         -0.0570   -0.0400   -0.6020 c3        1 X2W     -0.151400
      4 C3         -1.4380    0.1680   -0.0080 c         1 X2W      0.661100
      5 C           3.4440    1.5580   -0.0140 c         1 X2W      0.901600
      6 O           4.0670    1.5370    1.0900 o         1 X2W     -0.860800
      7 OXT         3.6110    2.4550   -0.8870 o         1 X2W     -0.860800
      8 C1          3.5390   -1.8250   -0.1360 c         1 X2W      0.647100
      9 O1          3.7730   -2.0010   -1.3570 o         1 X2W     -0.675100
     10 P          -4.0530   -0.2480    0.0230 p5        1 X2W      1.317900
     11 O2P        -4.7840   -0.8660   -1.1410 o         1 X2W     -0.922500
     12 O1P        -4.3960    1.1930    0.2570 o         1 X2W     -0.922500
     13 O3P        -3.8880   -1.1700    1.1960 o         1 X2W     -0.922500
     14 N1          2.7760   -0.8140    0.3780 n         1 X2W     -0.481900
     15 C2          4.0520   -2.8570    0.8600 c3        1 X2W     -0.179100
     16 O2         -1.6670    0.6550    1.1140 o         1 X2W     -0.633000
     17 OE2        -2.4410   -0.2380   -0.7400 os        1 X2W     -0.498500
     18 HA          2.5180    0.1850   -1.4500 h1        1 X2W      0.068700
     19 HB1C        0.8610    0.9610    1.0790 hc        1 X2W      0.055700
     20 HB2C        0.9020    1.8980   -0.4640 hc        1 X2W      0.055700
     21 H1          2.8320   -0.6680    1.3630 hn        1 X2W      0.302500
     22 HG1C       -0.1210    0.1000   -1.7120 hc        1 X2W      0.039200
     23 HG2C        0.2050   -1.1150   -0.4170 hc        1 X2W      0.039200
     24 H21C        4.7430   -2.3740    1.5900 hc        1 X2W      0.039700
     25 H22C        3.2010   -3.3210    1.4130 hc        1 X2W      0.039700
     26 H23C        4.6030   -3.6520    0.3050 hc        1 X2W      0.039700
@<TRIPOS>BOND
     1    1    2 1   
     2    1    5 1   
     3    1   14 1   
     4    1   18 1   
     5    2    3 1   
     6    2   19 1   
     7    2   20 1   
     8    3    4 1   
     9    3   22 1   
    10    3   23 1   
    11    4   16 2   
    12    4   17 1   
    13    5    6 1   
    14    5    7 1   
    15    8    9 2   
    16    8   14 1   
    17    8   15 1   
    18   10   11 1   
    19   10   12 1   
    20   10   13 1   
    21   10   17 1   
    22   14   21 1   
    23   15   24 1   
    24   15   25 1   
    25   15   26 1   
@<TRIPOS>SUBSTRUCTURE
     1 X2W         1 TEMP              0 ****  ****    0 ROOT
