@<TRIPOS>MOLECULE
X2X
   16    15     1     0     0
SMALL
bcc


@<TRIPOS>ATOM
      1 OAD         0.3610    0.0990   -0.2370 o         1 X2X     -0.815300
      2 CAH         1.4430    0.4820    0.2680 c         1 X2X      0.905600
      3 OAE         2.1580    1.4390   -0.1490 o         1 X2X     -0.815300
      4 CAI         2.0050   -0.2640    1.5370 c3        1 X2X     -0.077200
      5 CAB         1.7580   -1.7560    1.4380 c3        1 X2X     -0.061100
      6 OAF         3.4090   -0.0540    1.6450 oh        1 X2X     -0.633800
      7 CAG         1.3490    0.3410    2.7670 c         1 X2X      0.586100
      8 OAC         0.5240   -0.2580    3.4700 o         1 X2X     -0.585100
      9 CAA         1.7720    1.7450    3.0690 c3        1 X2X     -0.208100
     10 H2          2.0340   -2.2640    2.3920 hc        1 X2X      0.034033
     11 H3          2.3680   -2.1820    0.6080 hc        1 X2X      0.034033
     12 H4          0.6750   -1.9230    1.2270 hc        1 X2X      0.034033
     13 H5          3.6260    0.7010    1.0730 ho        1 X2X      0.426000
     14 H6          1.7300    2.3440    2.1230 hc        1 X2X      0.058700
     15 H7          2.8310    1.7290    3.4270 hc        1 X2X      0.058700
     16 H8          1.1230    2.2090    3.8460 hc        1 X2X      0.058700
@<TRIPOS>BOND
     1    1    2 1   
     2    2    3 1   
     3    2    4 1   
     4    4    5 1   
     5    4    6 1   
     6    4    7 1   
     7    5   10 1   
     8    5   11 1   
     9    5   12 1   
    10    6   13 1   
    11    7    8 2   
    12    7    9 1   
    13    9   14 1   
    14    9   15 1   
    15    9   16 1   
@<TRIPOS>SUBSTRUCTURE
     1 X2X         1 TEMP              0 ****  ****    0 ROOT
