@<TRIPOS>MOLECULE
X2X
   16    15     1     0     0
SMALL
bcc


@<TRIPOS>ATOM
      1 OAD         0.3320   -0.1510   -0.1930 o         1 X2X     -0.815300
      2 CAH         1.3570    0.3980    0.2760 c         1 X2X      0.905600
      3 OAE         1.9070    1.4460   -0.1720 o         1 X2X     -0.815300
      4 CAI         2.0590   -0.2350    1.5360 c3        1 X2X     -0.077200
      5 CAB         2.0390   -1.7490    1.4610 c3        1 X2X     -0.061100
      6 OAF         3.4180    0.1860    1.6010 oh        1 X2X     -0.633800
      7 CAG         1.3520    0.2810    2.7790 c         1 X2X      0.586100
      8 OAC         0.6470   -0.4250    3.5110 o         1 X2X     -0.585100
      9 CAA         1.5650    1.7380    3.0530 c3        1 X2X     -0.208100
     10 H2          2.4140   -2.1950    2.4120 hc        1 X2X      0.034033
     11 H3          2.6840   -2.0900    0.6180 hc        1 X2X      0.034033
     12 H4          0.9880   -2.0800    1.2820 hc        1 X2X      0.034033
     13 H5          3.5020    0.9570    1.0150 ho        1 X2X      0.426000
     14 H6          1.4070    2.3100    2.1020 hc        1 X2X      0.058700
     15 H7          2.6230    1.8870    3.3800 hc        1 X2X      0.058700
     16 H8          0.8740    2.1100    3.8440 hc        1 X2X      0.058700
@<TRIPOS>BOND
     1    1    2 1   
     2    2    3 1   
     3    2    4 1   
     4    4    5 1   
     5    4    6 1   
     6    4    7 1   
     7    5   10 1   
     8    5   11 1   
     9    5   12 1   
    10    6   13 1   
    11    7    8 2   
    12    7    9 1   
    13    9   14 1   
    14    9   15 1   
    15    9   16 1   
@<TRIPOS>SUBSTRUCTURE
     1 X2X         1 TEMP              0 ****  ****    0 ROOT
