@<TRIPOS>MOLECULE
X2X
   16    15     1     0     0
SMALL
bcc


@<TRIPOS>ATOM
      1 OAD         1.4160   -1.1470   -0.0310 o         1 X2X     -0.815300
      2 CAH         0.8280   -0.1240   -0.4540 c         1 X2X      0.905600
      3 OAE         0.9950    0.4120   -1.5880 o         1 X2X     -0.815300
      4 CAI        -0.2240    0.5950    0.4730 c3        1 X2X     -0.077200
      5 CAB         0.2370    0.5900    1.9170 c3        1 X2X     -0.061100
      6 OAF        -0.3880    1.9500    0.0660 oh        1 X2X     -0.633800
      7 CAG        -1.5610   -0.1060    0.3010 c         1 X2X      0.586100
      8 OAC        -2.0910   -0.7980    1.1800 o         1 X2X     -0.585100
      9 CAA        -2.1990    0.0940   -1.0390 c3        1 X2X     -0.208100
     10 H2          1.1430    1.2320    2.0220 hc        1 X2X      0.034033
     11 H3         -0.5660    0.9770    2.5870 hc        1 X2X      0.034033
     12 H4          0.4900   -0.4590    2.2040 hc        1 X2X      0.034033
     13 H5         -0.0190    2.0210   -0.8300 ho        1 X2X      0.426000
     14 H6         -1.4280   -0.0780   -1.8340 hc        1 X2X      0.058700
     15 H7         -3.0630   -0.5950   -1.1880 hc        1 X2X      0.058700
     16 H8         -2.5480    1.1530   -1.1130 hc        1 X2X      0.058700
@<TRIPOS>BOND
     1    1    2 1   
     2    2    3 1   
     3    2    4 1   
     4    4    5 1   
     5    4    6 1   
     6    4    7 1   
     7    5   10 1   
     8    5   11 1   
     9    5   12 1   
    10    6   13 1   
    11    7    8 2   
    12    7    9 1   
    13    9   14 1   
    14    9   15 1   
    15    9   16 1   
@<TRIPOS>SUBSTRUCTURE
     1 X2X         1 TEMP              0 ****  ****    0 ROOT
