@<TRIPOS>MOLECULE
X32
   66    61     1     0     0
SMALL
bcc


@<TRIPOS>ATOM
      1 C3          4.5050   -5.9590    4.1020 c1        1 X32     -0.125000
      2 C2          4.1400   -7.1770    3.5600 c1        1 X32     -0.131833
      3 C1          3.1700   -7.2290    2.5680 c1        1 X32     -0.131833
      4 C6          2.5740   -6.0680    2.1260 c1        1 X32     -0.131833
      5 C5          2.9410   -4.8520    2.6690 c1        1 X32     -0.131833
      6 C4          3.9060   -4.7980    3.6570 c1        1 X32     -0.086000
      7 C7          4.2690   -3.4720    4.2860 c2        1 X32      0.037000
      8 O8          4.6790   -2.5570    3.2630 os        1 X32     -0.279000
      9 C9          4.1700   -1.2530    3.4260 c2        1 X32      0.382000
     10 O22         3.7760   -0.8820    4.5320 o         1 X32     -0.396000
     11 N10         4.0070   -0.3900    2.2760 n         1 X32     -0.296000
     12 C11         3.0540    0.6390    2.3090 c3        1 X32     -0.727000
     13 P12         2.4680    1.0220    0.5580 p5        1 X32      2.783000
     14 O24         2.7370    2.4450    0.2500 o         1 X32     -1.141000
     15 O23         3.2240    0.1200   -0.4630 oh        1 X32     -0.833000
     16 N13         0.7940    0.7180    0.4490 n3        1 X32     -0.936000
     17 C14         0.1690    0.7050   -0.8020 c3        1 X32      0.007000
     18 C15        -0.3100    2.1620   -1.1670 c2        1 X32      0.276000
     19 O29        -0.0510    3.0690   -0.4470 o         1 X32     -0.379000
     20 C25        -1.0300   -0.2250   -0.7630 c3        1 X32     -0.195000
     21 C26        -0.5590   -1.6700   -0.5530 c3        1 X32     -0.101000
     22 C27        -1.3840   -2.3220    0.4950 c3        1 X32     -0.222000
     23 C28        -0.7180   -2.4590   -1.8950 c3        1 X32     -0.222000
     24 N16        -1.1260    2.3870   -2.3580 n         1 X32     -0.297000
     25 C17        -2.0170    3.5610   -2.4290 c3        1 X32     -0.096000
     26 C18        -2.6550    3.7810   -1.0750 c2        1 X32      0.324000
     27 O37        -3.2480    2.7940   -0.4710 o         1 X32     -0.567500
     28 C30        -3.0530    3.3270   -3.4210 c3        1 X32     -0.108000
     29 C31        -4.1490    4.4200   -3.2910 c2        1 X32     -0.052000
     30 C36        -4.2830    5.3970   -4.2900 c2        1 X32     -0.137000
     31 C32        -5.0320    4.3990   -2.2140 c1        1 X32     -0.119000
     32 C35        -5.2840    6.3370   -4.2070 c1        1 X32     -0.148000
     33 C33        -6.0420    5.3470   -2.1300 c1        1 X32     -0.131833
     34 C34        -6.1720    6.3220   -3.1290 c1        1 X32     -0.131833
     35 O19        -2.5340    4.8890   -0.4950 o         1 X32     -0.567500
     36 H3          5.1930   -5.9180    4.8060 ha        1 X32      0.130000
     37 H2          4.5010   -7.9740    3.9080 ha        1 X32      0.129000
     38 H1          2.9100   -8.0860    2.1830 ha        1 X32      0.129000
     39 H6          1.9010   -6.1030    1.4360 ha        1 X32      0.129000
     40 H5          2.5830   -4.0480    2.3130 ha        1 X32      0.129000
     41 H7          4.9890   -3.6010    4.9090 h4        1 X32      0.103000
     42 H7A         3.4750   -3.1020    4.7680 h4        1 X32      0.103000
     43 HN10        4.5710   -0.4960    1.5140 hn        1 X32      0.243000
     44 H11         2.2880    0.3530    2.8540 h1        1 X32      0.139000
     45 H11A        3.4730    1.4850    2.7240 h1        1 X32      0.139000
     46 HO23        3.9940    0.4580   -0.6290 ho        1 X32      0.274000
     47 HN13        0.2690    0.6930    1.2370 hn        1 X32      0.265000
     48 H14         0.8150    0.3850   -1.4940 h1        1 X32      0.105000
     49 H25        -1.6290    0.0390   -0.0230 hc        1 X32      0.122000
     50 H25A       -1.4980   -0.1660   -1.5830 hc        1 X32      0.122000
     51 H26         0.3590   -1.6720   -0.2840 hc        1 X32      0.066000
     52 H27        -2.3280   -2.2320    0.2690 hc        1 X32      0.080333
     53 H27A       -1.1530   -3.2650    0.5450 hc        1 X32      0.080333
     54 H27B       -1.2020   -1.8720    1.4110 hc        1 X32      0.080333
     55 H28        -1.6510   -2.3330   -2.2430 hc        1 X32      0.080333
     56 H28A       -0.5490   -3.4470   -1.7310 hc        1 X32      0.080333
     57 H28B       -0.0630   -2.1140   -2.5660 hc        1 X32      0.080333
     58 HN16       -1.0720    1.8320   -3.0420 hn        1 X32      0.213000
     59 H17        -1.4790    4.3820   -2.6930 h1        1 X32      0.123000
     60 H30        -2.6480    3.3660   -4.3470 hc        1 X32      0.089500
     61 H30A       -3.4530    2.4420   -3.2750 hc        1 X32      0.089500
     62 H36        -3.6870    5.4090   -5.0140 ha        1 X32      0.120000
     63 H32        -4.9370    3.7110   -1.5090 ha        1 X32      0.198000
     64 H35        -5.3790    7.0580   -4.9480 ha        1 X32      0.111000
     65 H33        -6.6840    5.3350   -1.3490 ha        1 X32      0.129000
     66 H34        -6.8480    6.9570   -3.0750 ha        1 X32      0.129000
@<TRIPOS>BOND
     1    1    6 1   
     2    1   36 1   
     3    2    3 1   
     4    2   37 1   
     5    3   38 1   
     6    4    5 1   
     7    4   39 1   
     8    5   40 1   
     9    7    8 1   
    10    7   41 1   
    11    7   42 1   
    12    8    9 1   
    13    9   10 1   
    14    9   11 1   
    15   11   12 1   
    16   11   43 1   
    17   12   13 1   
    18   12   44 1   
    19   12   45 1   
    20   13   14 1   
    21   13   15 1   
    22   13   16 1   
    23   15   46 1   
    24   16   17 1   
    25   16   47 1   
    26   17   18 1   
    27   17   20 1   
    28   17   48 1   
    29   18   19 1   
    30   18   24 1   
    31   20   21 1   
    32   20   49 1   
    33   20   50 1   
    34   21   22 1   
    35   21   23 1   
    36   21   51 1   
    37   22   52 1   
    38   22   53 1   
    39   22   54 1   
    40   23   55 1   
    41   23   56 1   
    42   23   57 1   
    43   24   25 1   
    44   24   58 1   
    45   25   26 1   
    46   25   28 1   
    47   25   59 1   
    48   26   27 1   
    49   26   35 1   
    50   28   29 1   
    51   28   60 1   
    52   28   61 1   
    53   29   30 1   
    54   29   31 1   
    55   30   32 1   
    56   30   62 1   
    57   31   63 1   
    58   32   64 1   
    59   33   34 1   
    60   33   65 1   
    61   34   66 1   
@<TRIPOS>SUBSTRUCTURE
     1 X32         1 TEMP              0 ****  ****    0 ROOT
