@<TRIPOS>MOLECULE
X32
   66    67     1     0     0
SMALL
bcc


@<TRIPOS>ATOM
      1 C3         -6.3740   -1.0070   -1.3250 ca        1 X32     -0.114000
      2 C2         -7.3370   -1.3790   -2.2640 ca        1 X32     -0.133000
      3 C1         -8.6680   -1.5330   -1.8790 ca        1 X32     -0.132000
      4 C6         -9.0390   -1.3090   -0.5530 ca        1 X32     -0.133000
      5 C5         -8.0820   -0.9310    0.3870 ca        1 X32     -0.114000
      6 C4         -6.7430   -0.7820    0.0040 ca        1 X32     -0.088300
      7 C7         -5.7440   -0.4120    1.0480 c3        1 X32      0.194700
      8 O8         -4.5990    0.1590    0.3900 os        1 X32     -0.444900
      9 C9         -3.6080    0.6100    1.2460 c         1 X32      0.730100
     10 O22        -3.7490    0.4190    2.4650 o         1 X32     -0.583000
     11 N10        -2.6080    1.3040    0.5860 n         1 X32     -0.486900
     12 C11        -1.3330    1.4520    1.2280 c3        1 X32     -0.217200
     13 P12        -0.4110    2.5680    0.3500 p5        1 X32      1.571200
     14 O24        -0.6790    2.5400   -1.0940 o         1 X32     -0.873300
     15 O23        -1.0040    3.9880    0.8640 oh        1 X32     -0.791400
     16 N13         1.0620    2.4470    0.8590 n3        1 X32     -0.994300
     17 C14         2.1140    2.0040   -0.0150 c3        1 X32      0.139500
     18 C15         2.6820    0.6160    0.4150 c         1 X32      0.621100
     19 O29         2.4670    0.1730    1.5620 o         1 X32     -0.632100
     20 C25         3.3170    2.9680   -0.0910 c3        1 X32     -0.106400
     21 C26         3.3240    3.7770   -1.3810 c3        1 X32     -0.058700
     22 C27         4.2690    4.9530   -1.2360 c3        1 X32     -0.100600
     23 C28         3.7480    2.9130   -2.5520 c3        1 X32     -0.100600
     24 N16         3.3510   -0.0860   -0.5720 n         1 X32     -0.481900
     25 C17         4.4450   -0.9750   -0.2060 c3        1 X32     -0.067300
     26 C18         5.8530   -0.2950   -0.4120 c         1 X32      0.904600
     27 O37         5.8840    0.8750   -0.8900 o         1 X32     -0.829800
     28 C30         4.4360   -2.2740   -1.0220 c3        1 X32     -0.036100
     29 C31         3.3000   -3.1750   -0.6940 ca        1 X32     -0.042300
     30 C36         3.2190   -3.7780    0.5690 ca        1 X32     -0.128000
     31 C32         2.3080   -3.4520   -1.6430 ca        1 X32     -0.128000
     32 C35         2.1680   -4.6410    0.8730 ca        1 X32     -0.136500
     33 C33         1.2580   -4.3160   -1.3360 ca        1 X32     -0.136500
     34 C34         1.1850   -4.9140   -0.0790 ca        1 X32     -0.154000
     35 O19         6.8570   -0.9710   -0.0750 o         1 X32     -0.829800
     36 H3         -5.3230   -0.8810   -1.6270 ha        1 X32      0.142000
     37 H2         -7.0420   -1.5520   -3.3090 ha        1 X32      0.129500
     38 H1         -9.4250   -1.8290   -2.6190 ha        1 X32      0.126000
     39 H6        -10.0880   -1.4280   -0.2470 ha        1 X32      0.129500
     40 H5         -8.3770   -0.7500    1.4310 ha        1 X32      0.142000
     41 H7         -6.1610    0.3420    1.7690 h1        1 X32      0.063200
     42 H7A        -5.4090   -1.3200    1.6200 h1        1 X32      0.063200
     43 HN10       -2.5670    1.2030   -0.4120 hn        1 X32      0.338500
     44 H11        -1.5170    1.7990    2.2870 h1        1 X32      0.107700
     45 H11A       -0.8120    0.4570    1.3420 h1        1 X32      0.107700
     46 HO23       -1.3690    4.5310    0.1700 ho        1 X32      0.472000
     47 HN13        1.3510    2.5290    1.8030 hn        1 X32      0.454800
     48 H14         1.6560    1.9040   -1.0500 h1        1 X32      0.091700
     49 H25         3.3080    3.6670    0.7860 hc        1 X32      0.079700
     50 H25A        4.2840    2.3870   -0.0350 hc        1 X32      0.079700
     51 H26         2.2880    4.1750   -1.5770 hc        1 X32      0.031700
     52 H27         5.3050    4.5900   -1.0280 hc        1 X32      0.039033
     53 H27A        4.2850    5.5550   -2.1760 hc        1 X32      0.039033
     54 H27B        3.9470    5.6150   -0.3970 hc        1 X32      0.039033
     55 H28         2.9540    2.1670   -2.7960 hc        1 X32      0.039033
     56 H28A        3.9210    3.5450   -3.4560 hc        1 X32      0.039033
     57 H28B        4.6940    2.3610   -2.3070 hc        1 X32      0.039033
     58 HN16        3.6060    0.4790   -1.3660 hn        1 X32      0.300500
     59 H17         4.3540   -1.2360    0.8870 h1        1 X32      0.076700
     60 H30         4.4370   -2.0350   -2.1180 hc        1 X32      0.064700
     61 H30A        5.4070   -2.7940   -0.7880 hc        1 X32      0.064700
     62 H36         3.9900   -3.5550    1.3220 ha        1 X32      0.134500
     63 H32         2.3560   -2.9770   -2.6340 ha        1 X32      0.134500
     64 H35         2.1110   -5.1040    1.8690 ha        1 X32      0.116000
     65 H33         0.4830   -4.5240   -2.0880 ha        1 X32      0.116000
     66 H34         0.3570   -5.5930    0.1630 ha        1 X32      0.113000
@<TRIPOS>BOND
     1    1    2 ar  
     2    1    6 ar  
     3    1   36 1   
     4    2    3 ar  
     5    2   37 1   
     6    3    4 ar  
     7    3   38 1   
     8    4    5 ar  
     9    4   39 1   
    10    5    6 ar  
    11    5   40 1   
    12    6    7 1   
    13    7    8 1   
    14    7   41 1   
    15    7   42 1   
    16    8    9 1   
    17    9   10 2   
    18    9   11 1   
    19   11   12 1   
    20   11   43 1   
    21   12   13 1   
    22   12   44 1   
    23   12   45 1   
    24   13   14 2   
    25   13   15 1   
    26   13   16 1   
    27   15   46 1   
    28   16   17 1   
    29   16   47 1   
    30   17   18 1   
    31   17   20 1   
    32   17   48 1   
    33   18   19 2   
    34   18   24 1   
    35   20   21 1   
    36   20   49 1   
    37   20   50 1   
    38   21   22 1   
    39   21   23 1   
    40   21   51 1   
    41   22   52 1   
    42   22   53 1   
    43   22   54 1   
    44   23   55 1   
    45   23   56 1   
    46   23   57 1   
    47   24   25 1   
    48   24   58 1   
    49   25   26 1   
    50   25   28 1   
    51   25   59 1   
    52   26   27 1   
    53   26   35 1   
    54   28   29 1   
    55   28   60 1   
    56   28   61 1   
    57   29   30 ar  
    58   29   31 ar  
    59   30   32 ar  
    60   30   62 1   
    61   31   33 ar  
    62   31   63 1   
    63   32   34 ar  
    64   32   64 1   
    65   33   34 ar  
    66   33   65 1   
    67   34   66 1   
@<TRIPOS>SUBSTRUCTURE
     1 X32         1 TEMP              0 ****  ****    0 ROOT
