@<TRIPOS>MOLECULE
X35
   30    31     1     0     0
SMALL
bcc


@<TRIPOS>ATOM
      1 N1         -0.0060    0.0010   -0.2430 nc        1 X35     -0.774000
      2 C2          1.4010    0.0530   -0.1510 cc        1 X35      0.735200
      3 N3          2.1780    0.0570   -1.2700 nh        1 X35     -0.938500
      4 C4          1.9100    0.1330    1.1780 cd        1 X35     -0.422000
      5 C5          3.3010    0.1380    1.5360 c         1 X35      0.649300
      6 C6          3.6330    0.2130    2.9790 ca        1 X35     -0.268900
      7 C7          4.7150   -0.5530    3.4730 ca        1 X35      0.442200
      8 N8          5.0960   -0.5540    4.7630 nb        1 X35     -0.669000
      9 C9          4.4070    0.2330    5.6140 ca        1 X35      0.409200
     10 C10         3.3280    1.0430    5.2180 ca        1 X35     -0.255300
     11 C11         2.9390    1.0300    3.8780 ca        1 X35     -0.071000
     12 O12         4.2210    0.0530    0.6970 o         1 X35     -0.594100
     13 S13         0.6320    0.1580    2.2910 ss        1 X35     -0.157300
     14 C14        -0.5340    0.0350    1.0010 cd        1 X35      0.704300
     15 N15        -1.8770   -0.0970    1.2940 nh        1 X35     -0.820900
     16 C16        -2.8580   -0.0070    0.2310 c3        1 X35      0.226000
     17 C17        -4.2630   -0.0930    0.7390 c2        1 X35     -0.195200
     18 C18        -5.2130    0.7620    0.3730 c2        1 X35     -0.197000
     19 HN3         3.1660    0.0190   -1.1550 hn        1 X35      0.457300
     20 HN3A        1.7760   -0.0950   -2.1600 hn        1 X35      0.457300
     21 H7          5.3020   -1.1890    2.7830 h4        1 X35      0.041100
     22 H9          4.7450    0.2120    6.6650 h4        1 X35      0.023100
     23 H10         2.8090    1.6750    5.9510 ha        1 X35      0.145000
     24 H11         2.1080    1.6680    3.5340 ha        1 X35      0.150000
     25 HN15       -2.1550    0.2880    2.1710 hn        1 X35      0.424800
     26 H16        -2.7160    0.9460   -0.3610 h1        1 X35      0.063700
     27 H16A       -2.6760   -0.8710   -0.4750 h1        1 X35      0.063700
     28 H17        -4.4770   -0.9420    1.4100 ha        1 X35      0.134000
     29 H18        -5.0260    1.6150   -0.2950 ha        1 X35      0.118000
     30 H18A       -6.2530    0.6600    0.7130 ha        1 X35      0.118000
@<TRIPOS>BOND
     1    1    2 1   
     2    1   14 2   
     3    2    3 1   
     4    2    4 2   
     5    3   19 1   
     6    3   20 1   
     7    4    5 1   
     8    4   13 1   
     9    5    6 1   
    10    5   12 2   
    11    6    7 ar  
    12    6   11 ar  
    13    7    8 ar  
    14    7   21 1   
    15    8    9 ar  
    16    9   10 ar  
    17    9   22 1   
    18   10   11 ar  
    19   10   23 1   
    20   11   24 1   
    21   13   14 1   
    22   14   15 1   
    23   15   16 1   
    24   15   25 1   
    25   16   17 1   
    26   16   26 1   
    27   16   27 1   
    28   17   18 2   
    29   17   28 1   
    30   18   29 1   
    31   18   30 1   
@<TRIPOS>SUBSTRUCTURE
     1 X35         1 TEMP              0 ****  ****    0 ROOT
