@<TRIPOS>MOLECULE
X35
   30    31     1     0     0
SMALL
bcc


@<TRIPOS>ATOM
      1 N1         -0.0070   -0.0080   -0.2420 nc        1 X35     -0.774000
      2 C2          1.4010    0.0380   -0.1500 cc        1 X35      0.735200
      3 N3          2.1780    0.0330   -1.2680 nv        1 X35     -0.938500
      4 C4          1.9100    0.1220    1.1790 cd        1 X35     -0.422000
      5 C5          3.3010    0.1230    1.5370 c         1 X35      0.649300
      6 C6          3.6330    0.2030    2.9800 ca        1 X35     -0.268900
      7 C7          4.7110   -0.5650    3.4780 ca        1 X35      0.442200
      8 N8          5.0910   -0.5620    4.7680 nb        1 X35     -0.669000
      9 C9          4.4060    0.2330    5.6140 ca        1 X35      0.409200
     10 C10         3.3320    1.0480    5.2150 ca        1 X35     -0.255300
     11 C11         2.9430    1.0290    3.8740 ca        1 X35     -0.071000
     12 O12         4.2200    0.0290    0.6990 o         1 X35     -0.594100
     13 S13         0.6320    0.1590    2.2910 ss        1 X35     -0.157300
     14 C14        -0.5350    0.0350    1.0010 cd        1 X35      0.704300
     15 N15        -1.8780   -0.0900    1.2950 nu        1 X35     -0.820900
     16 C16        -2.8580   -0.0000    0.2310 c3        1 X35      0.226000
     17 C17        -4.2640   -0.0770    0.7400 c2        1 X35     -0.195200
     18 C18        -5.2100    0.7810    0.3690 c2        1 X35     -0.197000
     19 HN3         1.7750   -0.1220   -2.1580 hn        1 X35      0.457300
     20 HN3A        3.1660   -0.0090   -1.1540 hn        1 X35      0.457300
     21 H7          5.2940   -1.2080    2.7920 h4        1 X35      0.041100
     22 H9          4.7440    0.2160    6.6660 h4        1 X35      0.023100
     23 H10         2.8160    1.6860    5.9440 ha        1 X35      0.145000
     24 H11         2.1150    1.6700    3.5260 ha        1 X35      0.150000
     25 HN15       -2.1540    0.3020    2.1700 hn        1 X35      0.424800
     26 H16        -2.6800   -0.8690   -0.4700 h1        1 X35      0.063700
     27 H16A       -2.7120    0.9480   -0.3660 h1        1 X35      0.063700
     28 H17        -4.4820   -0.9220    1.4140 ha        1 X35      0.134000
     29 H18        -5.0180    1.6290   -0.3030 ha        1 X35      0.118000
     30 H18A       -6.2500    0.6860    0.7090 ha        1 X35      0.118000
@<TRIPOS>BOND
     1    1    2 1   
     2    1   14 2   
     3    2    3 1   
     4    2    4 2   
     5    3   19 1   
     6    3   20 1   
     7    4    5 1   
     8    4   13 1   
     9    5    6 1   
    10    5   12 2   
    11    6    7 ar  
    12    6   11 ar  
    13    7    8 ar  
    14    7   21 1   
    15    8    9 ar  
    16    9   10 ar  
    17    9   22 1   
    18   10   11 ar  
    19   10   23 1   
    20   11   24 1   
    21   13   14 1   
    22   14   15 1   
    23   15   16 1   
    24   15   25 1   
    25   16   17 1   
    26   16   26 1   
    27   16   27 1   
    28   17   18 2   
    29   17   28 1   
    30   18   29 1   
    31   18   30 1   
@<TRIPOS>SUBSTRUCTURE
     1 X35         1 TEMP              0 ****  ****    0 ROOT
