@<TRIPOS>MOLECULE
X35
   32    33     1     0     0
SMALL
bcc


@<TRIPOS>ATOM
      1 N1          0.0600   -0.6760   -0.3480 nc        1 X35     -0.568000
      2 C2          1.4230   -0.5030   -0.1910 cc        1 X35      0.431200
      3 N3          2.3270   -0.6450   -1.3250 n4        1 X35     -0.800300
      4 C4          1.8380   -0.1870    1.1320 cd        1 X35     -0.271000
      5 C5          3.2590   -0.0180    1.5500 c         1 X35      0.646300
      6 C6          3.5230    0.3450    2.9330 ca        1 X35     -0.348900
      7 C7          4.7660   -0.0410    3.5010 ca        1 X35      0.506200
      8 N8          5.1150    0.2400    4.7690 nb        1 X35     -0.628000
      9 C9          4.2480    0.9360    5.5230 ca        1 X35      0.486200
     10 C10         2.9910    1.3870    5.0430 ca        1 X35     -0.230300
     11 C11         2.6360    1.0900    3.7360 ca        1 X35     -0.082000
     12 O12         4.1440   -0.2440    0.7120 o         1 X35     -0.524100
     13 S13         0.5430   -0.1100    2.1340 ss        1 X35      0.367700
     14 C14        -0.5310   -0.4930    0.8650 cd        1 X35      0.346300
     15 N15        -1.9730   -0.6270    1.0110 n4        1 X35     -0.723700
     16 C16        -2.7450    0.4990    0.3420 c3        1 X35      0.173000
     17 C17        -4.2040    0.2850    0.5150 c2        1 X35     -0.303200
     18 C18        -4.9770    1.1010    1.2360 c2        1 X35     -0.065000
     19 HN3         3.2760   -0.8950   -0.9710 hn        1 X35      0.498800
     20 HN3A        1.9940   -1.3760   -1.9710 hn        1 X35      0.498800
     21 H7          5.5100   -0.6040    2.9000 h4        1 X35      0.065100
     22 H9          4.5740    1.1570    6.5620 h4        1 X35      0.072100
     23 H10         2.3340    1.9780    5.6990 ha        1 X35      0.179000
     24 H11         1.6950    1.4990    3.3290 ha        1 X35      0.115000
     25 HN15       -2.2090   -0.6540    2.0120 hn        1 X35      0.475800
     26 H16        -2.4710    0.4860   -0.7540 hx        1 X35      0.114200
     27 H16A       -2.3970    1.4670    0.8020 hx        1 X35      0.114200
     28 H17        -4.6380   -0.5470   -0.0680 ha        1 X35      0.168000
     29 H18        -4.5930    1.9620    1.8040 ha        1 X35      0.155500
     30 H18A       -6.0710    0.9640    1.2840 ha        1 X35      0.155500
     31 H33         2.3850    0.2530   -1.8290 hn        1 X35      0.498800
     32 H152       -2.2810   -1.5210    0.5880 hn        1 X35      0.475800
@<TRIPOS>BOND
     1    1    2 1   
     2    1   14 2   
     3    2    3 1   
     4    2    4 2   
     5    3   19 1   
     6    3   20 1   
     7    3   31 1   
     8    4    5 1   
     9    4   13 1   
    10    5    6 1   
    11    5   12 2   
    12    6    7 ar  
    13    6   11 ar  
    14    7    8 ar  
    15    7   21 1   
    16    8    9 ar  
    17    9   10 ar  
    18    9   22 1   
    19   10   11 ar  
    20   10   23 1   
    21   11   24 1   
    22   13   14 1   
    23   14   15 1   
    24   15   16 1   
    25   15   25 1   
    26   15   32 1   
    27   16   17 1   
    28   16   26 1   
    29   16   27 1   
    30   17   18 2   
    31   17   28 1   
    32   18   29 1   
    33   18   30 1   
@<TRIPOS>SUBSTRUCTURE
     1 X35         1 TEMP              0 ****  ****    0 ROOT
