@<TRIPOS>MOLECULE
X35
   30    31     1     0     0
SMALL
bcc


@<TRIPOS>ATOM
      1 N1          1.9790   -1.4180    0.0340 nc        1 X35     -0.774000
      2 C2          0.6650   -1.9170    0.1590 cc        1 X35      0.735200
      3 N3          0.4330   -3.2480    0.3340 nh        1 X35     -0.938500
      4 C4         -0.3560   -0.9240    0.1230 cd        1 X35     -0.422000
      5 C5         -1.7690   -1.1830    0.1720 c         1 X35      0.649300
      6 C6         -2.6780   -0.0140    0.1070 ca        1 X35     -0.268900
      7 C7         -3.8740   -0.1170   -0.6420 ca        1 X35      0.442200
      8 N8         -4.7630    0.8840   -0.7620 nb        1 X35     -0.669000
      9 C9         -4.4920    2.0360   -0.1160 ca        1 X35      0.409200
     10 C10        -3.3410    2.2320    0.6670 ca        1 X35     -0.255300
     11 C11        -2.4220    1.1870    0.7780 ca        1 X35     -0.071000
     12 O12        -2.2480   -2.3330    0.2350 o         1 X35     -0.594100
     13 S13         0.3320    0.6140   -0.0520 ss        1 X35     -0.157300
     14 C14         1.9330   -0.0740   -0.1020 cd        1 X35      0.704300
     15 N15         3.0250    0.7350   -0.3460 nh        1 X35     -0.820900
     16 C16         4.3640    0.1990   -0.1990 c3        1 X35      0.226000
     17 C17         5.4230    1.2330   -0.4260 c2        1 X35     -0.195200
     18 C18         6.4460    1.4080    0.4070 c2        1 X35     -0.197000
     19 HN3         1.1730   -3.9000    0.2570 hn        1 X35      0.457300
     20 HN3A       -0.5110   -3.5630    0.3430 hn        1 X35      0.457300
     21 H7         -4.1190   -1.0630   -1.1620 h4        1 X35      0.041100
     22 H9         -5.2420    2.8380   -0.2320 h4        1 X35      0.023100
     23 H10        -3.1740    3.1870    1.1820 ha        1 X35      0.145000
     24 H11        -1.5180    1.3050    1.3990 ha        1 X35      0.150000
     25 HN15        2.9100    1.6880   -0.0770 hn        1 X35      0.424800
     26 H16         4.4930   -0.2730    0.8200 h1        1 X35      0.063700
     27 H16A        4.4900   -0.6200   -0.9670 h1        1 X35      0.063700
     28 H17         5.3260    1.8200   -1.3540 ha        1 X35      0.134000
     29 H18         7.2430    2.1350    0.2050 ha        1 X35      0.118000
     30 H18A        6.5650    0.8360    1.3370 ha        1 X35      0.118000
@<TRIPOS>BOND
     1    1    2 1   
     2    1   14 2   
     3    2    3 1   
     4    2    4 2   
     5    3   19 1   
     6    3   20 1   
     7    4    5 1   
     8    4   13 1   
     9    5    6 1   
    10    5   12 2   
    11    6    7 ar  
    12    6   11 ar  
    13    7    8 ar  
    14    7   21 1   
    15    8    9 ar  
    16    9   10 ar  
    17    9   22 1   
    18   10   11 ar  
    19   10   23 1   
    20   11   24 1   
    21   13   14 1   
    22   14   15 1   
    23   15   16 1   
    24   15   25 1   
    25   16   17 1   
    26   16   26 1   
    27   16   27 1   
    28   17   18 2   
    29   17   28 1   
    30   18   29 1   
    31   18   30 1   
@<TRIPOS>SUBSTRUCTURE
     1 X35         1 TEMP              0 ****  ****    0 ROOT
