@<TRIPOS>MOLECULE
X36
   34    36     1     0     0
SMALL
bcc


@<TRIPOS>ATOM
      1 N1          0.1790   -0.0210   -0.3450 nc        1 X36     -0.754000
      2 C2          1.5850    0.0280   -0.2110 cc        1 X36      0.722200
      3 N3          2.3980    0.0000   -1.3050 nv        1 X36     -0.936500
      4 C4          2.0480    0.1330    1.1310 cd        1 X36     -0.417000
      5 C5          3.4280    0.1040    1.5420 c         1 X36      0.643300
      6 C6          3.6990    0.2060    3.0000 ca        1 X36     -0.153600
      7 C7          4.6950   -0.6050    3.5580 ca        1 X36     -0.095500
      8 C8          4.9690   -0.5360    4.9230 ca        1 X36     -0.137500
      9 C9          4.2620    0.3520    5.7340 ca        1 X36     -0.113000
     10 C10         3.2830    1.1740    5.1780 ca        1 X36     -0.137500
     11 C11         2.9990    1.1030    3.8140 ca        1 X36     -0.095500
     12 O12         4.3710   -0.0350    0.7400 o         1 X36     -0.591100
     13 S13         0.7400    0.2370    2.1960 ss        1 X36     -0.128300
     14 C14        -0.3860    0.0830    0.8750 cd        1 X36      0.688300
     15 N15        -1.7480    0.1580    1.1420 nu        1 X36     -0.698300
     16 C16        -2.7330    0.0070    0.1360 ca        1 X36      0.124600
     17 C17        -3.8370   -0.8450    0.3660 ca        1 X36     -0.140500
     18 C18        -4.8570   -0.9370   -0.5750 ca        1 X36     -0.113500
     19 C19        -4.7990   -0.1990   -1.7560 ca        1 X36     -0.141000
     20 C20        -3.7120    0.6400   -1.9910 ca        1 X36     -0.113500
     21 C21        -2.6840    0.7540   -1.0590 ca        1 X36     -0.140500
     22 HN3         3.3790   -0.0760   -1.1520 hn        1 X36      0.455300
     23 HN3A        2.0230   -0.2060   -2.1970 hn        1 X36      0.455300
     24 H7          5.2610   -1.2890    2.9060 ha        1 X36      0.147000
     25 H8          5.7480   -1.1800    5.3590 ha        1 X36      0.135000
     26 H9          4.4810    0.4070    6.8110 ha        1 X36      0.133000
     27 H10         2.7330    1.8840    5.8140 ha        1 X36      0.135000
     28 H11         2.2380    1.7730    3.3790 ha        1 X36      0.147000
     29 HN15       -2.0020   -0.2380    2.0250 hn        1 X36      0.429800
     30 H17        -3.9020   -1.4400    1.2900 ha        1 X36      0.142500
     31 H18        -5.7130   -1.6010   -0.3820 ha        1 X36      0.135000
     32 H19        -5.6060   -0.2800   -2.4980 ha        1 X36      0.135000
     33 H20        -3.6620    1.2260   -2.9220 ha        1 X36      0.135000
     34 H21        -1.8380    1.4280   -1.2650 ha        1 X36      0.142500
@<TRIPOS>BOND
     1    1    2 1   
     2    1   14 2   
     3    2    3 1   
     4    2    4 2   
     5    3   22 1   
     6    3   23 1   
     7    4    5 1   
     8    4   13 1   
     9    5    6 1   
    10    5   12 2   
    11    6    7 ar  
    12    6   11 ar  
    13    7    8 ar  
    14    7   24 1   
    15    8    9 ar  
    16    8   25 1   
    17    9   10 ar  
    18    9   26 1   
    19   10   11 ar  
    20   10   27 1   
    21   11   28 1   
    22   13   14 1   
    23   14   15 1   
    24   15   16 1   
    25   15   29 1   
    26   16   17 ar  
    27   16   21 ar  
    28   17   18 ar  
    29   17   30 1   
    30   18   19 ar  
    31   18   31 1   
    32   19   20 ar  
    33   19   32 1   
    34   20   21 ar  
    35   20   33 1   
    36   21   34 1   
@<TRIPOS>SUBSTRUCTURE
     1 X36         1 TEMP              0 ****  ****    0 ROOT
