@<TRIPOS>MOLECULE
X36
   36    38     1     0     0
SMALL
bcc


@<TRIPOS>ATOM
      1 N1          0.8650    2.1200   -1.0290 nc        1 X36     -0.580000
      2 C2          2.0830    1.9230   -0.4100 cc        1 X36      0.431200
      3 N3          3.2720    2.6410   -0.8520 n4        1 X36     -0.800300
      4 C4          2.0620    0.9900    0.6630 cd        1 X36     -0.300000
      5 C5          3.2550    0.5690    1.4460 c         1 X36      0.639300
      6 C6          3.0240   -0.3860    2.5280 ca        1 X36     -0.212600
      7 C7          4.0420   -1.3010    2.8370 ca        1 X36     -0.087000
      8 C8          3.8510   -2.2400    3.8530 ca        1 X36     -0.111000
      9 C9          2.6570   -2.2600    4.5710 ca        1 X36     -0.056000
     10 C10         1.6500   -1.3290    4.2850 ca        1 X36     -0.111000
     11 C11         1.8310   -0.3930    3.2730 ca        1 X36     -0.087000
     12 O12         4.3680    0.9990    1.1120 o         1 X36     -0.522100
     13 S13         0.5540    0.3920    0.8810 ss        1 X36      0.430700
     14 C14        -0.0500    1.3220   -0.4060 cd        1 X36      0.328300
     15 N15        -1.4420    1.3170   -0.8540 n4        1 X36     -0.573100
     16 C16        -2.2860    0.4180   -0.0540 ca        1 X36     -0.113400
     17 C17        -2.9910    0.9340    1.0520 ca        1 X36     -0.097500
     18 C18        -3.8590    0.0960    1.7470 ca        1 X36     -0.098500
     19 C19        -4.0330   -1.2330    1.3490 ca        1 X36     -0.045000
     20 C20        -3.3330   -1.7340    0.2480 ca        1 X36     -0.098500
     21 C21        -2.4580   -0.9170   -0.4650 ca        1 X36     -0.097500
     22 HN3         3.2570    3.5980   -0.4680 hn        1 X36      0.496800
     23 HN3A        4.1180    2.1450   -0.4970 hn        1 X36      0.496800
     24 H7          4.9930   -1.2730    2.2770 ha        1 X36      0.143000
     25 H8          4.6540   -2.9590    4.0900 ha        1 X36      0.170500
     26 H9          2.5080   -2.9970    5.3790 ha        1 X36      0.176000
     27 H10         0.7240   -1.3260    4.8820 ha        1 X36      0.170500
     28 H11         1.0670    0.3920    3.1370 ha        1 X36      0.143000
     29 HN15       -1.4740    1.0180   -1.8450 hn        1 X36      0.486300
     30 H17        -2.8870    1.9860    1.3650 ha        1 X36      0.164000
     31 H18        -4.4230    0.4940    2.6090 ha        1 X36      0.188500
     32 H19        -4.7360   -1.8850    1.8990 ha        1 X36      0.190000
     33 H20        -3.4810   -2.7810   -0.0720 ha        1 X36      0.188500
     34 H21        -1.9350   -1.3250   -1.3470 ha        1 X36      0.164000
     35 H33         3.3060    2.6900   -1.8810 hn        1 X36      0.496800
     36 H152       -1.8210    2.2790   -0.7950 hn        1 X36      0.486300
@<TRIPOS>BOND
     1    1    2 1   
     2    1   14 2   
     3    2    3 1   
     4    2    4 2   
     5    3   22 1   
     6    3   23 1   
     7    3   35 1   
     8    4    5 1   
     9    4   13 1   
    10    5    6 1   
    11    5   12 2   
    12    6    7 ar  
    13    6   11 ar  
    14    7    8 ar  
    15    7   24 1   
    16    8    9 ar  
    17    8   25 1   
    18    9   10 ar  
    19    9   26 1   
    20   10   11 ar  
    21   10   27 1   
    22   11   28 1   
    23   13   14 1   
    24   14   15 1   
    25   15   16 1   
    26   15   29 1   
    27   15   36 1   
    28   16   17 ar  
    29   16   21 ar  
    30   17   18 ar  
    31   17   30 1   
    32   18   19 ar  
    33   18   31 1   
    34   19   20 ar  
    35   19   32 1   
    36   20   21 ar  
    37   20   33 1   
    38   21   34 1   
@<TRIPOS>SUBSTRUCTURE
     1 X36         1 TEMP              0 ****  ****    0 ROOT
