@<TRIPOS>MOLECULE
X36
   34    36     1     0     0
SMALL
bcc


@<TRIPOS>ATOM
      1 N1          1.2830   -1.2150    0.0220 nc        1 X36     -0.754000
      2 C2          0.0120   -1.8310    0.0470 cc        1 X36      0.722200
      3 N3         -0.1130   -3.1880    0.0620 nh        1 X36     -0.936500
      4 C4         -1.0850   -0.9230    0.0820 cd        1 X36     -0.417000
      5 C5         -2.4750   -1.2920    0.0160 c         1 X36      0.643300
      6 C6         -3.4670   -0.1870    0.0440 ca        1 X36     -0.153600
      7 C7         -4.5790   -0.2570   -0.8050 ca        1 X36     -0.095500
      8 C8         -5.5240    0.7670   -0.8060 ca        1 X36     -0.137500
      9 C9         -5.3740    1.8580    0.0510 ca        1 X36     -0.113000
     10 C10        -4.2780    1.9220    0.9110 ca        1 X36     -0.137500
     11 C11        -3.3250    0.9040    0.9090 ca        1 X36     -0.095500
     12 O12        -2.8580   -2.4730   -0.0950 o         1 X36     -0.591100
     13 S13        -0.5240    0.6700    0.1500 ss        1 X36     -0.128300
     14 C14         1.1290    0.1240    0.0740 cd        1 X36      0.688300
     15 N15         2.1500    1.0630    0.1520 nh        1 X36     -0.698300
     16 C16         3.5190    0.7120    0.0610 ca        1 X36      0.124600
     17 C17         4.3710    1.4540   -0.7880 ca        1 X36     -0.140500
     18 C18         5.7340    1.1800   -0.8230 ca        1 X36     -0.113500
     19 C19         6.2730    0.1680   -0.0310 ca        1 X36     -0.141000
     20 C20         5.4380   -0.5700    0.8070 ca        1 X36     -0.113500
     21 C21         4.0720   -0.3060    0.8630 ca        1 X36     -0.140500
     22 HN3         0.6780   -3.7620   -0.0960 hn        1 X36      0.455300
     23 HN3A       -1.0270   -3.5710   -0.0330 hn        1 X36      0.455300
     24 H7         -4.6990   -1.1320   -1.4630 ha        1 X36      0.147000
     25 H8         -6.3920    0.7100   -1.4790 ha        1 X36      0.135000
     26 H9         -6.1220    2.6640    0.0510 ha        1 X36      0.133000
     27 H10        -4.1650    2.7750    1.5960 ha        1 X36      0.135000
     28 H11        -2.4730    0.9520    1.6090 ha        1 X36      0.147000
     29 HN15        1.9210    1.9350   -0.2820 hn        1 X36      0.429800
     30 H17         3.9670    2.2560   -1.4250 ha        1 X36      0.142500
     31 H18         6.3880    1.7670   -1.4860 ha        1 X36      0.135000
     32 H19         7.3500   -0.0480   -0.0670 ha        1 X36      0.135000
     33 H20         5.8580   -1.3700    1.4350 ha        1 X36      0.135000
     34 H21         3.4340   -0.8990    1.5360 ha        1 X36      0.142500
@<TRIPOS>BOND
     1    1    2 1   
     2    1   14 2   
     3    2    3 1   
     4    2    4 2   
     5    3   22 1   
     6    3   23 1   
     7    4    5 1   
     8    4   13 1   
     9    5    6 1   
    10    5   12 2   
    11    6    7 ar  
    12    6   11 ar  
    13    7    8 ar  
    14    7   24 1   
    15    8    9 ar  
    16    8   25 1   
    17    9   10 ar  
    18    9   26 1   
    19   10   11 ar  
    20   10   27 1   
    21   11   28 1   
    22   13   14 1   
    23   14   15 1   
    24   15   16 1   
    25   15   29 1   
    26   16   17 ar  
    27   16   21 ar  
    28   17   18 ar  
    29   17   30 1   
    30   18   19 ar  
    31   18   31 1   
    32   19   20 ar  
    33   19   32 1   
    34   20   21 ar  
    35   20   33 1   
    36   21   34 1   
@<TRIPOS>SUBSTRUCTURE
     1 X36         1 TEMP              0 ****  ****    0 ROOT
