@<TRIPOS>MOLECULE
X36
   34    36     1     0     0
SMALL
bcc


@<TRIPOS>ATOM
      1 N1          0.1800   -0.0200   -0.3440 nc        1 X36     -0.754000
      2 C2          1.5860    0.0240   -0.2100 cc        1 X36      0.722200
      3 N3          2.3990   -0.0050   -1.3040 nh        1 X36     -0.936500
      4 C4          2.0500    0.1270    1.1320 cd        1 X36     -0.417000
      5 C5          3.4290    0.0930    1.5430 c         1 X36      0.643300
      6 C6          3.7010    0.1930    3.0000 ca        1 X36     -0.153600
      7 C7          4.6960   -0.6210    3.5580 ca        1 X36     -0.095500
      8 C8          4.9700   -0.5540    4.9230 ca        1 X36     -0.137500
      9 C9          4.2660    0.3360    5.7340 ca        1 X36     -0.113000
     10 C10         3.2880    1.1610    5.1790 ca        1 X36     -0.137500
     11 C11         3.0040    1.0920    3.8150 ca        1 X36     -0.095500
     12 O12         4.3720   -0.0480    0.7400 o         1 X36     -0.591100
     13 S13         0.7420    0.2340    2.1980 ss        1 X36     -0.128300
     14 C14        -0.3850    0.0840    0.8760 cd        1 X36      0.688300
     15 N15        -1.7460    0.1640    1.1430 nh        1 X36     -0.698300
     16 C16        -2.7320    0.0160    0.1370 ca        1 X36      0.124600
     17 C17        -3.8380   -0.8330    0.3670 ca        1 X36     -0.140500
     18 C18        -4.8590   -0.9190   -0.5740 ca        1 X36     -0.113500
     19 C19        -4.7990   -0.1800   -1.7540 ca        1 X36     -0.141000
     20 C20        -3.7100    0.6560   -1.9880 ca        1 X36     -0.113500
     21 C21        -2.6810    0.7650   -1.0560 ca        1 X36     -0.140500
     22 HN3         3.3790   -0.0850   -1.1510 hn        1 X36      0.455300
     23 HN3A        2.0230   -0.2100   -2.1970 hn        1 X36      0.455300
     24 H7          5.2590   -1.3060    2.9050 ha        1 X36      0.147000
     25 H8          5.7470   -1.2000    5.3570 ha        1 X36      0.135000
     26 H9          4.4850    0.3910    6.8110 ha        1 X36      0.133000
     27 H10         2.7410    1.8730    5.8150 ha        1 X36      0.135000
     28 H11         2.2450    1.7640    3.3810 ha        1 X36      0.147000
     29 HN15       -2.0010   -0.2330    2.0260 hn        1 X36      0.429800
     30 H17        -3.9050   -1.4280    1.2900 ha        1 X36      0.142500
     31 H18        -5.7170   -1.5820   -0.3820 ha        1 X36      0.135000
     32 H19        -5.6070   -0.2580   -2.4960 ha        1 X36      0.135000
     33 H20        -3.6570    1.2430   -2.9180 ha        1 X36      0.135000
     34 H21        -1.8330    1.4370   -1.2620 ha        1 X36      0.142500
@<TRIPOS>BOND
     1    1    2 1   
     2    1   14 2   
     3    2    3 1   
     4    2    4 2   
     5    3   22 1   
     6    3   23 1   
     7    4    5 1   
     8    4   13 1   
     9    5    6 1   
    10    5   12 2   
    11    6    7 ar  
    12    6   11 ar  
    13    7    8 ar  
    14    7   24 1   
    15    8    9 ar  
    16    8   25 1   
    17    9   10 ar  
    18    9   26 1   
    19   10   11 ar  
    20   10   27 1   
    21   11   28 1   
    22   13   14 1   
    23   14   15 1   
    24   15   16 1   
    25   15   29 1   
    26   16   17 ar  
    27   16   21 ar  
    28   17   18 ar  
    29   17   30 1   
    30   18   19 ar  
    31   18   31 1   
    32   19   20 ar  
    33   19   32 1   
    34   20   21 ar  
    35   20   33 1   
    36   21   34 1   
@<TRIPOS>SUBSTRUCTURE
     1 X36         1 TEMP              0 ****  ****    0 ROOT
