@<TRIPOS>MOLECULE
X37
   57    60     1     0     0
SMALL
bcc


@<TRIPOS>ATOM
      1 N1         -0.0950   -0.1560   -0.2230 nh        1 X37     -0.728300
      2 C2          1.3470   -0.0920   -0.0480 c3        1 X37      0.165800
      3 C3          1.7580   -0.1540    1.4220 c3        1 X37     -0.109400
      4 C4          1.1700   -1.3840    2.1320 c3        1 X37      0.144200
      5 N5          1.7850   -2.6500    1.5540 n4        1 X37     -0.844600
      6 C9          1.4980   -1.3140    3.6390 c3        1 X37     -0.051100
      7 C10         1.2500   -2.5970    4.3480 ca        1 X37     -0.165300
      8 C11         2.2850   -3.5310    4.4990 ca        1 X37     -0.135000
      9 C12         2.0680   -4.7170    5.1910 ca        1 X37     -0.117500
     10 C13         0.8120   -5.0060    5.7530 ca        1 X37     -0.026300
     11 C14        -0.2140   -4.0660    5.6040 ca        1 X37     -0.117500
     12 C15         0.0020   -2.8750    4.9110 ca        1 X37     -0.135000
     13 C16         0.6220   -6.2980    6.5030 c3        1 X37     -0.019700
     14 C17         1.5880   -6.3390    7.6850 c3        1 X37     -0.090100
     15 C18        -0.7960   -6.4540    7.0390 c3        1 X37     -0.090100
     16 C19         0.9140   -7.4710    5.5710 c3        1 X37     -0.090100
     17 C20        -0.3500   -1.4010    1.9100 c3        1 X37     -0.109400
     18 C21        -0.7260   -1.2920    0.4340 c3        1 X37      0.165800
     19 C22        -0.5570    0.0280   -1.5720 ca        1 X37      0.653200
     20 N23         0.2410   -0.2580   -2.6360 nb        1 X37     -0.767000
     21 C24        -0.2550   -0.0000   -3.8840 ca        1 X37      0.659900
     22 N25        -1.4590    0.4940   -4.2340 nb        1 X37     -0.677000
     23 C26        -2.2650    0.7710   -3.1640 ca        1 X37      0.451800
     24 N27        -3.5600    1.2940   -3.1480 na        1 X37     -0.271100
     25 C29        -3.9670    1.4140   -1.8160 cc        1 X37     -0.084100
     26 C30        -2.9640    0.9720   -0.9550 cd        1 X37     -0.170200
     27 C31        -1.8600    0.5520   -1.7740 ca        1 X37     -0.304400
     28 HN5         1.4490   -3.4590    2.0900 hn        1 X37      0.458800
     29 HN5A        2.8030   -2.5960    1.6320 hn        1 X37      0.458800
     30 HN5B        1.5180   -2.7420    0.5700 hn        1 X37      0.458800
     31 HN27       -4.0820    1.5510   -3.9470 hn        1 X37      0.325700
     32 H2          1.6930    0.8950   -0.4730 h1        1 X37      0.059450
     33 H2A         1.8910   -0.9040   -0.6150 h1        1 X37      0.059450
     34 H3          1.3780    0.7530    1.9650 hc        1 X37      0.090700
     35 H3A         2.8770   -0.1420    1.4900 hc        1 X37      0.090700
     36 H9          2.5710   -1.0040    3.7670 hc        1 X37      0.088700
     37 H9A         0.8640   -0.4970    4.0810 hc        1 X37      0.088700
     38 H11         3.2910   -3.3070    4.1110 ha        1 X37      0.132000
     39 H12         2.8970   -5.4320    5.3130 ha        1 X37      0.155500
     40 H14        -1.2090   -4.2460    6.0420 ha        1 X37      0.155500
     41 H15        -0.8150   -2.1420    4.8240 ha        1 X37      0.132000
     42 H17         1.4480   -7.2900    8.2530 hc        1 X37      0.044367
     43 H17A        2.6460   -6.2890    7.3350 hc        1 X37      0.044367
     44 H17B        1.3960   -5.4810    8.3730 hc        1 X37      0.044367
     45 H18        -1.0400   -5.6360    7.7580 hc        1 X37      0.044367
     46 H18A       -1.5380   -6.4470    6.2050 hc        1 X37      0.044367
     47 H18B       -0.8850   -7.4300    7.5770 hc        1 X37      0.044367
     48 H19         1.9640   -7.4280    5.1940 hc        1 X37      0.044367
     49 H19A        0.2160   -7.4600    4.7010 hc        1 X37      0.044367
     50 H19B        0.7780   -8.4330    6.1240 hc        1 X37      0.044367
     51 H20        -0.7750   -0.5240    2.4700 hc        1 X37      0.090700
     52 H20A       -0.8070   -2.3290    2.3440 hc        1 X37      0.090700
     53 H21        -0.4870   -2.2670   -0.0860 h1        1 X37      0.059450
     54 H21A       -1.8430   -1.1430    0.3610 h1        1 X37      0.059450
     55 H24         0.4350   -0.2370   -4.7230 h5        1 X37      0.065100
     56 H29        -4.9570    1.8130   -1.5800 h4        1 X37      0.185000
     57 H30        -2.9970    0.9660    0.1310 ha        1 X37      0.163000
@<TRIPOS>BOND
     1    1    2 1   
     2    1   18 1   
     3    1   19 1   
     4    2    3 1   
     5    2   32 1   
     6    2   33 1   
     7    3    4 1   
     8    3   34 1   
     9    3   35 1   
    10    4    5 1   
    11    4    6 1   
    12    4   17 1   
    13    5   28 1   
    14    5   29 1   
    15    5   30 1   
    16    6    7 1   
    17    6   36 1   
    18    6   37 1   
    19    7    8 ar  
    20    7   12 ar  
    21    8    9 ar  
    22    8   38 1   
    23    9   10 ar  
    24    9   39 1   
    25   10   11 ar  
    26   10   13 1   
    27   11   12 ar  
    28   11   40 1   
    29   12   41 1   
    30   13   14 1   
    31   13   15 1   
    32   13   16 1   
    33   14   42 1   
    34   14   43 1   
    35   14   44 1   
    36   15   45 1   
    37   15   46 1   
    38   15   47 1   
    39   16   48 1   
    40   16   49 1   
    41   16   50 1   
    42   17   18 1   
    43   17   51 1   
    44   17   52 1   
    45   18   53 1   
    46   18   54 1   
    47   19   20 ar  
    48   19   27 ar  
    49   20   21 ar  
    50   21   22 ar  
    51   21   55 1   
    52   22   23 ar  
    53   23   24 1   
    54   23   27 ar  
    55   24   25 1   
    56   24   31 1   
    57   25   26 2   
    58   25   56 1   
    59   26   27 1   
    60   26   57 1   
@<TRIPOS>SUBSTRUCTURE
     1 X37         1 TEMP              0 ****  ****    0 ROOT
