@<TRIPOS>MOLECULE
X37
   57    60     1     0     0
SMALL
bcc


@<TRIPOS>ATOM
      1 N1         -2.5980   -0.6520   -0.2430 nh        1 X37     -0.728300
      2 C2         -2.1550   -2.0150    0.0000 c3        1 X37      0.165800
      3 C3         -0.8450   -2.3370   -0.7170 c3        1 X37     -0.109400
      4 C4          0.2610   -1.3270   -0.3760 c3        1 X37      0.144200
      5 N5          0.6380   -1.4590    1.0920 n4        1 X37     -0.844600
      6 C9          1.5080   -1.6180   -1.2390 c3        1 X37     -0.051100
      7 C10         2.7240   -0.9070   -0.7620 ca        1 X37     -0.165300
      8 C11         3.6010   -1.5320    0.1350 ca        1 X37     -0.135000
      9 C12         4.7560   -0.8840    0.5570 ca        1 X37     -0.117500
     10 C13         5.0710    0.4060    0.0940 ca        1 X37     -0.026300
     11 C14         4.1940    1.0210   -0.8060 ca        1 X37     -0.117500
     12 C15         3.0350    0.3720   -1.2310 ca        1 X37     -0.135000
     13 C16         6.3390    1.0670    0.5680 c3        1 X37     -0.019700
     14 C17         7.5350    0.2120    0.1580 c3        1 X37     -0.090100
     15 C18         6.5210    2.4600   -0.0220 c3        1 X37     -0.090100
     16 C19         6.3050    1.1930    2.0900 c3        1 X37     -0.090100
     17 C20        -0.2650    0.0910   -0.6480 c3        1 X37     -0.109400
     18 C21        -1.5960    0.3630    0.0480 c3        1 X37      0.165800
     19 C22        -3.8900   -0.3230    0.2970 ca        1 X37      0.653200
     20 N23        -4.3990   -0.9920    1.3670 nb        1 X37     -0.767000
     21 C24        -5.6580   -0.6560    1.7810 ca        1 X37      0.659900
     22 N25        -6.4940    0.2790    1.2870 nb        1 X37     -0.677000
     23 C26        -5.9770    0.9590    0.2170 ca        1 X37      0.451800
     24 N27        -6.5560    1.9780   -0.5410 na        1 X37     -0.271100
     25 C29        -5.6490    2.3500   -1.5390 cc        1 X37     -0.084100
     26 C30        -4.4800    1.5970   -1.4440 cd        1 X37     -0.170200
     27 C31        -4.6460    0.6970   -0.3360 ca        1 X37     -0.304400
     28 HN5         0.9110   -2.4250    1.2850 hn        1 X37      0.458800
     29 HN5A        1.4330   -0.8400    1.2900 hn        1 X37      0.458800
     30 HN5B       -0.1630   -1.2030    1.6760 hn        1 X37      0.458800
     31 HN27       -7.4600    2.3510   -0.4010 hn        1 X37      0.325700
     32 H2         -2.0360   -2.2450    1.1010 h1        1 X37      0.059450
     33 H2A        -2.9560   -2.7050   -0.3950 h1        1 X37      0.059450
     34 H3         -0.5340   -3.3830   -0.4600 hc        1 X37      0.090700
     35 H3A        -0.9980   -2.2960   -1.8300 hc        1 X37      0.090700
     36 H9          1.6930   -2.7270   -1.2540 hc        1 X37      0.088700
     37 H9A         1.2650   -1.3100   -2.2920 hc        1 X37      0.088700
     38 H11         3.4030   -2.5600    0.4740 ha        1 X37      0.132000
     39 H12         5.4420   -1.3970    1.2510 ha        1 X37      0.155500
     40 H14         4.4110    2.0250   -1.2050 ha        1 X37      0.155500
     41 H15         2.3700    0.8680   -1.9560 ha        1 X37      0.132000
     42 H17         7.5710    0.1010   -0.9520 hc        1 X37      0.044367
     43 H17A        8.4810    0.7010    0.4980 hc        1 X37      0.044367
     44 H17B        7.4750   -0.8020    0.6200 hc        1 X37      0.044367
     45 H18         5.6740    3.1270    0.2660 hc        1 X37      0.044367
     46 H18A        7.4680    2.9090    0.3670 hc        1 X37      0.044367
     47 H18B        6.5900    2.4120   -1.1350 hc        1 X37      0.044367
     48 H19         6.2250    0.1890    2.5700 hc        1 X37      0.044367
     49 H19A        7.2450    1.6800    2.4470 hc        1 X37      0.044367
     50 H19B        5.4370    1.8170    2.4100 hc        1 X37      0.044367
     51 H20         0.4850    0.8630   -0.3340 hc        1 X37      0.090700
     52 H20A       -0.3970    0.1860   -1.7600 hc        1 X37      0.090700
     53 H21        -1.9990    1.3490   -0.3280 h1        1 X37      0.059450
     54 H21A       -1.4220    0.4780    1.1590 h1        1 X37      0.059450
     55 H24        -6.0390   -1.2360    2.6500 h5        1 X37      0.065100
     56 H29        -5.9120    3.1350   -2.2530 h4        1 X37      0.185000
     57 H30        -3.6140    1.6590   -2.0970 ha        1 X37      0.163000
@<TRIPOS>BOND
     1    1    2 1   
     2    1   18 1   
     3    1   19 1   
     4    2    3 1   
     5    2   32 1   
     6    2   33 1   
     7    3    4 1   
     8    3   34 1   
     9    3   35 1   
    10    4    5 1   
    11    4    6 1   
    12    4   17 1   
    13    5   28 1   
    14    5   29 1   
    15    5   30 1   
    16    6    7 1   
    17    6   36 1   
    18    6   37 1   
    19    7    8 ar  
    20    7   12 ar  
    21    8    9 ar  
    22    8   38 1   
    23    9   10 ar  
    24    9   39 1   
    25   10   11 ar  
    26   10   13 1   
    27   11   12 ar  
    28   11   40 1   
    29   12   41 1   
    30   13   14 1   
    31   13   15 1   
    32   13   16 1   
    33   14   42 1   
    34   14   43 1   
    35   14   44 1   
    36   15   45 1   
    37   15   46 1   
    38   15   47 1   
    39   16   48 1   
    40   16   49 1   
    41   16   50 1   
    42   17   18 1   
    43   17   51 1   
    44   17   52 1   
    45   18   53 1   
    46   18   54 1   
    47   19   20 ar  
    48   19   27 ar  
    49   20   21 ar  
    50   21   22 ar  
    51   21   55 1   
    52   22   23 ar  
    53   23   24 1   
    54   23   27 ar  
    55   24   25 1   
    56   24   31 1   
    57   25   26 2   
    58   25   56 1   
    59   26   27 1   
    60   26   57 1   
@<TRIPOS>SUBSTRUCTURE
     1 X37         1 TEMP              0 ****  ****    0 ROOT
