@<TRIPOS>MOLECULE
X37
   57    60     1     0     0
SMALL
bcc


@<TRIPOS>ATOM
      1 N1         -0.0900   -0.1580   -0.2240 nh        1 X37     -0.728300
      2 C2          1.3520   -0.0990   -0.0520 c3        1 X37      0.165800
      3 C3          1.7650   -0.1620    1.4180 c3        1 X37     -0.109400
      4 C4          1.1730   -1.3880    2.1300 c3        1 X37      0.144200
      5 N5          1.7820   -2.6570    1.5520 n4        1 X37     -0.844600
      6 C9          1.5030   -1.3180    3.6360 c3        1 X37     -0.051100
      7 C10         1.2520   -2.6000    4.3460 ca        1 X37     -0.165300
      8 C11         2.2840   -3.5370    4.4970 ca        1 X37     -0.135000
      9 C12         2.0630   -4.7210    5.1900 ca        1 X37     -0.117500
     10 C13         0.8080   -5.0050    5.7550 ca        1 X37     -0.026300
     11 C14        -0.2160   -4.0630    5.6060 ca        1 X37     -0.117500
     12 C15         0.0040   -2.8730    4.9120 ca        1 X37     -0.135000
     13 C16         0.6150   -6.2960    6.5060 c3        1 X37     -0.019700
     14 C17         1.5820   -6.3390    7.6870 c3        1 X37     -0.090100
     15 C18        -0.8030   -6.4470    7.0440 c3        1 X37     -0.090100
     16 C19         0.9010   -7.4720    5.5750 c3        1 X37     -0.090100
     17 C20        -0.3480   -1.4000    1.9100 c3        1 X37     -0.109400
     18 C21        -0.7250   -1.2900    0.4340 c3        1 X37      0.165800
     19 C22        -0.5530    0.0270   -1.5730 ca        1 X37      0.653200
     20 N23         0.2420   -0.2630   -2.6380 nb        1 X37     -0.767000
     21 C24        -0.2540   -0.0040   -3.8860 ca        1 X37      0.659900
     22 N25        -1.4570    0.4950   -4.2350 nb        1 X37     -0.677000
     23 C26        -2.2600    0.7770   -3.1640 ca        1 X37      0.451800
     24 N27        -3.5530    1.3040   -3.1470 na        1 X37     -0.271100
     25 C29        -3.9580    1.4270   -1.8140 cc        1 X37     -0.084100
     26 C30        -2.9560    0.9820   -0.9540 cd        1 X37     -0.170200
     27 C31        -1.8540    0.5570   -1.7740 ca        1 X37     -0.304400
     28 HN5         1.5140   -2.7490    0.5680 hn        1 X37      0.458800
     29 HN5A        2.8000   -2.6080    1.6290 hn        1 X37      0.458800
     30 HN5B        1.4430   -3.4650    2.0890 hn        1 X37      0.458800
     31 HN27       -4.0750    1.5630   -3.9450 hn        1 X37      0.325700
     32 H2          1.8930   -0.9130   -0.6190 h1        1 X37      0.059450
     33 H2A         1.7020    0.8860   -0.4780 h1        1 X37      0.059450
     34 H3          2.8840   -0.1540    1.4840 hc        1 X37      0.090700
     35 H3A         1.3900    0.7480    1.9610 hc        1 X37      0.090700
     36 H9          2.5770   -1.0120    3.7630 hc        1 X37      0.088700
     37 H9A         0.8730   -0.4990    4.0790 hc        1 X37      0.088700
     38 H11         3.2900   -3.3170    4.1070 ha        1 X37      0.132000
     39 H12         2.8910   -5.4400    5.3120 ha        1 X37      0.155500
     40 H14        -1.2110   -4.2390    6.0460 ha        1 X37      0.155500
     41 H15        -0.8110   -2.1370    4.8250 ha        1 X37      0.132000
     42 H17         2.6400   -6.2940    7.3350 hc        1 X37      0.044367
     43 H17A        1.4390   -7.2900    8.2560 hc        1 X37      0.044367
     44 H17B        1.3940   -5.4810    8.3740 hc        1 X37      0.044367
     45 H18        -0.8950   -7.4220    7.5840 hc        1 X37      0.044367
     46 H18A       -1.0430   -5.6270    7.7630 hc        1 X37      0.044367
     47 H18B       -1.5460   -6.4380    6.2120 hc        1 X37      0.044367
     48 H19         0.7630   -8.4320    6.1290 hc        1 X37      0.044367
     49 H19A        1.9500   -7.4320    5.1960 hc        1 X37      0.044367
     50 H19B        0.2020   -7.4590    4.7060 hc        1 X37      0.044367
     51 H20        -0.7680   -0.5200    2.4700 hc        1 X37      0.090700
     52 H20A       -0.8080   -2.3250    2.3450 hc        1 X37      0.090700
     53 H21        -0.4910   -2.2670   -0.0860 h1        1 X37      0.059450
     54 H21A       -1.8420   -1.1370    0.3630 h1        1 X37      0.059450
     55 H24         0.4340   -0.2440   -4.7260 h5        1 X37      0.065100
     56 H29        -4.9460    1.8310   -1.5770 h4        1 X37      0.185000
     57 H30        -2.9880    0.9770    0.1320 ha        1 X37      0.163000
@<TRIPOS>BOND
     1    1    2 1   
     2    1   18 1   
     3    1   19 1   
     4    2    3 1   
     5    2   32 1   
     6    2   33 1   
     7    3    4 1   
     8    3   34 1   
     9    3   35 1   
    10    4    5 1   
    11    4    6 1   
    12    4   17 1   
    13    5   28 1   
    14    5   29 1   
    15    5   30 1   
    16    6    7 1   
    17    6   36 1   
    18    6   37 1   
    19    7    8 ar  
    20    7   12 ar  
    21    8    9 ar  
    22    8   38 1   
    23    9   10 ar  
    24    9   39 1   
    25   10   11 ar  
    26   10   13 1   
    27   11   12 ar  
    28   11   40 1   
    29   12   41 1   
    30   13   14 1   
    31   13   15 1   
    32   13   16 1   
    33   14   42 1   
    34   14   43 1   
    35   14   44 1   
    36   15   45 1   
    37   15   46 1   
    38   15   47 1   
    39   16   48 1   
    40   16   49 1   
    41   16   50 1   
    42   17   18 1   
    43   17   51 1   
    44   17   52 1   
    45   18   53 1   
    46   18   54 1   
    47   19   20 ar  
    48   19   27 ar  
    49   20   21 ar  
    50   21   22 ar  
    51   21   55 1   
    52   22   23 ar  
    53   23   24 1   
    54   23   27 ar  
    55   24   25 1   
    56   24   31 1   
    57   25   26 2   
    58   25   56 1   
    59   26   27 1   
    60   26   57 1   
@<TRIPOS>SUBSTRUCTURE
     1 X37         1 TEMP              0 ****  ****    0 ROOT
