@<TRIPOS>MOLECULE
X37
   57    60     1     0     0
SMALL
bcc


@<TRIPOS>ATOM
      1 N1         -0.0890   -0.1580   -0.2250 nh        1 X37     -0.728300
      2 C2          1.3530   -0.0940   -0.0460 c3        1 X37      0.165800
      3 C3          1.7600   -0.1560    1.4250 c3        1 X37     -0.109400
      4 C4          1.1700   -1.3850    2.1340 c3        1 X37      0.144200
      5 N5          1.7860   -2.6510    1.5580 nz        1 X37     -0.844600
      6 C9          1.4930   -1.3140    3.6420 c3        1 X37     -0.051100
      7 C10         1.2440   -2.5970    4.3500 ca        1 X37     -0.165300
      8 C11         2.2800   -3.5300    4.5050 ca        1 X37     -0.135000
      9 C12         2.0610   -4.7150    5.1970 ca        1 X37     -0.117500
     10 C13         0.8040   -5.0040    5.7570 ca        1 X37     -0.026300
     11 C14        -0.2230   -4.0660    5.6030 ca        1 X37     -0.117500
     12 C15        -0.0050   -2.8750    4.9100 ca        1 X37     -0.135000
     13 C16         0.6130   -6.2960    6.5070 c3        1 X37     -0.019700
     14 C17         1.5750   -6.3350    7.6920 c3        1 X37     -0.090100
     15 C18        -0.8060   -6.4530    7.0390 c3        1 X37     -0.090100
     16 C19         0.9090   -7.4700    5.5770 c3        1 X37     -0.090100
     17 C20        -0.3500   -1.4020    1.9070 c3        1 X37     -0.109400
     18 C21        -0.7220   -1.2930    0.4310 c3        1 X37      0.165800
     19 C22        -0.5470    0.0260   -1.5750 ca        1 X37      0.653200
     20 N23         0.2530   -0.2610   -2.6370 nb        1 X37     -0.767000
     21 C24        -0.2380   -0.0020   -3.8870 ca        1 X37      0.659900
     22 N25        -1.4420    0.4920   -4.2410 nb        1 X37     -0.677000
     23 C26        -2.2510    0.7700   -3.1730 ca        1 X37      0.451800
     24 N27        -3.5450    1.2930   -3.1600 na        1 X37     -0.271100
     25 C29        -3.9560    1.4140   -1.8290 cc        1 X37     -0.084100
     26 C30        -2.9560    0.9710   -0.9650 cd        1 X37     -0.170200
     27 C31        -1.8490    0.5510   -1.7810 ca        1 X37     -0.304400
     28 HN5         1.4490   -3.4600    2.0940 hn        1 X37      0.458800
     29 HN5A        1.5220   -2.7440    0.5730 hn        1 X37      0.458800
     30 HN5B        2.8040   -2.5980    1.6390 hn        1 X37      0.458800
     31 HN27       -4.0650    1.5500   -3.9610 hn        1 X37      0.325700
     32 H2          1.8980   -0.9060   -0.6120 h1        1 X37      0.059450
     33 H2A         1.7000    0.8930   -0.4710 h1        1 X37      0.059450
     34 H3          1.3790    0.7520    1.9660 hc        1 X37      0.090700
     35 H3A         2.8780   -0.1440    1.4960 hc        1 X37      0.090700
     36 H9          0.8580   -0.4970    4.0820 hc        1 X37      0.088700
     37 H9A         2.5660   -1.0030    3.7720 hc        1 X37      0.088700
     38 H11         3.2860   -3.3050    4.1200 ha        1 X37      0.132000
     39 H12         2.8910   -5.4300    5.3220 ha        1 X37      0.155500
     40 H14        -1.2190   -4.2460    6.0390 ha        1 X37      0.155500
     41 H15        -0.8230   -2.1420    4.8200 ha        1 X37      0.132000
     42 H17         2.6350   -6.2840    7.3450 hc        1 X37      0.044367
     43 H17A        1.3800   -5.4770    8.3790 hc        1 X37      0.044367
     44 H17B        1.4340   -7.2860    8.2600 hc        1 X37      0.044367
     45 H18        -0.8970   -7.4280    7.5780 hc        1 X37      0.044367
     46 H18A       -1.5460   -6.4470    6.2030 hc        1 X37      0.044367
     47 H18B       -1.0530   -5.6340    7.7560 hc        1 X37      0.044367
     48 H19         0.2140   -7.4600    4.7050 hc        1 X37      0.044367
     49 H19A        1.9590   -7.4260    5.2040 hc        1 X37      0.044367
     50 H19B        0.7720   -8.4310    6.1300 hc        1 X37      0.044367
     51 H20        -0.8090   -2.3290    2.3410 hc        1 X37      0.090700
     52 H20A       -0.7770   -0.5250    2.4660 hc        1 X37      0.090700
     53 H21        -1.8390   -1.1440    0.3550 h1        1 X37      0.059450
     54 H21A       -0.4820   -2.2680   -0.0890 h1        1 X37      0.059450
     55 H24         0.4540   -0.2390   -4.7240 h5        1 X37      0.065100
     56 H29        -4.9470    1.8140   -1.5960 h4        1 X37      0.185000
     57 H30        -2.9920    0.9660    0.1200 ha        1 X37      0.163000
@<TRIPOS>BOND
     1    1    2 1   
     2    1   18 1   
     3    1   19 1   
     4    2    3 1   
     5    2   32 1   
     6    2   33 1   
     7    3    4 1   
     8    3   34 1   
     9    3   35 1   
    10    4    5 1   
    11    4    6 1   
    12    4   17 1   
    13    5   28 1   
    14    5   29 1   
    15    5   30 1   
    16    6    7 1   
    17    6   36 1   
    18    6   37 1   
    19    7    8 ar  
    20    7   12 ar  
    21    8    9 ar  
    22    8   38 1   
    23    9   10 ar  
    24    9   39 1   
    25   10   11 ar  
    26   10   13 1   
    27   11   12 ar  
    28   11   40 1   
    29   12   41 1   
    30   13   14 1   
    31   13   15 1   
    32   13   16 1   
    33   14   42 1   
    34   14   43 1   
    35   14   44 1   
    36   15   45 1   
    37   15   46 1   
    38   15   47 1   
    39   16   48 1   
    40   16   49 1   
    41   16   50 1   
    42   17   18 1   
    43   17   51 1   
    44   17   52 1   
    45   18   53 1   
    46   18   54 1   
    47   19   20 ar  
    48   19   27 ar  
    49   20   21 ar  
    50   21   22 ar  
    51   21   55 1   
    52   22   23 ar  
    53   23   24 1   
    54   23   27 ar  
    55   24   25 1   
    56   24   31 1   
    57   25   26 2   
    58   25   56 1   
    59   26   27 1   
    60   26   57 1   
@<TRIPOS>SUBSTRUCTURE
     1 X37         1 TEMP              0 ****  ****    0 ROOT
