@<TRIPOS>MOLECULE
X39
   48    51     1     0     0
SMALL
bcc


@<TRIPOS>ATOM
      1 N1         -2.9610   -0.3600    0.2330 nh        1 X39     -0.734300
      2 C2         -2.1630   -1.3070    1.0000 c3        1 X39      0.182300
      3 C3         -0.8180   -1.5960    0.3400 c3        1 X39     -0.092900
      4 C4         -0.0120   -0.3000    0.1100 c3        1 X39      0.111200
      5 N5          0.4580    0.3340    1.3380 n3        1 X39     -0.911800
      6 C9         -0.8980    0.6470   -0.7250 c3        1 X39     -0.092900
      7 C10        -2.2590    0.8800   -0.0740 c3        1 X39      0.182300
      8 C11         1.2180   -0.6680   -0.7730 c         1 X39      0.655100
      9 O12         1.3570   -1.8210   -1.2270 o         1 X39     -0.612100
     10 N13         2.0930    0.3520   -1.0920 n         1 X39     -0.540900
     11 C14         3.3150    0.0980   -1.8100 c3        1 X39      0.125300
     12 C15         4.4970   -0.2600   -0.9530 ca        1 X39     -0.123300
     13 C16         4.5730   -1.5320   -0.3750 ca        1 X39     -0.108500
     14 C17         5.6730   -1.8880    0.4000 ca        1 X39     -0.128000
     15 C18         6.7050   -0.9640    0.5980 ca        1 X39      0.021400
     16 CL1         8.0520   -1.3930    1.5420 cl        1 X39     -0.096400
     17 C20         6.6380    0.3100    0.0250 ca        1 X39     -0.128000
     18 C21         5.5310    0.6570   -0.7480 ca        1 X39     -0.108500
     19 C22        -4.3070   -0.1760    0.6590 ca        1 X39      0.694200
     20 N23        -4.7250   -0.5790    1.8930 nb        1 X39     -0.770000
     21 C24        -6.0480   -0.4300    2.1980 ca        1 X39      0.663900
     22 N25        -7.0460    0.0850    1.4530 nb        1 X39     -0.714000
     23 C26        -6.6310    0.4900    0.2110 ca        1 X39      0.449800
     24 N27        -7.3870    1.0420   -0.8260 na        1 X39     -0.282100
     25 C29        -6.5370    1.2640   -1.9160 cc        1 X39     -0.118100
     26 C30        -5.2370    0.8750   -1.6050 cd        1 X39     -0.150200
     27 C31        -5.2510    0.3830   -0.2530 ca        1 X39     -0.325400
     28 H21C       -1.9870   -0.9420    2.0550 h1        1 X39      0.048700
     29 H22C       -2.7410   -2.2720    1.0670 h1        1 X39      0.048700
     30 H101       -2.8970    1.4780   -0.7860 h1        1 X39      0.048700
     31 H102       -2.1210    1.5050    0.8580 h1        1 X39      0.048700
     32 H31C       -0.2420   -2.3030    0.9900 hc        1 X39      0.070700
     33 H32C       -0.9700   -2.1020   -0.6490 hc        1 X39      0.070700
     34 H51N       -0.3150    0.7320    1.8360 hn        1 X39      0.360800
     35 H52N        0.9110   -0.3430    1.9210 hn        1 X39      0.360800
     36 H91C       -0.4020    1.6430   -0.8540 hc        1 X39      0.070700
     37 H92C       -1.0320    0.1880   -1.7390 hc        1 X39      0.070700
     38 H13         2.0760    1.1700   -0.5240 hn        1 X39      0.320500
     39 H141        3.1300   -0.7510   -2.5340 h1        1 X39      0.069200
     40 H142        3.5520    1.0270   -2.4050 h1        1 X39      0.069200
     41 H16         3.7520   -2.2500   -0.5410 ha        1 X39      0.148000
     42 H21         5.4790    1.6590   -1.2000 ha        1 X39      0.148000
     43 H17         5.7300   -2.8900    0.8510 ha        1 X39      0.148000
     44 H20         7.4510    1.0340    0.1810 ha        1 X39      0.148000
     45 H24        -6.3340   -0.7790    3.2140 h5        1 X39      0.052100
     46 H27        -8.3560    1.2210   -0.7930 hn        1 X39      0.312700
     47 H29        -6.9330    1.6860   -2.8410 h4        1 X39      0.172000
     48 H30        -4.3750    0.9100   -2.2660 ha        1 X39      0.164000
@<TRIPOS>BOND
     1    1    2 1   
     2    1    7 1   
     3    1   19 1   
     4    2    3 1   
     5    2   28 1   
     6    2   29 1   
     7    3    4 1   
     8    3   32 1   
     9    3   33 1   
    10    4    5 1   
    11    4    6 1   
    12    4    8 1   
    13    5   34 1   
    14    5   35 1   
    15    6    7 1   
    16    6   36 1   
    17    6   37 1   
    18    7   30 1   
    19    7   31 1   
    20    8    9 2   
    21    8   10 1   
    22   10   11 1   
    23   10   38 1   
    24   11   12 1   
    25   11   39 1   
    26   11   40 1   
    27   12   13 ar  
    28   12   18 ar  
    29   13   14 ar  
    30   13   41 1   
    31   14   15 ar  
    32   14   43 1   
    33   15   16 1   
    34   15   17 ar  
    35   17   18 ar  
    36   17   44 1   
    37   18   42 1   
    38   19   20 ar  
    39   19   27 ar  
    40   20   21 ar  
    41   21   22 ar  
    42   21   45 1   
    43   22   23 ar  
    44   23   24 1   
    45   23   27 ar  
    46   24   25 1   
    47   24   46 1   
    48   25   26 2   
    49   25   47 1   
    50   26   27 1   
    51   26   48 1   
@<TRIPOS>SUBSTRUCTURE
     1 X39         1 TEMP              0 ****  ****    0 ROOT
