@<TRIPOS>MOLECULE
X39
   50    53     1     0     0
SMALL
bcc


@<TRIPOS>ATOM
      1 N1         -0.0030   -0.8500    0.4000 nh        1 X39     -0.704300
      2 C2          0.9620    0.2270    0.5930 c3        1 X39      0.141800
      3 C3          1.7150    0.1150    1.9220 c3        1 X39     -0.113900
      4 C4          2.3800   -1.2700    2.0600 c3        1 X39      0.075200
      5 N5          3.4410   -1.4330    0.9870 nz        1 X39     -0.841600
      6 C9          1.3030   -2.3620    1.8890 c3        1 X39     -0.113900
      7 C10         0.5550   -2.1880    0.5650 c3        1 X39      0.141800
      8 C11         3.0600   -1.4100    3.4410 c         1 X39      0.508100
      9 O12         4.2390   -1.7110    3.5850 o         1 X39     -0.396100
     10 N13         2.2350   -1.1510    4.6510 ny        1 X39     -0.664800
     11 C14         2.6510   -1.9660    5.8730 c3        1 X39      0.191100
     12 C15         2.0510   -3.3190    5.8510 ca        1 X39     -0.232300
     13 C16         2.8500   -4.4400    5.5870 ca        1 X39     -0.086500
     14 C17         2.3090   -5.7190    5.6630 ca        1 X39     -0.121500
     15 C18         0.9570   -5.8880    6.0030 ca        1 X39      0.071400
     16 Cl1         0.3010   -7.4330    6.1000 cl        1 X39      0.011600
     17 C20         0.1540   -4.7670    6.2710 ca        1 X39     -0.121500
     18 C21         0.7020   -3.4920    6.2000 ca        1 X39     -0.086500
     19 C22        -0.6820   -0.7200   -0.8800 ca        1 X39      0.592200
     20 N23         0.0270   -0.8330   -2.0380 nb        1 X39     -0.778000
     21 C24        -0.6610   -0.7020   -3.2090 ca        1 X39      0.658900
     22 N25        -1.9800   -0.4680   -3.3900 nb        1 X39     -0.645000
     23 C26        -2.6840   -0.3550   -2.2290 ca        1 X39      0.454800
     24 N27        -4.0470   -0.1170   -2.0390 na        1 X39     -0.264100
     25 C29        -4.3000   -0.0850   -0.6660 cc        1 X39     -0.051100
     26 C30        -3.1280   -0.2980    0.0590 cd        1 X39     -0.186200
     27 C31        -2.0690   -0.4760   -0.8930 ca        1 X39     -0.266400
     28 H21C        1.7090    0.3220   -0.2490 h1        1 X39      0.085200
     29 H22C        0.3700    1.1910    0.6090 h1        1 X39      0.085200
     30 H101        1.2270   -2.5070   -0.2850 h1        1 X39      0.085200
     31 H102       -0.3230   -2.9040    0.5670 h1        1 X39      0.085200
     32 H31C        2.4730    0.9400    1.9840 hc        1 X39      0.093950
     33 H32C        0.9800    0.2490    2.7590 hc        1 X39      0.093950
     34 H51N        4.1410   -0.6850    1.0580 hn        1 X39      0.486467
     35 H52N        3.9090   -2.3430    1.0840 hn        1 X39      0.486467
     36 H91C        0.5660   -2.2820    2.7310 hc        1 X39      0.093950
     37 H92C        1.7570   -3.3880    1.9250 hc        1 X39      0.093950
     38 H13         1.2460   -1.3590    4.4490 hn        1 X39      0.474300
     39 H141        3.7800   -2.0050    5.8950 hx        1 X39      0.131200
     40 H142        2.2810   -1.3770    6.7650 hx        1 X39      0.131200
     41 H16         3.9200   -4.3190    5.3510 ha        1 X39      0.145500
     42 H21         0.0760   -2.6220    6.4550 ha        1 X39      0.145500
     43 H17         2.9470   -6.6010    5.4780 ha        1 X39      0.184000
     44 H20        -0.9030   -4.9000    6.5600 ha        1 X39      0.184000
     45 H24        -0.0560   -0.7990   -4.1380 h5        1 X39      0.077100
     46 H27        -4.7110    0.0080   -2.7650 hn        1 X39      0.338700
     47 H29        -5.3180    0.0920   -0.3010 h4        1 X39      0.197000
     48 H30        -3.0330   -0.3250    1.1400 ha        1 X39      0.164000
     49 H53         2.9790   -1.3810    0.0630 hn        1 X39      0.486467
     50 H132        2.3230   -0.1500    4.8830 hn        1 X39      0.474300
@<TRIPOS>BOND
     1    1    2 1   
     2    1    7 1   
     3    1   19 1   
     4    2    3 1   
     5    2   28 1   
     6    2   29 1   
     7    3    4 1   
     8    3   32 1   
     9    3   33 1   
    10    4    5 1   
    11    4    6 1   
    12    4    8 1   
    13    5   34 1   
    14    5   35 1   
    15    5   49 1   
    16    6    7 1   
    17    6   36 1   
    18    6   37 1   
    19    7   30 1   
    20    7   31 1   
    21    8    9 2   
    22    8   10 1   
    23   10   11 1   
    24   10   38 1   
    25   10   50 1   
    26   11   12 1   
    27   11   39 1   
    28   11   40 1   
    29   12   13 ar  
    30   12   18 ar  
    31   13   14 ar  
    32   13   41 1   
    33   14   15 ar  
    34   14   43 1   
    35   15   16 1   
    36   15   17 ar  
    37   17   18 ar  
    38   17   44 1   
    39   18   42 1   
    40   19   20 ar  
    41   19   27 ar  
    42   20   21 ar  
    43   21   22 ar  
    44   21   45 1   
    45   22   23 ar  
    46   23   24 1   
    47   23   27 ar  
    48   24   25 1   
    49   24   46 1   
    50   25   26 2   
    51   25   47 1   
    52   26   27 1   
    53   26   48 1   
@<TRIPOS>SUBSTRUCTURE
     1 X39         1 TEMP              0 ****  ****    0 ROOT
