@<TRIPOS>MOLECULE
X39
   50    53     1     0     0
SMALL
bcc


@<TRIPOS>ATOM
      1 N1          0.0220   -0.8390    0.3990 nh        1 X39     -0.704300
      2 C2          0.9560    0.2570    0.6350 c3        1 X39      0.141800
      3 C3          1.6760    0.1410    1.9810 c3        1 X39     -0.113900
      4 C4          2.3690   -1.2300    2.1150 c3        1 X39      0.075200
      5 N5          3.4620   -1.3510    1.0680 n4        1 X39     -0.841600
      6 C9          1.3240   -2.3450    1.8980 c3        1 X39     -0.113900
      7 C10         0.6060   -2.1660    0.5570 c3        1 X39      0.141800
      8 C11         3.0160   -1.3780    3.5110 c         1 X39      0.508100
      9 O12         4.1970   -1.6540    3.6820 o         1 X39     -0.396100
     10 N13         2.1540   -1.1580    4.7030 n4        1 X39     -0.664800
     11 C14         2.5540   -1.9870    5.9210 c3        1 X39      0.191100
     12 C15         1.9830   -3.3510    5.8590 ca        1 X39     -0.232300
     13 C16         2.8130   -4.4510    5.5970 ca        1 X39     -0.086500
     14 C17         2.2960   -5.7420    5.6360 ca        1 X39     -0.121500
     15 C18         0.9400   -5.9440    5.9350 ca        1 X39      0.071400
     16 CL1         0.3130   -7.5040    5.9870 cl        1 X39      0.011600
     17 C20         0.1070   -4.8440    6.2010 ca        1 X39     -0.121500
     18 C21         0.6290   -3.5570    6.1670 ca        1 X39     -0.086500
     19 C22        -0.6270   -0.7020   -0.8970 ca        1 X39      0.592200
     20 N23         0.1150   -0.7800   -2.0370 nb        1 X39     -0.778000
     21 C24        -0.5450   -0.6450   -3.2230 ca        1 X39      0.658900
     22 N25        -1.8650   -0.4390   -3.4360 nb        1 X39     -0.645000
     23 C26        -2.6020   -0.3620   -2.2920 ca        1 X39      0.454800
     24 N27        -3.9740   -0.1600   -2.1350 na        1 X39     -0.264100
     25 C29        -4.2630   -0.1560   -0.7680 cc        1 X39     -0.051100
     26 C30        -3.1060   -0.3540   -0.0150 cd        1 X39     -0.186200
     27 C31        -2.0180   -0.4910   -0.9430 ca        1 X39     -0.266400
     28 H21C        1.7220    0.3830   -0.1850 h1        1 X39      0.085200
     29 H22C        0.3410    1.2070    0.6500 h1        1 X39      0.085200
     30 H101       -0.2540   -2.9010    0.5240 h1        1 X39      0.085200
     31 H102        1.3080   -2.4540   -0.2800 h1        1 X39      0.085200
     32 H31C        0.9160    0.2440    2.8000 hc        1 X39      0.093950
     33 H32C        2.4120    0.9820    2.0770 hc        1 X39      0.093950
     34 H51N        4.1420   -0.5880    1.1700 hn        1 X39      0.486467
     35 H52N        3.0230   -1.2940    0.1330 hn        1 X39      0.486467
     36 H91C        1.8010   -3.3600    1.9290 hc        1 X39      0.093950
     37 H92C        0.5630   -2.2950    2.7210 hc        1 X39      0.093950
     38 H13         2.2150   -0.1600    4.9550 hn        1 X39      0.474300
     39 H141        3.6820   -2.0030    5.9730 hx        1 X39      0.131200
     40 H142        2.1480   -1.4210    6.8130 hx        1 X39      0.131200
     41 H16         3.8860   -4.3030    5.3930 ha        1 X39      0.145500
     42 H21        -0.0210   -2.7050    6.4190 ha        1 X39      0.145500
     43 H17         2.9570   -6.6070    5.4530 ha        1 X39      0.184000
     44 H20        -0.9550   -5.0050    6.4570 ha        1 X39      0.184000
     45 H24         0.0860   -0.7120   -4.1380 h5        1 X39      0.077100
     46 H27        -4.6220   -0.0380   -2.8750 hn        1 X39      0.338700
     47 H29        -5.2950   -0.0100   -0.4280 h4        1 X39      0.197000
     48 H30        -3.0390   -0.3970    1.0670 ha        1 X39      0.164000
     49 H53         3.9490   -2.2510    1.1630 hn        1 X39      0.486467
     50 H132        1.1750   -1.3820    4.4700 hn        1 X39      0.474300
@<TRIPOS>BOND
     1    1    2 1   
     2    1    7 1   
     3    1   19 1   
     4    2    3 1   
     5    2   28 1   
     6    2   29 1   
     7    3    4 1   
     8    3   32 1   
     9    3   33 1   
    10    4    5 1   
    11    4    6 1   
    12    4    8 1   
    13    5   34 1   
    14    5   35 1   
    15    5   49 1   
    16    6    7 1   
    17    6   36 1   
    18    6   37 1   
    19    7   30 1   
    20    7   31 1   
    21    8    9 2   
    22    8   10 1   
    23   10   11 1   
    24   10   38 1   
    25   10   50 1   
    26   11   12 1   
    27   11   39 1   
    28   11   40 1   
    29   12   13 ar  
    30   12   18 ar  
    31   13   14 ar  
    32   13   41 1   
    33   14   15 ar  
    34   14   43 1   
    35   15   16 1   
    36   15   17 ar  
    37   17   18 ar  
    38   17   44 1   
    39   18   42 1   
    40   19   20 ar  
    41   19   27 ar  
    42   20   21 ar  
    43   21   22 ar  
    44   21   45 1   
    45   22   23 ar  
    46   23   24 1   
    47   23   27 ar  
    48   24   25 1   
    49   24   46 1   
    50   25   26 2   
    51   25   47 1   
    52   26   27 1   
    53   26   48 1   
@<TRIPOS>SUBSTRUCTURE
     1 X39         1 TEMP              0 ****  ****    0 ROOT
