@<TRIPOS>MOLECULE
X39
   50    53     1     0     0
SMALL
bcc


@<TRIPOS>ATOM
      1 N1          0.0220   -0.8320    0.4010 nh        1 X39     -0.704300
      2 C2          0.9870    0.2400    0.6170 c3        1 X39      0.141800
      3 C3          1.7230    0.1150    1.9540 c3        1 X39     -0.113900
      4 C4          2.3820   -1.2730    2.0880 c3        1 X39      0.075200
      5 N5          3.4570   -1.4290    1.0270 n4        1 X39     -0.841600
      6 C9          1.3050   -2.3610    1.8930 c3        1 X39     -0.113900
      7 C10         0.5740   -2.1730    0.5610 c3        1 X39      0.141800
      8 C11         3.0440   -1.4280    3.4760 c         1 X39      0.508100
      9 O12         4.2200   -1.7330    3.6320 o         1 X39     -0.396100
     10 N13         2.2050   -1.1790    4.6780 n4        1 X39     -0.664800
     11 C14         2.6020   -2.0080    5.8960 c3        1 X39      0.191100
     12 C15         1.9980   -3.3590    5.8530 ca        1 X39     -0.232300
     13 C16         2.7970   -4.4800    5.5870 ca        1 X39     -0.086500
     14 C17         2.2510   -5.7580    5.6430 ca        1 X39     -0.121500
     15 C18         0.8940   -5.9260    5.9630 ca        1 X39      0.071400
     16 CL1         0.2320   -7.4690    6.0350 cl        1 X39      0.011600
     17 C20         0.0920   -4.8040    6.2320 ca        1 X39     -0.121500
     18 C21         0.6440   -3.5310    6.1820 ca        1 X39     -0.086500
     19 C22        -0.6400   -0.6880   -0.8860 ca        1 X39      0.592200
     20 N23         0.0830   -0.7910   -2.0360 nb        1 X39     -0.778000
     21 C24        -0.5900   -0.6470   -3.2140 ca        1 X39      0.658900
     22 N25        -1.9060   -0.4090   -3.4090 nb        1 X39     -0.645000
     23 C26        -2.6250   -0.3060   -2.2560 ca        1 X39      0.454800
     24 N27        -3.9890   -0.0670   -2.0820 na        1 X39     -0.264100
     25 C29        -4.2600   -0.0470   -0.7120 cc        1 X39     -0.051100
     26 C30        -3.0980   -0.2700    0.0260 cd        1 X39     -0.186200
     27 C31        -2.0270   -0.4410   -0.9140 ca        1 X39     -0.266400
     28 H21C        1.7450    0.3420   -0.2140 h1        1 X39      0.085200
     29 H22C        0.3970    1.2060    0.6350 h1        1 X39      0.085200
     30 H101       -0.3050   -2.8860    0.5450 h1        1 X39      0.085200
     31 H102        1.2560   -2.4850   -0.2840 h1        1 X39      0.085200
     32 H31C        2.4820    0.9370    2.0340 hc        1 X39      0.093950
     33 H32C        0.9770    0.2430    2.7830 hc        1 X39      0.093950
     34 H51N        3.0070   -1.3670    0.0970 hn        1 X39      0.486467
     35 H52N        4.1570   -0.6840    1.1140 hn        1 X39      0.486467
     36 H91C        1.7560   -3.3880    1.9240 hc        1 X39      0.093950
     37 H92C        0.5580   -2.2870    2.7260 hc        1 X39      0.093950
     38 H13         2.2930   -0.1810    4.9220 hn        1 X39      0.474300
     39 H141        3.7300   -2.0510    5.9330 hx        1 X39      0.131200
     40 H142        2.2230   -1.4270    6.7900 hx        1 X39      0.131200
     41 H16         3.8710   -4.3590    5.3670 ha        1 X39      0.145500
     42 H21         0.0180   -2.6610    6.4370 ha        1 X39      0.145500
     43 H17         2.8880   -6.6400    5.4560 ha        1 X39      0.184000
     44 H20        -0.9700   -4.9370    6.5050 ha        1 X39      0.184000
     45 H24         0.0270   -0.7370   -4.1360 h5        1 X39      0.077100
     46 H27        -4.6440    0.0670   -2.8140 hn        1 X39      0.338700
     47 H29        -5.2820    0.1280   -0.3580 h4        1 X39      0.197000
     48 H30        -3.0170   -0.3060    1.1080 ha        1 X39      0.164000
     49 H53         3.9210   -2.3410    1.1210 hn        1 X39      0.486467
     50 H132        1.2180   -1.3810    4.4600 hn        1 X39      0.474300
@<TRIPOS>BOND
     1    1    2 1   
     2    1    7 1   
     3    1   19 1   
     4    2    3 1   
     5    2   28 1   
     6    2   29 1   
     7    3    4 1   
     8    3   32 1   
     9    3   33 1   
    10    4    5 1   
    11    4    6 1   
    12    4    8 1   
    13    5   34 1   
    14    5   35 1   
    15    5   49 1   
    16    6    7 1   
    17    6   36 1   
    18    6   37 1   
    19    7   30 1   
    20    7   31 1   
    21    8    9 2   
    22    8   10 1   
    23   10   11 1   
    24   10   38 1   
    25   10   50 1   
    26   11   12 1   
    27   11   39 1   
    28   11   40 1   
    29   12   13 ar  
    30   12   18 ar  
    31   13   14 ar  
    32   13   41 1   
    33   14   15 ar  
    34   14   43 1   
    35   15   16 1   
    36   15   17 ar  
    37   17   18 ar  
    38   17   44 1   
    39   18   42 1   
    40   19   20 ar  
    41   19   27 ar  
    42   20   21 ar  
    43   21   22 ar  
    44   21   45 1   
    45   22   23 ar  
    46   23   24 1   
    47   23   27 ar  
    48   24   25 1   
    49   24   46 1   
    50   25   26 2   
    51   25   47 1   
    52   26   27 1   
    53   26   48 1   
@<TRIPOS>SUBSTRUCTURE
     1 X39         1 TEMP              0 ****  ****    0 ROOT
