@<TRIPOS>MOLECULE
X3A
   33    35     1     0     0
SMALL
bcc


@<TRIPOS>ATOM
      1 N1          0.1650   -0.0050   -0.3360 nc        1 X3A     -0.755000
      2 C2          1.5700    0.0190   -0.1860 cc        1 X3A      0.728200
      3 N3          2.3930   -0.0170   -1.2720 nh        1 X3A     -0.935500
      4 C4          2.0220    0.1080    1.1620 cd        1 X3A     -0.419000
      5 C5          3.3970    0.0610    1.5820 c         1 X3A      0.649300
      6 C6          3.6660    0.1690    3.0360 ca        1 X3A     -0.271900
      7 C7          4.6900   -0.6250    3.6030 ca        1 X3A      0.442200
      8 N8          5.0110   -0.6010    4.9080 nb        1 X3A     -0.669000
      9 C9          4.3190    0.2410    5.7010 ca        1 X3A      0.410200
     10 C10         3.2950    1.0830    5.2320 ca        1 X3A     -0.254300
     11 C11         2.9670    1.0430    3.8760 ca        1 X3A     -0.071000
     12 O12         4.3450   -0.0940    0.7880 o         1 X3A     -0.590100
     13 S13         0.7020    0.2160    2.2150 ss        1 X3A     -0.144300
     14 C14        -0.4130    0.0940    0.8780 cd        1 X3A      0.699300
     15 N15        -1.7740    0.1860    1.1310 nh        1 X3A     -0.698300
     16 C16        -2.7530    0.0480    0.1170 ca        1 X3A      0.123600
     17 C17        -3.8670   -0.7930    0.3360 ca        1 X3A     -0.139000
     18 C18        -4.8800   -0.8720   -0.6140 ca        1 X3A     -0.113500
     19 C19        -4.8040   -0.1330   -1.7930 ca        1 X3A     -0.139000
     20 C20        -3.7060    0.6960   -2.0170 ca        1 X3A     -0.113500
     21 C21        -2.6850    0.7970   -1.0760 ca        1 X3A     -0.139000
     22 HN3         2.0230   -0.1920   -2.1730 hn        1 X3A      0.456800
     23 HN3A        3.3720   -0.1000   -1.1130 hn        1 X3A      0.456800
     24 H7          5.2800   -1.3070    2.9610 h4        1 X3A      0.041100
     25 H9          4.6070    0.2400    6.7680 h4        1 X3A      0.024100
     26 H10         2.7720    1.7600    5.9190 ha        1 X3A      0.146000
     27 H11         2.1820    1.7060    3.4730 ha        1 X3A      0.152000
     28 HN15       -2.0430   -0.1970    2.0160 hn        1 X3A      0.431800
     29 H17        -3.9470   -1.3880    1.2590 ha        1 X3A      0.142500
     30 H18        -5.7440   -1.5280   -0.4300 ha        1 X3A      0.135000
     31 H19        -5.6050   -0.2050   -2.5430 ha        1 X3A      0.135000
     32 H20        -3.6410    1.2820   -2.9460 ha        1 X3A      0.135000
     33 H21        -1.8310    1.4630   -1.2730 ha        1 X3A      0.142500
@<TRIPOS>BOND
     1    1    2 1   
     2    1   14 2   
     3    2    3 1   
     4    2    4 2   
     5    3   22 1   
     6    3   23 1   
     7    4    5 1   
     8    4   13 1   
     9    5    6 1   
    10    5   12 2   
    11    6    7 ar  
    12    6   11 ar  
    13    7    8 ar  
    14    7   24 1   
    15    8    9 ar  
    16    9   10 ar  
    17    9   25 1   
    18   10   11 ar  
    19   10   26 1   
    20   11   27 1   
    21   13   14 1   
    22   14   15 1   
    23   15   16 1   
    24   15   28 1   
    25   16   17 ar  
    26   16   21 ar  
    27   17   18 ar  
    28   17   29 1   
    29   18   19 ar  
    30   18   30 1   
    31   19   20 ar  
    32   19   31 1   
    33   20   21 ar  
    34   20   32 1   
    35   21   33 1   
@<TRIPOS>SUBSTRUCTURE
     1 X3A         1 TEMP              0 ****  ****    0 ROOT
