@<TRIPOS>MOLECULE
X3A
   33    35     1     0     0
SMALL
bcc


@<TRIPOS>ATOM
      1 N1          1.3050   -1.2000    0.0110 nc        1 X3A     -0.755000
      2 C2          0.0260   -1.7980    0.0110 cc        1 X3A      0.728200
      3 N3         -0.1160   -3.1530    0.0060 nh        1 X3A     -0.935500
      4 C4         -1.0600   -0.8770    0.0440 cd        1 X3A     -0.419000
      5 C5         -2.4520   -1.2310   -0.0360 c         1 X3A      0.649300
      6 C6         -3.4370   -0.1240    0.0140 ca        1 X3A     -0.271900
      7 C7         -4.5830   -0.1890   -0.8140 ca        1 X3A      0.442200
      8 N8         -5.5320    0.7620   -0.8420 nb        1 X3A     -0.669000
      9 C9         -5.3760    1.8190   -0.0210 ca        1 X3A      0.410200
     10 C10        -4.2830    1.9680    0.8510 ca        1 X3A     -0.254300
     11 C11        -3.3000    0.9780    0.8650 ca        1 X3A     -0.071000
     12 O12        -2.8480   -2.4050   -0.1740 o         1 X3A     -0.590100
     13 S13        -0.4790    0.7090    0.1290 ss        1 X3A     -0.144300
     14 C14         1.1700    0.1400    0.0710 cd        1 X3A      0.699300
     15 N15         2.2000    1.0640    0.1710 nh        1 X3A     -0.698300
     16 C16         3.5660    0.6990    0.0850 ca        1 X3A      0.123600
     17 C17         4.4320    1.4420   -0.7500 ca        1 X3A     -0.139000
     18 C18         5.7920    1.1520   -0.7800 ca        1 X3A     -0.113500
     19 C19         6.3140    0.1230    0.0020 ca        1 X3A     -0.139000
     20 C20         5.4650   -0.6150    0.8250 ca        1 X3A     -0.113500
     21 C21         4.1020   -0.3360    0.8780 ca        1 X3A     -0.139000
     22 HN3         0.6720   -3.7370   -0.1300 hn        1 X3A      0.456800
     23 HN3A       -1.0330   -3.5270   -0.0960 hn        1 X3A      0.456800
     24 H7         -4.7340   -1.0600   -1.4800 h4        1 X3A      0.041100
     25 H9         -6.1740    2.5820   -0.0650 h4        1 X3A      0.024100
     26 H10        -4.2110    2.8450    1.5090 ha        1 X3A      0.146000
     27 H11        -2.4410    1.0560    1.5530 ha        1 X3A      0.152000
     28 HN15        1.9850    1.9500   -0.2430 hn        1 X3A      0.431800
     29 H17         4.0420    2.2560   -1.3790 ha        1 X3A      0.142500
     30 H18         6.4570    1.7380   -1.4320 ha        1 X3A      0.135000
     31 H19         7.3890   -0.1050   -0.0300 ha        1 X3A      0.135000
     32 H20         5.8720   -1.4280    1.4460 ha        1 X3A      0.135000
     33 H21         3.4530   -0.9300    1.5400 ha        1 X3A      0.142500
@<TRIPOS>BOND
     1    1    2 1   
     2    1   14 2   
     3    2    3 1   
     4    2    4 2   
     5    3   22 1   
     6    3   23 1   
     7    4    5 1   
     8    4   13 1   
     9    5    6 1   
    10    5   12 2   
    11    6    7 ar  
    12    6   11 ar  
    13    7    8 ar  
    14    7   24 1   
    15    8    9 ar  
    16    9   10 ar  
    17    9   25 1   
    18   10   11 ar  
    19   10   26 1   
    20   11   27 1   
    21   13   14 1   
    22   14   15 1   
    23   15   16 1   
    24   15   28 1   
    25   16   17 ar  
    26   16   21 ar  
    27   17   18 ar  
    28   17   29 1   
    29   18   19 ar  
    30   18   30 1   
    31   19   20 ar  
    32   19   31 1   
    33   20   21 ar  
    34   20   32 1   
    35   21   33 1   
@<TRIPOS>SUBSTRUCTURE
     1 X3A         1 TEMP              0 ****  ****    0 ROOT
