@<TRIPOS>MOLECULE
X3A
   33    28     1     0     0
SMALL
bcc


@<TRIPOS>ATOM
      1 N1         -0.6100    1.3990   -1.7400 n2        1 X3A     -0.249000
      2 C2          0.9590    1.3400   -1.7200 c1        1 X3A      0.213000
      3 N3          1.8080    1.3910   -2.8590 n2        1 X3A     -0.340000
      4 C4          1.3910    1.2280   -0.3480 c1        1 X3A     -0.625000
      5 C5          2.8240    1.2560    0.1380 c1        1 X3A      0.369000
      6 C6          3.3730    0.0950    0.9400 c2        1 X3A     -0.183000
      7 C7          2.5810   -1.0170    1.1810 c2        1 X3A     -0.052000
      8 N8          3.0510   -2.0330    1.9590 n1        1 X3A     -0.143000
      9 C9          4.2990   -1.9570    2.5000 c1        1 X3A     -0.122250
     10 C10         5.0930   -0.8460    2.2600 c1        1 X3A     -0.122250
     11 C11         4.6240    0.1720    1.4820 c1        1 X3A     -0.047000
     12 O12         3.5180    2.2300   -0.0740 o         1 X3A     -0.355000
     13 S13         0.1470    1.2120    0.5340 ss        1 X3A      0.494000
     14 C14        -1.0820    1.3220   -0.3950 c1        1 X3A     -0.081000
     15 N15        -2.4340    1.4330    0.0210 n2        1 X3A     -0.219000
     16 C16        -3.3460    0.3790   -0.2420 c2        1 X3A      0.039000
     17 C17        -4.0810    0.3770   -1.4150 c2        1 X3A     -0.162000
     18 C18        -5.0010   -0.6330   -1.6550 c1        1 X3A     -0.104000
     19 C19        -5.1830   -1.6400   -0.7200 c1        1 X3A     -0.122250
     20 C20        -4.4470   -1.6370    0.4540 c1        1 X3A     -0.122250
     21 C21        -3.5280   -0.6280    0.6930 c1        1 X3A     -0.151000
     22 HN3         1.4480    1.3570   -3.7010 hn        1 X3A      0.253500
     23 HN3A        2.7110    1.4870   -2.7520 hn        1 X3A      0.253500
     24 H7          1.6870   -1.0720    0.7930 h4        1 X3A      0.172000
     25 H9          4.6340   -2.6850    3.0560 ha        1 X3A      0.146750
     26 H10         5.9870   -0.7920    2.6480 ha        1 X3A      0.146750
     27 H11         5.1820    0.9550    1.3130 ha        1 X3A      0.157000
     28 HN15       -2.7160    2.1810    0.4600 hn        1 X3A      0.238000
     29 H17        -3.9530    1.0860   -2.0740 ha        1 X3A      0.137000
     30 H18        -5.5180   -0.6350   -2.4800 ha        1 X3A      0.138000
     31 H19        -5.8310   -2.3510   -0.8890 ha        1 X3A      0.146750
     32 H20        -4.5760   -2.3470    1.1120 ha        1 X3A      0.146750
     33 H21        -3.0100   -0.6260    1.5200 ha        1 X3A      0.149000
@<TRIPOS>BOND
     1    1    2 1   
     2    1   14 1   
     3    2    4 1   
     4    3   22 1   
     5    3   23 1   
     6    4   13 1   
     7    5    6 1   
     8    5   12 1   
     9    6    7 1   
    10    6   11 1   
    11    7    8 1   
    12    7   24 1   
    13    9   10 1   
    14    9   25 1   
    15   10   26 1   
    16   11   27 1   
    17   13   14 1   
    18   15   16 1   
    19   15   28 1   
    20   16   17 1   
    21   16   21 1   
    22   17   18 1   
    23   17   29 1   
    24   18   30 1   
    25   19   20 1   
    26   19   31 1   
    27   20   32 1   
    28   21   33 1   
@<TRIPOS>SUBSTRUCTURE
     1 X3A         1 TEMP              0 ****  ****    0 ROOT
