@<TRIPOS>MOLECULE
X3A
   33    35     1     0     0
SMALL
bcc


@<TRIPOS>ATOM
      1 N1          0.1660   -0.0100   -0.3350 nc        1 X3A     -0.755000
      2 C2          1.5710    0.0090   -0.1850 cc        1 X3A      0.728200
      3 N3          2.3940   -0.0360   -1.2690 nv        1 X3A     -0.935500
      4 C4          2.0220    0.1020    1.1640 cd        1 X3A     -0.419000
      5 C5          3.3960    0.0500    1.5850 c         1 X3A      0.649300
      6 C6          3.6640    0.1630    3.0390 ca        1 X3A     -0.271900
      7 C7          4.6840   -0.6330    3.6110 ca        1 X3A      0.442200
      8 N8          5.0030   -0.6040    4.9170 nb        1 X3A     -0.669000
      9 C9          4.3150    0.2460    5.7050 ca        1 X3A      0.410200
     10 C10         3.2960    1.0910    5.2300 ca        1 X3A     -0.254300
     11 C11         2.9690    1.0460    3.8730 ca        1 X3A     -0.071000
     12 O12         4.3440   -0.1140    0.7930 o         1 X3A     -0.590100
     13 S13         0.7010    0.2200    2.2150 ss        1 X3A     -0.144300
     14 C14        -0.4130    0.0980    0.8770 cd        1 X3A      0.699300
     15 N15        -1.7740    0.1980    1.1290 nu        1 X3A     -0.698300
     16 C16        -2.7520    0.0600    0.1140 ca        1 X3A      0.123600
     17 C17        -3.8700   -0.7750    0.3360 ca        1 X3A     -0.139000
     18 C18        -4.8830   -0.8540   -0.6150 ca        1 X3A     -0.113500
     19 C19        -4.8020   -0.1210   -1.7980 ca        1 X3A     -0.139000
     20 C20        -3.7000    0.7020   -2.0240 ca        1 X3A     -0.113500
     21 C21        -2.6800    0.8030   -1.0820 ca        1 X3A     -0.139000
     22 HN3         2.0250   -0.2130   -2.1700 hn        1 X3A      0.456800
     23 HN3A        3.3730   -0.1230   -1.1090 hn        1 X3A      0.456800
     24 H7          5.2710   -1.3210    2.9730 h4        1 X3A      0.041100
     25 H9          4.6020    0.2490    6.7720 h4        1 X3A      0.024100
     26 H10         2.7750    1.7740    5.9130 ha        1 X3A      0.146000
     27 H11         2.1880    1.7100    3.4670 ha        1 X3A      0.152000
     28 HN15       -2.0460   -0.1810    2.0150 hn        1 X3A      0.431800
     29 H17        -3.9540   -1.3660    1.2610 ha        1 X3A      0.142500
     30 H18        -5.7500   -1.5060   -0.4290 ha        1 X3A      0.135000
     31 H19        -5.6030   -0.1930   -2.5470 ha        1 X3A      0.135000
     32 H20        -3.6310    1.2840   -2.9560 ha        1 X3A      0.135000
     33 H21        -1.8220    1.4640   -1.2820 ha        1 X3A      0.142500
@<TRIPOS>BOND
     1    1    2 1   
     2    1   14 2   
     3    2    3 1   
     4    2    4 2   
     5    3   22 1   
     6    3   23 1   
     7    4    5 1   
     8    4   13 1   
     9    5    6 1   
    10    5   12 2   
    11    6    7 ar  
    12    6   11 ar  
    13    7    8 ar  
    14    7   24 1   
    15    8    9 ar  
    16    9   10 ar  
    17    9   25 1   
    18   10   11 ar  
    19   10   26 1   
    20   11   27 1   
    21   13   14 1   
    22   14   15 1   
    23   15   16 1   
    24   15   28 1   
    25   16   17 ar  
    26   16   21 ar  
    27   17   18 ar  
    28   17   29 1   
    29   18   19 ar  
    30   18   30 1   
    31   19   20 ar  
    32   19   31 1   
    33   20   21 ar  
    34   20   32 1   
    35   21   33 1   
@<TRIPOS>SUBSTRUCTURE
     1 X3A         1 TEMP              0 ****  ****    0 ROOT
