@<TRIPOS>MOLECULE
X3A
   35    37     1     0     0
SMALL
bcc


@<TRIPOS>ATOM
      1 N1          0.8220    2.2960   -0.8430 nc        1 X3A     -0.577000
      2 C2          2.0330    2.0130   -0.2440 cc        1 X3A      0.432200
      3 N3          3.2350    2.7550   -0.6050 n4        1 X3A     -0.799300
      4 C4          1.9920    0.9690    0.7240 cd        1 X3A     -0.295000
      5 C5          3.1880    0.4590    1.4500 c         1 X3A      0.646300
      6 C6          2.9850   -0.5520    2.4770 ca        1 X3A     -0.346900
      7 C7          4.0530   -1.4440    2.7590 ca        1 X3A      0.503200
      8 N8          3.9790   -2.4090    3.6910 nb        1 X3A     -0.630000
      9 C9          2.8420   -2.5160    4.4010 ca        1 X3A      0.483200
     10 C10         1.7270   -1.6620    4.2100 ca        1 X3A     -0.234300
     11 C11         1.8080   -0.6720    3.2410 ca        1 X3A     -0.080000
     12 O12         4.3030    0.8830    1.1130 o         1 X3A     -0.527100
     13 S13         0.4720    0.3760    0.8650 ss        1 X3A      0.415700
     14 C14        -0.1100    1.4520   -0.3140 cd        1 X3A      0.338300
     15 N15        -1.4990    1.5150   -0.7670 n4        1 X3A     -0.573100
     16 C16        -2.3550    0.5300   -0.0900 ca        1 X3A     -0.116400
     17 C17        -3.0710    0.9110    1.0610 ca        1 X3A     -0.098000
     18 C18        -3.9510   -0.0010    1.6390 ca        1 X3A     -0.098000
     19 C19        -4.1260   -1.2700    1.0810 ca        1 X3A     -0.044000
     20 C20        -3.4140   -1.6370   -0.0640 ca        1 X3A     -0.098000
     21 C21        -2.5280   -0.7460   -0.6630 ca        1 X3A     -0.098000
     22 HN3         4.0680    2.1550   -0.4220 hn        1 X3A      0.497800
     23 HN3A        3.2990    3.6030   -0.0220 hn        1 X3A      0.497800
     24 H7          5.0110   -1.3710    2.2020 h4        1 X3A      0.065100
     25 H9          2.8220   -3.3170    5.1690 h4        1 X3A      0.070100
     26 H10         0.8320   -1.7800    4.8390 ha        1 X3A      0.176000
     27 H11         0.9740    0.0420    3.1280 ha        1 X3A      0.117000
     28 HN15       -1.8710    2.4650   -0.5890 hn        1 X3A      0.487300
     29 H17        -2.9670    1.9170    1.5020 ha        1 X3A      0.164500
     30 H18        -4.5250    0.2930    2.5370 ha        1 X3A      0.189500
     31 H19        -4.8390   -1.9800    1.5390 ha        1 X3A      0.191000
     32 H20        -3.5640   -2.6370   -0.5120 ha        1 X3A      0.189500
     33 H21        -1.9960   -1.0460   -1.5820 ha        1 X3A      0.164500
     34 H33         3.2150    3.0260   -1.5990 hn        1 X3A      0.497800
     35 H152       -1.5280    1.3420   -1.7880 hn        1 X3A      0.487300
@<TRIPOS>BOND
     1    1    2 1   
     2    1   14 2   
     3    2    3 1   
     4    2    4 2   
     5    3   22 1   
     6    3   23 1   
     7    3   34 1   
     8    4    5 1   
     9    4   13 1   
    10    5    6 1   
    11    5   12 2   
    12    6    7 ar  
    13    6   11 ar  
    14    7    8 ar  
    15    7   24 1   
    16    8    9 ar  
    17    9   10 ar  
    18    9   25 1   
    19   10   11 ar  
    20   10   26 1   
    21   11   27 1   
    22   13   14 1   
    23   14   15 1   
    24   15   16 1   
    25   15   28 1   
    26   15   35 1   
    27   16   17 ar  
    28   16   21 ar  
    29   17   18 ar  
    30   17   29 1   
    31   18   19 ar  
    32   18   30 1   
    33   19   20 ar  
    34   19   31 1   
    35   20   21 ar  
    36   20   32 1   
    37   21   33 1   
@<TRIPOS>SUBSTRUCTURE
     1 X3A         1 TEMP              0 ****  ****    0 ROOT
