@<TRIPOS>MOLECULE
X3J
   28    27     1     0     0
SMALL
bcc


@<TRIPOS>ATOM
      1 C'         -3.0000   -0.8220    0.4830 c         1 X3J      0.897600
      2 O1'        -4.0820   -1.4320    0.2270 o         1 X3J     -0.878800
      3 O2'        -2.6730   -0.5260    1.6780 o         1 X3J     -0.878800
      4 C1         -2.1040   -0.4130   -0.6860 c3        1 X3J     -0.196400
      5 C3          4.1350   -0.0320   -0.6310 c3        1 X3J      0.082800
      6 N3          5.4950    0.4560   -0.6270 n3        1 X3J     -0.898800
      7 O3         -0.5030    0.9070    0.5640 oh        1 X3J     -0.631800
      8 CM3         0.1650    0.2070   -1.6380 c         1 X3J      0.915600
      9 O3'         1.1500    1.0040   -1.5470 o         1 X3J     -0.856300
     10 C4          3.5220   -0.2610    0.7760 c3        1 X3J      0.063000
     11 N4          2.0900   -0.3040    0.8030 n         1 X3J     -0.533900
     12 CAP        -0.6280   -0.1770   -0.3500 c3        1 X3J      0.062800
     13 O4          1.9930   -2.5990    0.8060 o         1 X3J     -0.705100
     14 CM4        -0.0610   -1.4640    0.2670 c3        1 X3J     -0.169400
     15 OAF        -0.1830   -0.3120   -2.7360 o         1 X3J     -0.856300
     16 H11C       -2.1660   -1.1900   -1.4890 hc        1 X3J      0.047700
     17 H12C       -2.5150    0.5410   -1.1050 hc        1 X3J      0.047700
     18 H31C        3.4810    0.6850   -1.2140 h1        1 X3J      0.090700
     19 H32C        4.1230   -1.0130   -1.1840 h1        1 X3J      0.090700
     20 H31N        5.5170    1.4000   -0.2880 hn        1 X3J      0.317300
     21 H32N        6.0570   -0.0990   -0.0080 hn        1 X3J      0.317300
     22 H41C        3.9310   -1.2210    1.1980 h1        1 X3J      0.023200
     23 H42C        3.8400    0.5840    1.4550 h1        1 X3J      0.023200
     24 H3         -1.1110    0.7140    1.2960 ho        1 X3J      0.424000
     25 H4          1.6370    0.5140    0.4100 hn        1 X3J      0.367500
     26 HM41       -0.2450   -2.3050   -0.4530 hc        1 X3J      0.084700
     27 HM42       -0.6330   -1.6730    1.2140 hc        1 X3J      0.084700
     28 C4'         1.4120   -1.5000    0.6120 c         1 X3J      0.668100
@<TRIPOS>BOND
     1    1    2 1   
     2    1    3 1   
     3    1    4 1   
     4    4   12 1   
     5    4   16 1   
     6    4   17 1   
     7    5    6 1   
     8    5   10 1   
     9    5   18 1   
    10    5   19 1   
    11    6   20 1   
    12    6   21 1   
    13    7   12 1   
    14    7   24 1   
    15    8    9 1   
    16    8   12 1   
    17    8   15 1   
    18   10   11 1   
    19   10   22 1   
    20   10   23 1   
    21   11   25 1   
    22   11   28 1   
    23   12   14 1   
    24   13   28 2   
    25   14   26 1   
    26   14   27 1   
    27   14   28 1   
@<TRIPOS>SUBSTRUCTURE
     1 X3J         1 TEMP              0 ****  ****    0 ROOT
