@<TRIPOS>MOLECULE
X3J
   28    25     1     0     0
SMALL
bcc


@<TRIPOS>ATOM
      1 C'          2.1880    2.4970    3.1950 c1        1 X3J      0.317000
      2 O1'         3.4470    2.4970    3.1950 os        1 X3J     -0.589000
      3 O2'         1.5580    2.4970    4.2860 o         1 X3J     -0.623000
      4 C1          1.4310    2.4970    1.8850 c3        1 X3J     -0.225000
      5 C3         -2.0270   -1.8330   -2.9820 c3        1 X3J     -0.154000
      6 N3         -2.5640   -3.1250   -3.2560 n3        1 X3J     -0.331000
      7 O3         -0.0770    0.7320    2.4280 oh        1 X3J     -0.359000
      8 CM3         2.1290    0.1320    1.7520 c1        1 X3J      0.335000
      9 O3'         2.0850   -0.7360    2.6640 os        1 X3J     -0.589000
     10 C4         -1.4080   -1.8270   -1.6020 c3        1 X3J     -0.053000
     11 N4         -0.8200   -0.5560   -1.3510 n         1 X3J     -0.343000
     12 C4'        -0.1350   -0.3200   -0.1310 c2        1 X3J      0.312000
     13 CAP         0.9750    1.0910    1.5660 c3        1 X3J      0.041000
     14 O4         -0.0510   -1.2020    0.6990 o         1 X3J     -0.466000
     15 CM4         0.4950    1.0300    0.1330 c3        1 X3J     -0.198000
     16 OAF         3.1320    0.1980    0.9940 o         1 X3J     -0.608000
     17 H11C        0.6540    3.0830    1.9590 hc        1 X3J      0.087000
     18 H12C        2.0150    2.8200    1.1730 hc        1 X3J      0.087000
     19 H31C       -1.3430   -1.6180   -3.6450 h1        1 X3J      0.130000
     20 H32C       -2.7400   -1.1680   -3.0230 h1        1 X3J      0.130000
     21 H31N       -3.4610   -3.0550   -3.4080 hn        1 X3J      0.112500
     22 H32N       -2.1570   -3.4730   -3.9950 hn        1 X3J      0.112500
     23 H41C       -0.7210   -2.5190   -1.5500 h1        1 X3J      0.062500
     24 H42C       -2.0980   -2.0040   -0.9350 h1        1 X3J      0.062500
     25 H3         -0.7030    1.3620    2.4090 ho        1 X3J      0.223000
     26 H4         -0.8900    0.1090   -1.9710 hn        1 X3J      0.281000
     27 HM41        1.2520    1.1590   -0.4700 hc        1 X3J      0.124000
     28 HM42       -0.1650    1.7330   -0.0200 hc        1 X3J      0.124000
@<TRIPOS>BOND
     1    1    3 1   
     2    1    4 1   
     3    4   13 1   
     4    4   17 1   
     5    4   18 1   
     6    5    6 1   
     7    5   10 1   
     8    5   19 1   
     9    5   20 1   
    10    6   21 1   
    11    6   22 1   
    12    7   13 1   
    13    7   25 1   
    14    8   13 1   
    15    8   16 1   
    16   10   11 1   
    17   10   23 1   
    18   10   24 1   
    19   11   12 1   
    20   11   26 1   
    21   12   14 1   
    22   12   15 1   
    23   13   15 1   
    24   15   27 1   
    25   15   28 1   
@<TRIPOS>SUBSTRUCTURE
     1 X3J         1 TEMP              0 ****  ****    0 ROOT
