@<TRIPOS>MOLECULE
X3X
   29    28     1     0     0
SMALL
bcc


@<TRIPOS>ATOM
      1 O3         -2.9730   -2.4420   -0.9200 oh        1 X3X     -0.618800
      2 C3         -3.1060   -1.0530   -0.6900 c3        1 X3X      0.134400
      3 C2         -1.8520   -0.4520   -0.0570 c3        1 X3X      0.076100
      4 O2         -1.6480   -1.1370    1.1740 oh        1 X3X     -0.639800
      5 C1         -2.0290    1.0580    0.1630 c3        1 X3X      0.152400
      6 O1         -0.9810    1.5220    0.9540 os        1 X3X     -0.584200
      7 PAO        -0.0120    2.7030    0.3080 p5        1 X3X      1.424800
      8 OAF        -0.8140    3.4360   -0.6860 o         1 X3X     -0.812500
      9 OAA         0.7850    3.2450    1.4210 o         1 X3X     -0.812500
     10 O6          0.9650    1.6690   -0.5440 os        1 X3X     -0.584200
     11 C6          2.0160    1.0740    0.1490 c3        1 X3X      0.152400
     12 C5          1.8500   -0.4520    0.0850 c3        1 X3X      0.076100
     13 O5          1.6500   -0.8990   -1.2510 oh        1 X3X     -0.639800
     14 C4          3.1090   -1.1510    0.5980 c3        1 X3X      0.134400
     15 O4          2.9860   -2.5600    0.5670 oh        1 X3X     -0.618800
     16 H1         -2.5650   -2.8200   -0.1310 ho        1 X3X      0.416000
     17 H2         -3.2830   -0.5990   -1.7000 h1        1 X3X      0.039700
     18 H3         -3.9950   -0.8720   -0.0280 h1        1 X3X      0.039700
     19 H4         -0.9530   -0.6470   -0.7100 h1        1 X3X      0.056700
     20 H5         -1.1500   -0.5360    1.7470 ho        1 X3X      0.436000
     21 H6         -2.0570    1.5960   -0.8250 h1        1 X3X      0.045700
     22 H7         -2.9950    1.2310    0.7160 h1        1 X3X      0.045700
     23 H9          2.9810    1.3530   -0.3630 h1        1 X3X      0.045700
     24 H10         2.0410    1.4200    1.2190 h1        1 X3X      0.045700
     25 H11         0.9530   -0.7700    0.6910 h1        1 X3X      0.056700
     26 H12         1.1470   -0.2060   -1.7030 ho        1 X3X      0.436000
     27 H13         3.9960   -0.8440   -0.0180 h1        1 X3X      0.039700
     28 H14         3.2830   -0.8900    1.6750 h1        1 X3X      0.039700
     29 H15         2.5800   -2.7880   -0.2790 ho        1 X3X      0.416000
@<TRIPOS>BOND
     1    1    2 1   
     2    1   16 1   
     3    2    3 1   
     4    2   17 1   
     5    2   18 1   
     6    3    4 1   
     7    3    5 1   
     8    3   19 1   
     9    4   20 1   
    10    5    6 1   
    11    5   21 1   
    12    5   22 1   
    13    6    7 1   
    14    7    8 1   
    15    7    9 1   
    16    7   10 1   
    17   10   11 1   
    18   11   12 1   
    19   11   23 1   
    20   11   24 1   
    21   12   13 1   
    22   12   14 1   
    23   12   25 1   
    24   13   26 1   
    25   14   15 1   
    26   14   27 1   
    27   14   28 1   
    28   15   29 1   
@<TRIPOS>SUBSTRUCTURE
     1 X3X         1 TEMP              0 ****  ****    0 ROOT
