@<TRIPOS>MOLECULE
X3X
   29    28     1     0     0
SMALL
bcc


@<TRIPOS>ATOM
      1 O3          0.3100    0.0350    2.0420 oh        1 X3X     -0.619300
      2 C3          1.5820   -0.4990    1.7280 c3        1 X3X      0.131400
      3 C2          2.7060    0.2620    2.4340 c3        1 X3X      0.090100
      4 O2          2.6130    1.6140    2.0050 oh        1 X3X     -0.641300
      5 C1          4.0650   -0.3540    2.0970 c3        1 X3X      0.148900
      6 O1          5.0610    0.5460    2.4870 os        1 X3X     -0.583200
      7 PAO         6.5890   -0.0400    2.2400 p5        1 X3X      1.423800
      8 OAF         6.5180   -0.9730    1.1040 o         1 X3X     -0.814500
      9 OAA         7.5110    1.0920    2.4340 o         1 X3X     -0.814500
     10 O6          6.6440   -0.9710    3.6110 os        1 X3X     -0.583200
     11 C6          7.0740   -0.3550    4.7840 c3        1 X3X      0.148900
     12 C5          5.9640   -0.4670    5.8400 c3        1 X3X      0.090100
     13 O5          5.4870   -1.8020    5.9560 oh        1 X3X     -0.641300
     14 C4          6.4920   -0.0680    7.2180 c3        1 X3X      0.131400
     15 O4          5.4950   -0.1670    8.2170 oh        1 X3X     -0.619300
     16 H1          0.3770    0.9930    1.9400 ho        1 X3X      0.414000
     17 H2          1.7370   -0.4680    0.6170 h1        1 X3X      0.042200
     18 H3          1.5540   -1.5620    2.0820 h1        1 X3X      0.042200
     19 H4          2.5420    0.2440    3.5490 h1        1 X3X      0.049700
     20 H5          3.4930    2.0040    2.1140 ho        1 X3X      0.439500
     21 H6          4.2050   -1.3220    2.6510 h1        1 X3X      0.044200
     22 H7          4.1620   -0.5490    0.9940 h1        1 X3X      0.044200
     23 H9          7.9850   -0.9040    5.1590 h1        1 X3X      0.044200
     24 H10         7.3320    0.7250    4.6010 h1        1 X3X      0.044200
     25 H11         5.0930    0.1870    5.5550 h1        1 X3X      0.049700
     26 H12         5.5360   -2.1920    5.0710 ho        1 X3X      0.439500
     27 H13         6.8040    1.0090    7.2140 h1        1 X3X      0.042200
     28 H14         7.3640   -0.7180    7.4990 h1        1 X3X      0.042200
     29 H15         5.0440   -1.0100    8.0790 ho        1 X3X      0.414000
@<TRIPOS>BOND
     1    1    2 1   
     2    1   16 1   
     3    2    3 1   
     4    2   17 1   
     5    2   18 1   
     6    3    4 1   
     7    3    5 1   
     8    3   19 1   
     9    4   20 1   
    10    5    6 1   
    11    5   21 1   
    12    5   22 1   
    13    6    7 1   
    14    7    8 1   
    15    7    9 1   
    16    7   10 1   
    17   10   11 1   
    18   11   12 1   
    19   11   23 1   
    20   11   24 1   
    21   12   13 1   
    22   12   14 1   
    23   12   25 1   
    24   13   26 1   
    25   14   15 1   
    26   14   27 1   
    27   14   28 1   
    28   15   29 1   
@<TRIPOS>SUBSTRUCTURE
     1 X3X         1 TEMP              0 ****  ****    0 ROOT
