@<TRIPOS>MOLECULE
X3X
   29    28     1     0     0
SMALL
bcc


@<TRIPOS>ATOM
      1 O3         -5.1280    0.4540   -3.2860 oh        1 X3X     -0.625300
      2 C3         -3.7590    0.8300   -3.2220 c3        1 X3X      0.101400
      3 C2         -3.1790    0.3880   -1.8950 c3        1 X3X      0.079100
      4 O2         -3.9010    0.9670   -0.8610 oh        1 X3X     -0.629800
      5 C1         -1.7200    0.8240   -1.8020 c3        1 X3X      0.181400
      6 O1         -1.1350    0.2630   -0.6470 os        1 X3X     -0.577700
      7 PAO         0.3460    0.6910   -0.2620 p5        1 X3X      1.427800
      8 OAF         0.3320    2.0660    0.3120 o         1 X3X     -0.824500
      9 OAA         1.2070    0.6700   -1.4910 o         1 X3X     -0.824500
     10 O6          0.9330   -0.3230    0.8110 os        1 X3X     -0.577700
     11 C6          2.2260   -0.0240    1.4030 c3        1 X3X      0.181400
     12 C5          2.6770   -1.1940    2.2570 c3        1 X3X      0.079100
     13 O5          3.1170   -2.2300    1.4320 oh        1 X3X     -0.629800
     14 C4          3.8280   -0.7460    3.1750 c3        1 X3X      0.101400
     15 O4          4.3060   -1.8690    3.9230 oh        1 X3X     -0.625300
     16 H1         -5.4600    0.6260   -4.1420 ho        1 X3X      0.405000
     17 H2         -3.6820    1.8130   -3.3040 h1        1 X3X      0.062200
     18 H3         -3.2670    0.4020   -3.9530 h1        1 X3X      0.062200
     19 H4         -3.2350   -0.6100   -1.8230 h1        1 X3X      0.056200
     20 H5         -4.3720    0.3070   -0.4040 ho        1 X3X      0.416500
     21 H6         -1.6730    1.8120   -1.7500 h1        1 X3X      0.039950
     22 H7         -1.2270    0.5100   -2.6100 h1        1 X3X      0.039950
     23 H9          2.8860    0.1340    0.6880 h1        1 X3X      0.039950
     24 H10         2.1510    0.7760    1.9600 h1        1 X3X      0.039950
     25 H11         1.9200   -1.5110    2.8090 h1        1 X3X      0.056200
     26 H12         2.8150   -3.0080    1.7450 ho        1 X3X      0.416500
     27 H13         3.5030   -0.0530    3.7940 h1        1 X3X      0.062200
     28 H14         4.5710   -0.3740    2.6200 h1        1 X3X      0.062200
     29 H15         4.9170   -1.5910    4.5270 ho        1 X3X      0.405000
@<TRIPOS>BOND
     1    1    2 1   
     2    1   16 1   
     3    2    3 1   
     4    2   17 1   
     5    2   18 1   
     6    3    4 1   
     7    3    5 1   
     8    3   19 1   
     9    4   20 1   
    10    5    6 1   
    11    5   21 1   
    12    5   22 1   
    13    6    7 1   
    14    7    8 1   
    15    7    9 1   
    16    7   10 1   
    17   10   11 1   
    18   11   12 1   
    19   11   23 1   
    20   11   24 1   
    21   12   13 1   
    22   12   14 1   
    23   12   25 1   
    24   13   26 1   
    25   14   15 1   
    26   14   27 1   
    27   14   28 1   
    28   15   29 1   
@<TRIPOS>SUBSTRUCTURE
     1 X3X         1 TEMP              0 ****  ****    0 ROOT
