@<TRIPOS>MOLECULE
X3X
   29    28     1     0     0
SMALL
bcc


@<TRIPOS>ATOM
      1 O3          0.8460   -0.4760    3.2120 oh        1 X3X     -0.618800
      2 C3          1.8320   -0.5360    2.1990 c3        1 X3X      0.134400
      3 C2          3.2080   -0.1130    2.7110 c3        1 X3X      0.076100
      4 O2          3.0750    1.2210    3.1880 oh        1 X3X     -0.639800
      5 C1          4.2530   -0.2070    1.5880 c3        1 X3X      0.152400
      6 O1          5.4270    0.4100    2.0150 os        1 X3X     -0.584200
      7 PAO         6.7980   -0.5220    2.0590 p5        1 X3X      1.424800
      8 OAF         6.6280   -1.6020    1.0730 o         1 X3X     -0.812500
      9 OAA         7.9290    0.4060    2.2140 o         1 X3X     -0.812500
     10 O6          6.4960   -1.1900    3.5460 os        1 X3X     -0.584200
     11 C6          6.8700   -0.4470    4.6630 c3        1 X3X      0.152400
     12 C5          5.6230   -0.1800    5.5190 c3        1 X3X      0.076100
     13 O5          4.9020   -1.3790    5.7790 oh        1 X3X     -0.639800
     14 C4          6.0190    0.3980    6.8780 c3        1 X3X      0.134400
     15 O4          4.8930    0.6710    7.6890 oh        1 X3X     -0.618800
     16 H1          0.9840    0.3520    3.6900 ho        1 X3X      0.416000
     17 H2          1.5220    0.1210    1.3430 h1        1 X3X      0.039700
     18 H3          1.8550   -1.6080    1.8690 h1        1 X3X      0.039700
     19 H4          3.5160   -0.7600    3.5820 h1        1 X3X      0.056700
     20 H5          3.9520    1.6260    3.1290 ho        1 X3X      0.436000
     21 H6          4.4390   -1.2820    1.3150 h1        1 X3X      0.045700
     22 H7          3.8660    0.3510    0.6890 h1        1 X3X      0.045700
     23 H9          7.5980   -1.0590    5.2690 h1        1 X3X      0.045700
     24 H10         7.3520    0.5220    4.3590 h1        1 X3X      0.045700
     25 H11         4.9280    0.5280    4.9820 h1        1 X3X      0.056700
     26 H12         5.0020   -1.9380    4.9950 ho        1 X3X      0.436000
     27 H13         6.5350    1.3840    6.7420 h1        1 X3X      0.039700
     28 H14         6.6970   -0.3170    7.4160 h1        1 X3X      0.039700
     29 H15         4.2960   -0.0850    7.6060 ho        1 X3X      0.416000
@<TRIPOS>BOND
     1    1    2 1   
     2    1   16 1   
     3    2    3 1   
     4    2   17 1   
     5    2   18 1   
     6    3    4 1   
     7    3    5 1   
     8    3   19 1   
     9    4   20 1   
    10    5    6 1   
    11    5   21 1   
    12    5   22 1   
    13    6    7 1   
    14    7    8 1   
    15    7    9 1   
    16    7   10 1   
    17   10   11 1   
    18   11   12 1   
    19   11   23 1   
    20   11   24 1   
    21   12   13 1   
    22   12   14 1   
    23   12   25 1   
    24   13   26 1   
    25   14   15 1   
    26   14   27 1   
    27   14   28 1   
    28   15   29 1   
@<TRIPOS>SUBSTRUCTURE
     1 X3X         1 TEMP              0 ****  ****    0 ROOT
