@<TRIPOS>MOLECULE
X40
   38    35     1     0     0
SMALL
bcc


@<TRIPOS>ATOM
      1 N01         0.3970    1.1460   -0.9690 n2        1 X40     -0.227000
      2 N02        -1.4720    1.1690    0.8580 n3        1 X40     -0.235000
      3 N03         4.0960   -1.8380    2.9810 n1        1 X40     -0.141000
      4 N04         2.8720    1.1000   -1.9460 n3        1 X40     -0.336000
      5 N05        -6.8320   -1.4130   -2.3900 n3        1 X40     -0.953000
      6 C06         2.3180    1.2570    0.5360 c1        1 X40     -0.606000
      7 C07         1.9620    1.1650   -0.8590 c2        1 X40      0.211000
      8 C08        -0.1490    1.2260    0.3480 c2        1 X40     -0.073000
      9 C09        -2.5070    0.5910    0.0800 c2        1 X40      0.126000
     10 C10         3.7190    1.3950    1.0890 c1        1 X40      0.369000
     11 C11         4.3230    0.2730    1.9040 c2        1 X40     -0.185000
     12 C12         5.6080    0.3710    2.3530 c2        1 X40     -0.045000
     13 C13         6.1410   -0.6280    3.1140 c1        1 X40     -0.188000
     14 C14         5.3780   -1.7410    3.4300 c1        1 X40     -0.056000
     15 C15         3.5610   -0.8410    2.2210 c1        1 X40     -0.052000
     16 C16        -2.7310   -0.7760    0.1030 c1        1 X40     -0.207000
     17 C17        -3.5970   -1.3520   -0.8130 c1        1 X40      0.007000
     18 C18        -4.2390   -0.5610   -1.7520 c1        1 X40     -0.855000
     19 C19        -4.0150    0.8070   -1.7750 c1        1 X40      0.004000
     20 C20        -3.1490    1.3830   -0.8590 c2        1 X40     -0.160000
     21 O21         4.3780    2.3830    0.8350 o         1 X40     -0.348000
     22 O22        -4.8010   -2.5920   -3.3690 o         1 X40     -0.938500
     23 O23        -5.2540   -0.5860   -4.2060 o         1 X40     -0.938500
     24 S24         1.0270    1.2990    1.3460 ss        1 X40      0.464000
     25 S25        -5.2970   -1.3060   -2.9640 s6        1 X40      2.870000
     26 HN02       -1.6580    1.5110    1.6820 hn        1 X40      0.239000
     27 HN04        2.6990    1.5620   -2.7160 hn        1 X40      0.257000
     28 HN0A        3.6340    0.5990   -1.8750 hn        1 X40      0.257000
     29 HN05       -7.1380   -2.2040   -2.0490 hn        1 X40      0.242000
     30 HN0B       -7.3880   -0.6890   -2.4340 hn        1 X40      0.242000
     31 H12         6.1450    1.1550    2.1300 ha        1 X40      0.157000
     32 H13         7.0600   -0.5590    3.4350 ha        1 X40      0.149000
     33 H14         5.7600   -2.4560    3.9740 ha        1 X40      0.162000
     34 H15         2.6420   -0.9120    1.9000 ha        1 X40      0.169000
     35 H16        -2.2780   -1.3340    0.7640 ha        1 X40      0.139000
     36 H17        -3.7540   -2.3150   -0.7970 ha        1 X40      0.156000
     37 H19        -4.4680    1.3650   -2.4360 ha        1 X40      0.155000
     38 H20        -2.9920    2.3460   -0.8750 ha        1 X40      0.167000
@<TRIPOS>BOND
     1    1    7 1   
     2    1    8 1   
     3    2    8 1   
     4    2    9 1   
     5    2   26 1   
     6    3   14 1   
     7    4    7 1   
     8    4   27 1   
     9    4   28 1   
    10    5   25 1   
    11    5   29 1   
    12    5   30 1   
    13    6    7 1   
    14    6   24 1   
    15    8   24 1   
    16    9   16 1   
    17    9   20 1   
    18   10   11 1   
    19   10   21 1   
    20   11   12 1   
    21   11   15 1   
    22   12   13 1   
    23   12   31 1   
    24   13   32 1   
    25   14   33 1   
    26   15   34 1   
    27   16   35 1   
    28   17   18 1   
    29   17   36 1   
    30   18   25 1   
    31   19   20 1   
    32   19   37 1   
    33   20   38 1   
    34   22   25 1   
    35   23   25 1   
@<TRIPOS>SUBSTRUCTURE
     1 X40         1 TEMP              0 ****  ****    0 ROOT
