@<TRIPOS>MOLECULE
X40
   39    41     1     0     0
SMALL
bcc


@<TRIPOS>ATOM
      1 N01         0.3980    0.5470   -0.5180 nc        1 X40     -0.715000
      2 N02        -1.6540    0.5380    0.7970 nu        1 X40     -0.683300
      3 N03         4.8190    0.1100    5.0760 nb        1 X40     -0.654000
      4 N04         2.6790    0.3780   -1.3120 nv        1 X40     -0.923500
      5 N05        -6.4760   -2.4070   -2.3070 nz        1 X40     -0.779500
      6 C06         2.0970    0.0580    1.0690 cd        1 X40     -0.406000
      7 C07         1.7780    0.3410   -0.2920 cc        1 X40      0.702200
      8 C08        -0.2620    0.3890    0.6480 cd        1 X40      0.578300
      9 C09        -2.5910    0.2210   -0.1480 ca        1 X40      0.320600
     10 C10         3.4430   -0.0910    1.5930 c         1 X40      0.645300
     11 C11         3.5690   -0.3450    3.0430 ca        1 X40     -0.291900
     12 C12         2.7070   -1.1970    3.7460 ca        1 X40     -0.078000
     13 C13         2.9060   -1.3820    5.1130 ca        1 X40     -0.250300
     14 C14         3.9720   -0.7040    5.7360 ca        1 X40      0.427200
     15 C15         4.6220    0.2750    3.7560 ca        1 X40      0.455200
     16 C16        -2.3300   -0.6350   -1.2650 ca        1 X40     -0.213500
     17 C17        -3.3290   -0.9490   -2.1490 ca        1 X40      0.051500
     18 C18        -4.6590   -0.4650   -2.0090 ca        1 X40     -0.655500
     19 C19        -4.9100    0.3710   -0.8870 ca        1 X40      0.051500
     20 C20        -3.9340    0.7030    0.0130 ca        1 X40     -0.213500
     21 O21         4.4500    0.0260    0.8770 o         1 X40     -0.548100
     22 O22        -5.3180   -1.2730   -4.2880 o         1 X40     -0.579800
     23 O23        -6.9000    0.0170   -3.0170 o         1 X40     -0.579800
     24 S24         0.7110   -0.0080    2.0060 ss        1 X40      0.027700
     25 S25        -5.7580   -0.7530   -3.0890 sy        1 X40      1.517200
     26 HN02       -1.9270    1.1710    1.5250 hn        1 X40      0.468800
     27 HN04        2.4130    0.7370   -2.1970 hn        1 X40      0.462800
     28 HN0A        3.6480    0.3370   -1.0760 hn        1 X40      0.462800
     29 HN05       -6.3830   -3.1730   -2.9670 hn        1 X40      0.446133
     30 HN0B       -5.9950   -2.6620   -1.4530 hn        1 X40      0.446133
     31 H12         1.9020   -1.7440    3.2270 ha        1 X40      0.138000
     32 H13         2.2570   -2.0500    5.6960 ha        1 X40      0.152000
     33 H14         4.1660   -0.8230    6.8190 h4        1 X40      0.037100
     34 H15         5.3410    0.9310    3.2280 h4        1 X40      0.048100
     35 H16        -1.3180   -1.0420   -1.4310 ha        1 X40      0.178500
     36 H17        -3.0920   -1.5910   -3.0210 ha        1 X40      0.165000
     37 H19        -5.9300    0.7850   -0.7560 ha        1 X40      0.165000
     38 H20        -4.1810    1.3650    0.8610 ha        1 X40      0.178500
     39 H053       -7.4630   -2.2920   -2.0950 hn        1 X40      0.446133
@<TRIPOS>BOND
     1    1    7 1   
     2    1    8 2   
     3    2    8 1   
     4    2    9 1   
     5    2   26 1   
     6    3   14 ar  
     7    3   15 ar  
     8    4    7 1   
     9    4   27 1   
    10    4   28 1   
    11    5   25 1   
    12    5   29 1   
    13    5   30 1   
    14    5   39 1   
    15    6    7 2   
    16    6   10 1   
    17    6   24 1   
    18    8   24 1   
    19    9   16 ar  
    20    9   20 ar  
    21   10   11 1   
    22   10   21 2   
    23   11   12 ar  
    24   11   15 ar  
    25   12   13 ar  
    26   12   31 1   
    27   13   14 ar  
    28   13   32 1   
    29   14   33 1   
    30   15   34 1   
    31   16   17 ar  
    32   16   35 1   
    33   17   18 ar  
    34   17   36 1   
    35   18   19 ar  
    36   18   25 1   
    37   19   20 ar  
    38   19   37 1   
    39   20   38 1   
    40   22   25 2   
    41   23   25 2   
@<TRIPOS>SUBSTRUCTURE
     1 X40         1 TEMP              0 ****  ****    0 ROOT
