@<TRIPOS>MOLECULE
X40
   38    40     1     0     0
SMALL
bcc


@<TRIPOS>ATOM
      1 N01         0.4060    1.1760    0.1670 nc        1 X40     -0.746000
      2 N02        -0.4580   -1.1020    0.0270 nh        1 X40     -0.711300
      3 N03         7.2950   -0.7030    0.6850 nb        1 X40     -0.667000
      4 N04         1.7950    3.1540    0.1490 nh        1 X40     -0.932500
      5 N05        -6.7920   -0.8550   -1.3060 n3        1 X40     -1.026700
      6 C06         2.7700    0.8930    0.0180 cd        1 X40     -0.417000
      7 C07         1.6750    1.7980    0.1200 cc        1 X40      0.725200
      8 C08         0.5610   -0.1580    0.0710 cd        1 X40      0.689300
      9 C09        -1.8290   -0.7900    0.0480 ca        1 X40      0.204600
     10 C10         4.1610    1.2650    0.0460 c         1 X40      0.648300
     11 C11         5.1560    0.1730   -0.0660 ca        1 X40     -0.273900
     12 C12         4.9970   -0.9130   -0.9340 ca        1 X40     -0.072000
     13 C13         5.9910   -1.8920   -0.9800 ca        1 X40     -0.254300
     14 C14         7.1170   -1.7460   -0.1500 ca        1 X40      0.412200
     15 C15         6.3340    0.2370    0.7140 ca        1 X40      0.444200
     16 C16        -2.3690    0.2970   -0.6740 ca        1 X40     -0.183000
     17 C17        -3.7420    0.5060   -0.6850 ca        1 X40      0.005500
     18 C18        -4.6230   -0.3420   -0.0060 ca        1 X40     -0.410500
     19 C19        -4.0820   -1.4170    0.7100 ca        1 X40      0.005500
     20 C20        -2.7160   -1.6490    0.7460 ca        1 X40     -0.183000
     21 O21         4.5440    2.4420    0.1910 o         1 X40     -0.583100
     22 O22        -6.4980    1.3250   -0.2140 o         1 X40     -0.658800
     23 O23        -6.8420   -0.6470    1.1410 o         1 X40     -0.658800
     24 S24         2.2100   -0.6980   -0.0790 ss        1 X40     -0.120300
     25 S25        -6.2840   -0.0550   -0.0130 sy        1 X40      1.531200
     26 HN02       -0.2180   -1.9730    0.4590 hn        1 X40      0.440800
     27 HN04        1.0060    3.7220    0.3370 hn        1 X40      0.459300
     28 HN0A        2.7110    3.5400    0.2160 hn        1 X40      0.459300
     29 HN05       -7.0950   -1.7950   -1.2840 hn        1 X40      0.446800
     30 HN0B       -6.8620   -0.4520   -2.2060 hn        1 X40      0.446800
     31 H12         4.1120   -0.9890   -1.5890 ha        1 X40      0.150000
     32 H13         5.9020   -2.7560   -1.6510 ha        1 X40      0.147000
     33 H14         7.9260   -2.5000   -0.1540 h4        1 X40      0.026100
     34 H15         6.5030    1.0970    1.3900 h4        1 X40      0.042100
     35 H16        -1.7170    0.9870   -1.2320 ha        1 X40      0.152000
     36 H17        -4.1480    1.3750   -1.2340 ha        1 X40      0.155500
     37 H19        -4.7600   -2.0800    1.2780 ha        1 X40      0.155500
     38 H20        -2.3300   -2.5010    1.3250 ha        1 X40      0.152000
@<TRIPOS>BOND
     1    1    7 1   
     2    1    8 2   
     3    2    8 1   
     4    2    9 1   
     5    2   26 1   
     6    3   14 ar  
     7    3   15 ar  
     8    4    7 1   
     9    4   27 1   
    10    4   28 1   
    11    5   25 1   
    12    5   29 1   
    13    5   30 1   
    14    6    7 2   
    15    6   10 1   
    16    6   24 1   
    17    8   24 1   
    18    9   16 ar  
    19    9   20 ar  
    20   10   11 1   
    21   10   21 2   
    22   11   12 ar  
    23   11   15 ar  
    24   12   13 ar  
    25   12   31 1   
    26   13   14 ar  
    27   13   32 1   
    28   14   33 1   
    29   15   34 1   
    30   16   17 ar  
    31   16   35 1   
    32   17   18 ar  
    33   17   36 1   
    34   18   19 ar  
    35   18   25 1   
    36   19   20 ar  
    37   19   37 1   
    38   20   38 1   
    39   22   25 2   
    40   23   25 2   
@<TRIPOS>SUBSTRUCTURE
     1 X40         1 TEMP              0 ****  ****    0 ROOT
