@<TRIPOS>MOLECULE
X40
   39    41     1     0     0
SMALL
bcc


@<TRIPOS>ATOM
      1 N01         0.4010    0.5330   -0.5240 nc        1 X40     -0.715000
      2 N02        -1.6460    0.5420    0.8000 nh        1 X40     -0.683300
      3 N03         4.8440    0.0830    5.0510 nb        1 X40     -0.654000
      4 N04         2.6770    0.3460   -1.3280 nh        1 X40     -0.923500
      5 N05        -6.5030   -2.3670   -2.2830 n4        1 X40     -0.779500
      6 C06         2.1030    0.0360    1.0580 cd        1 X40     -0.406000
      7 C07         1.7790    0.3180   -0.3030 cc        1 X40      0.702200
      8 C08        -0.2560    0.3830    0.6450 cd        1 X40      0.579300
      9 C09        -2.5890    0.2310   -0.1410 ca        1 X40      0.320600
     10 C10         3.4500   -0.1200    1.5760 c         1 X40      0.645300
     11 C11         3.5810   -0.3700    3.0260 ca        1 X40     -0.290900
     12 C12         2.7160   -1.2130    3.7350 ca        1 X40     -0.078000
     13 C13         2.9210   -1.3950    5.1030 ca        1 X40     -0.250300
     14 C14         3.9940   -0.7230    5.7180 ca        1 X40      0.427200
     15 C15         4.6420    0.2450    3.7320 ca        1 X40      0.455200
     16 C16        -2.3400   -0.6260   -1.2580 ca        1 X40     -0.213500
     17 C17        -3.3450   -0.9330   -2.1380 ca        1 X40      0.051000
     18 C18        -4.6710   -0.4390   -1.9920 ca        1 X40     -0.655500
     19 C19        -4.9110    0.3990   -0.8690 ca        1 X40      0.051000
     20 C20        -3.9280    0.7240    0.0270 ca        1 X40     -0.213500
     21 O21         4.4540   -0.0130    0.8540 o         1 X40     -0.548100
     22 O22        -5.3460   -1.2410   -4.2690 o         1 X40     -0.579800
     23 O23        -6.9120    0.0600   -2.9900 o         1 X40     -0.579800
     24 S24         0.7210   -0.0170    2.0000 ss        1 X40      0.027700
     25 S25        -5.7770   -0.7180   -3.0680 sy        1 X40      1.517200
     26 HN02       -1.9110    1.1770    1.5300 hn        1 X40      0.468800
     27 HN04        2.4090    0.7030   -2.2130 hn        1 X40      0.462800
     28 HN0A        3.6460    0.2980   -1.0960 hn        1 X40      0.462800
     29 HN05       -6.4190   -3.1330   -2.9440 hn        1 X40      0.446133
     30 HN0B       -7.4880   -2.2450   -2.0670 hn        1 X40      0.446133
     31 H12         1.9050   -1.7560    3.2220 ha        1 X40      0.138000
     32 H13         2.2690   -2.0560    5.6900 ha        1 X40      0.152000
     33 H14         4.1920   -0.8390    6.8000 h4        1 X40      0.037100
     34 H15         5.3630    0.8930    3.1980 h4        1 X40      0.048100
     35 H16        -1.3310   -1.0400   -1.4290 ha        1 X40      0.178500
     36 H17        -3.1160   -1.5760   -3.0110 ha        1 X40      0.165000
     37 H19        -5.9270    0.8200   -0.7340 ha        1 X40      0.165000
     38 H20        -4.1670    1.3870    0.8760 ha        1 X40      0.178500
     39 H053       -6.0210   -2.6270   -1.4320 hn        1 X40      0.446133
@<TRIPOS>BOND
     1    1    7 1   
     2    1    8 2   
     3    2    8 1   
     4    2    9 1   
     5    2   26 1   
     6    3   14 ar  
     7    3   15 ar  
     8    4    7 1   
     9    4   27 1   
    10    4   28 1   
    11    5   25 1   
    12    5   29 1   
    13    5   30 1   
    14    5   39 1   
    15    6    7 2   
    16    6   10 1   
    17    6   24 1   
    18    8   24 1   
    19    9   16 ar  
    20    9   20 ar  
    21   10   11 1   
    22   10   21 2   
    23   11   12 ar  
    24   11   15 ar  
    25   12   13 ar  
    26   12   31 1   
    27   13   14 ar  
    28   13   32 1   
    29   14   33 1   
    30   15   34 1   
    31   16   17 ar  
    32   16   35 1   
    33   17   18 ar  
    34   17   36 1   
    35   18   19 ar  
    36   18   25 1   
    37   19   20 ar  
    38   19   37 1   
    39   20   38 1   
    40   22   25 2   
    41   23   25 2   
@<TRIPOS>SUBSTRUCTURE
     1 X40         1 TEMP              0 ****  ****    0 ROOT
